# generated using pymatgen
data_CoH8C8(N3O2)2
_symmetry_space_group_name_H-M   'P 1'
_cell_length_a   4.83536369
_cell_length_b   8.43572382
_cell_length_c   11.97602439
_cell_angle_alpha   91.35899403
_cell_angle_beta   90.00030267
_cell_angle_gamma   89.99943283
_symmetry_Int_Tables_number   1
_chemical_formula_structural   CoH8C8(N3O2)2
_chemical_formula_sum   'Co2 H16 C16 N12 O8'
_cell_volume   488.36214617
_cell_formula_units_Z   2
loop_
 _symmetry_equiv_pos_site_id
 _symmetry_equiv_pos_as_xyz
  1  'x, y, z'
loop_
 _atom_site_type_symbol
 _atom_site_label
 _atom_site_symmetry_multiplicity
 _atom_site_fract_x
 _atom_site_fract_y
 _atom_site_fract_z
 _atom_site_occupancy
 _atom_site_hle17_ddec_charge
 _atom_site_hle17_ddec_spin_density
 _atom_site_hle17_ddec_sum_bond_order
 _atom_site_hle17_magmom
 _atom_site_hse06_10hf_ddec_charge
 _atom_site_hse06_10hf_ddec_spin_density
 _atom_site_hse06_10hf_ddec_sum_bond_order
 _atom_site_hse06_10hf_magmom
 _atom_site_hse06_ddec_charge
 _atom_site_hse06_ddec_spin_density
 _atom_site_hse06_ddec_sum_bond_order
 _atom_site_hse06_magmom
 _atom_site_pbe_cm5_charge
 _atom_site_pbe_ddec_charge
 _atom_site_pbe_ddec_spin_density
 _atom_site_pbe_ddec_sum_bond_order
 _atom_site_pbe_magmom
Co  Co0  1  0.49999977  0.49999982  0.99999961  1  1.025108  2.844242  1.992416  2.6  1.005536  2.846337  2.382637  2.669  1.079842  2.884033  2.312437  2.74  0.660293  0.938081  2.806623  2.442433  2.59
Co  Co1  1  0.99999913  0.99999955  0.49999988  1  1.025036  2.84423  1.992286  2.6  1.005421  2.846356  2.382497  2.669  1.079727  2.88405  2.312319  2.74  0.660239  0.937965  2.80663  2.44226  2.59
H  H2  1  0.45511304  0.68238658  0.49254831  1  0.103123  -0.000117  0.980603  0.0  0.105998  -8.1e-05  1.052103  0.0  0.109613  -0.000117  1.048413  0.0  0.130612  0.102481  -6.8e-05  1.056257  0.0
H  H3  1  0.95511659  0.81761421  0.00745267  1  0.103084  -0.000117  0.980622  0.0  0.105988  -8.1e-05  1.052092  0.0  0.109603  -0.000117  1.048401  0.0  0.130601  0.102469  -6.7e-05  1.056237  0.0
H  H4  1  0.54488617  0.31761397  0.50745114  1  0.103082  -0.000117  0.980626  0.0  0.105959  -8.1e-05  1.052139  0.0  0.109573  -0.000117  1.048449  0.0  0.130577  0.102439  -6.8e-05  1.056288  0.0
H  H5  1  0.04488262  0.18238515  0.99254676  1  0.103051  -0.000117  0.98063  0.0  0.105951  -8.1e-05  1.052113  0.0  0.109565  -0.000117  1.048422  0.0  0.130579  0.102434  -6.7e-05  1.056266  0.0
H  H6  1  0.73052003  0.75422890  0.68056123  1  0.100081  -0.000256  0.963224  0.0  0.104659  -0.000173  1.035131  0.0  0.107215  -0.000142  1.032531  0.0  0.137041  0.102463  -0.00029  1.037118  0.0
H  H7  1  0.23052346  0.74577225  0.81943989  1  0.100076  -0.000256  0.963251  0.0  0.104654  -0.000173  1.03515  0.0  0.107215  -0.000142  1.03255  0.0  0.137029  0.102452  -0.00029  1.037138  0.0
H  H8  1  0.26947918  0.24577165  0.31943906  1  0.100076  -0.000256  0.963234  0.0  0.104641  -0.000173  1.035153  0.0  0.107205  -0.000142  1.032549  0.0  0.13704  0.10244  -0.000291  1.037136  0.0
H  H9  1  0.76947782  0.25422830  0.18055956  1  0.100035  -0.000256  0.963246  0.0  0.104588  -0.000173  1.035178  0.0  0.107169  -0.000142  1.032555  0.0  0.137009  0.102388  -0.00029  1.037166  0.0
H  H10  1  0.91169530  0.32005370  0.68706367  1  0.139805  -0.000718  0.911641  0.0  0.153817  -0.000374  0.968578  0.0  0.156672  -0.00033  0.967018  0.0  0.129785  0.151118  -0.000392  0.97037  0.0
H  H11  1  0.41169358  0.17994692  0.81293755  1  0.139871  -0.000717  0.911596  0.0  0.15386  -0.000374  0.968553  0.0  0.156712  -0.00033  0.966999  0.0  0.129813  0.151168  -0.00039  0.970347  0.0
H  H12  1  0.08830597  0.67994566  0.31293660  1  0.139803  -0.000718  0.911657  0.0  0.153812  -0.000374  0.968601  0.0  0.156666  -0.000331  0.967041  0.0  0.129788  0.151116  -0.000392  0.970399  0.0
H  H13  1  0.58830770  0.82005244  0.18706188  1  0.139817  -0.000717  0.911613  0.0  0.153835  -0.000374  0.968534  0.0  0.156687  -0.00033  0.96698  0.0  0.129833  0.151151  -0.000391  0.970321  0.0
H  H14  1  0.65495466  0.45922778  0.73243191  1  0.125569  8.7e-05  0.949338  0.0  0.127396  0.00022  1.028581  0.0  0.130372  0.000108  1.026552  0.0  0.119217  0.125898  0.000373  1.029117  0.001
H  H15  1  0.15495061  0.04077309  0.76756793  1  0.125563  8.8e-05  0.949372  0.0  0.12739  0.00022  1.028609  0.0  0.130365  0.000108  1.026579  0.0  0.119214  0.125896  0.000373  1.029145  0.001
H  H16  1  0.34504662  0.54077277  0.26756755  1  0.125558  8.7e-05  0.949336  0.0  0.127382  0.00022  1.02859  0.0  0.130356  0.000108  1.026562  0.0  0.119209  0.125885  0.000373  1.029124  0.001
H  H17  1  0.84504859  0.95922627  0.23243317  1  0.125559  8.7e-05  0.949357  0.0  0.12738  0.00022  1.028601  0.0  0.130354  0.000108  1.026572  0.0  0.119219  0.125885  0.000373  1.029141  0.001
C  C18  1  0.28175949  0.66363950  0.54830001  1  0.180914  -0.006673  3.688862  -0.004  0.131437  -0.001244  3.98705  0.0  0.142671  -0.001123  3.997557  0.0  0.136143  0.123229  -0.001938  3.982115  -0.001
C  C19  1  0.78176026  0.83636017  0.95170036  1  0.180911  -0.006676  3.688941  -0.004  0.131409  -0.001244  3.987133  0.0  0.142643  -0.001124  3.997642  0.0  0.136138  0.123217  -0.001943  3.98218  -0.001
C  C20  1  0.71823972  0.33636105  0.45169945  1  0.180967  -0.006674  3.688862  -0.004  0.131483  -0.001243  3.987065  0.0  0.142718  -0.001124  3.99757  0.0  0.136182  0.123283  -0.001938  3.982116  -0.001
C  C21  1  0.21823688  0.16363919  0.04829907  1  0.180969  -0.006673  3.688983  -0.004  0.131469  -0.001245  3.987185  0.0  0.142704  -0.001125  3.997696  0.0  0.136184  0.123272  -0.001943  3.982244  -0.001
C  C22  1  0.91471939  0.70410520  0.64279250  1  0.162555  -0.011776  3.640067  -0.007  0.091727  -0.002142  3.911466  -0.001  0.106509  -0.001457  3.921593  -0.001  0.155662  0.082309  -0.005135  3.904894  -0.003
C  C23  1  0.41472038  0.79589373  0.85720814  1  0.1625  -0.011781  3.640099  -0.007  0.091679  -0.002142  3.911501  -0.001  0.10645  -0.001454  3.921622  -0.001  0.155641  0.08225  -0.005138  3.904955  -0.003
C  C24  1  0.08528189  0.29589416  0.35720693  1  0.162545  -0.011779  3.64007  -0.007  0.091734  -0.002142  3.911468  -0.001  0.106506  -0.001455  3.921587  -0.001  0.155651  0.082324  -0.005135  3.90488  -0.003
C  C25  1  0.58527883  0.20410445  0.14279211  1  0.162529  -0.011777  3.64014  -0.007  0.091737  -0.002142  3.911529  -0.001  0.106493  -0.001456  3.921641  -0.001  0.155668  0.082306  -0.005137  3.90498  -0.003
C  C26  1  0.87811695  0.43641462  0.72826583  1  -0.18949  0.00429  3.595077  0.007  -0.260773  0.002888  3.835257  0.004  -0.263046  0.001821  3.840142  0.003  -0.051629  -0.258307  0.004007  3.831087  0.006
C  C27  1  0.37811256  0.06358737  0.77173450  1  -0.189612  0.004287  3.595116  0.007  -0.260869  0.002887  3.835332  0.004  -0.263142  0.001819  3.840215  0.003  -0.051653  -0.258413  0.004001  3.83117  0.006
C  C28  1  0.12188226  0.56358592  0.27173446  1  -0.189522  0.004289  3.595068  0.007  -0.260802  0.002888  3.835248  0.004  -0.263074  0.00182  3.840132  0.003  -0.051623  -0.258336  0.004007  3.831085  0.006
C  C29  1  0.62188871  0.93641199  0.22826577  1  -0.189547  0.004289  3.594989  0.007  -0.260807  0.002887  3.835194  0.004  -0.263078  0.001819  3.840076  0.003  -0.051714  -0.258368  0.004001  3.831034  0.006
C  C30  1  0.99856580  0.43036694  0.84659933  1  0.696556  -0.006271  3.812726  -0.004  0.654442  0.002016  4.122123  0.005  0.692071  0.001835  4.114358  0.005  0.222538  0.62786  0.003445  4.123483  0.005
C  C31  1  0.49856803  0.06963201  0.65340205  1  0.696663  -0.006261  3.81247  -0.004  0.654469  0.002017  4.121976  0.005  0.692094  0.001837  4.114211  0.005  0.222555  0.627909  0.003478  4.123327  0.005
C  C32  1  0.00143341  0.56963242  0.15340094  1  0.696614  -0.00627  3.812605  -0.004  0.654475  0.002017  4.122037  0.005  0.692104  0.001836  4.114268  0.005  0.222566  0.627898  0.003446  4.123384  0.005
C  C33  1  0.50143118  0.93036735  0.34659822  1  0.696726  -0.006264  3.812353  -0.004  0.654528  0.002018  4.121853  0.005  0.692157  0.001837  4.114086  0.005  0.222604  0.627979  0.003477  4.123188  0.005
N  N34  1  0.00459896  0.55546928  0.65930039  1  0.064611  0.000227  3.595358  0.001  0.184022  0.000429  3.777932  0.001  0.1743  0.000471  3.802305  0.001  -0.135593  0.188599  0.000193  3.764539  0.001
N  N35  1  0.50459641  0.94453076  0.84069939  1  0.064694  0.000229  3.595268  0.001  0.184099  0.00043  3.777864  0.001  0.17438  0.00047  3.80223  0.001  -0.135589  0.188677  0.00019  3.76448  0.001
N  N36  1  0.99540025  0.44453126  0.34069906  1  0.064625  0.000228  3.595359  0.001  0.184039  0.00043  3.77792  0.001  0.174317  0.00047  3.802294  0.001  -0.135594  0.18861  0.000193  3.764536  0.001
N  N37  1  0.49540487  0.05546979  0.15930090  1  0.064668  0.000228  3.595283  0.001  0.18406  0.00043  3.777894  0.001  0.174338  0.000469  3.802268  0.001  -0.1356  0.188641  0.00019  3.764501  0.001
N  N38  1  0.24020260  0.52760462  0.59986697  1  -0.262739  0.00349  2.84725  0.006  -0.260628  0.001718  3.120023  0.003  -0.268336  0.001293  3.133657  0.002  -0.219283  -0.256145  0.001927  3.112635  0.003
N  N39  1  0.74020241  0.97239528  0.90013331  1  -0.262722  0.003491  2.847194  0.006  -0.26061  0.001718  3.119994  0.003  -0.268318  0.001293  3.133625  0.002  -0.219271  -0.256131  0.001927  3.112611  0.003
N  N40  1  0.75979661  0.47239474  0.40013330  1  -0.262755  0.00349  2.847244  0.006  -0.260647  0.001718  3.120031  0.003  -0.268354  0.001293  3.133662  0.002  -0.219293  -0.256175  0.001927  3.112655  0.003
N  N41  1  0.25979887  0.02760527  0.09986615  1  -0.262736  0.00349  2.847263  0.006  -0.260618  0.001718  3.120048  0.003  -0.268326  0.001295  3.133679  0.002  -0.219288  -0.256141  0.001927  3.112663  0.003
N  N42  1  0.08561418  0.77649060  0.57259089  1  -0.393623  0.025358  3.233556  0.053  -0.354473  0.019909  3.538527  0.035  -0.37683  0.016838  3.545057  0.03  -0.34141  -0.339522  0.021653  3.537968  0.039
N  N43  1  0.58561657  0.72351017  0.92741075  1  -0.393582  0.025359  3.233578  0.053  -0.354444  0.019909  3.538575  0.035  -0.376806  0.016835  3.54512  0.03  -0.341389  -0.339501  0.021645  3.538044  0.039
N  N44  1  0.91438503  0.22350994  0.42740856  1  -0.393589  0.025359  3.233521  0.053  -0.354448  0.019908  3.538503  0.035  -0.376804  0.016837  3.545034  0.03  -0.341398  -0.339497  0.021655  3.537928  0.039
N  N45  1  0.41438264  0.27648920  0.07258869  1  -0.393579  0.025359  3.233587  0.053  -0.354445  0.019909  3.538579  0.035  -0.376808  0.016836  3.545127  0.03  -0.341387  -0.339508  0.021647  3.538052  0.039
O  O46  1  0.83428737  0.39175964  0.92382128  1  -0.620372  0.032183  2.120616  0.057  -0.593804  0.022754  2.4061  0.036  -0.629891  0.015241  2.39573  0.024  -0.310123  -0.561813  0.033512  2.409741  0.053
O  O47  1  0.33430861  0.10824498  0.57617233  1  -0.62037  0.032182  2.120447  0.057  -0.593741  0.022747  2.405926  0.036  -0.629844  0.015232  2.395597  0.024  -0.310104  -0.561767  0.033496  2.409533  0.053
O  O48  1  0.16571597  0.60823972  0.07617815  1  -0.620365  0.032185  2.120591  0.057  -0.593789  0.022755  2.406076  0.036  -0.629884  0.015241  2.395721  0.024  -0.310113  -0.5618  0.033517  2.409711  0.053
O  O49  1  0.66569267  0.89175439  0.42382794  1  -0.620401  0.032184  2.120429  0.057  -0.593783  0.022748  2.405934  0.036  -0.629873  0.015232  2.395571  0.024  -0.310115  -0.561814  0.033498  2.409541  0.053
O  O50  1  0.25588107  0.45640454  0.85704569  1  -0.619542  0.038056  2.0903  0.067  -0.586591  0.030909  2.366057  0.051  -0.621231  0.023548  2.355463  0.04  -0.303103  -0.557199  0.039409  2.371282  0.064
O  O51  1  0.75587872  0.04357916  0.64296577  1  -0.619607  0.038054  2.090194  0.067  -0.586595  0.030909  2.365929  0.051  -0.621234  0.023548  2.355333  0.04  -0.303111  -0.557217  0.039391  2.371169  0.064
O  O52  1  0.74412020  0.54359482  0.14295458  1  -0.619574  0.038054  2.090257  0.067  -0.586587  0.030908  2.365988  0.051  -0.621226  0.023547  2.355392  0.04  -0.303127  -0.5572  0.039408  2.371213  0.064
O  O53  1  0.24412256  0.95642139  0.35703452  1  -0.619617  0.038053  2.090155  0.067  -0.586622  0.030908  2.365922  0.051  -0.621263  0.023548  2.355324  0.04  -0.303123  -0.55724  0.039391  2.371137  0.064
