# generated using pymatgen
data_Ni2H30C40N4O9
_symmetry_space_group_name_H-M   'P 1'
_cell_length_a   13.68025037
_cell_length_b   13.68028168
_cell_length_c   18.24528037
_cell_angle_alpha   103.70474492
_cell_angle_beta   103.70357751
_cell_angle_gamma   111.60292469
_symmetry_Int_Tables_number   1
_chemical_formula_structural   Ni2H30C40N4O9
_chemical_formula_sum   'Ni4 H60 C80 N8 O18'
_cell_volume   2878.95406201
_cell_formula_units_Z   2
loop_
 _symmetry_equiv_pos_site_id
 _symmetry_equiv_pos_as_xyz
  1  'x, y, z'
loop_
 _atom_site_type_symbol
 _atom_site_label
 _atom_site_symmetry_multiplicity
 _atom_site_fract_x
 _atom_site_fract_y
 _atom_site_fract_z
 _atom_site_occupancy
 _atom_site_pbe_bader_charge
 _atom_site_pbe_bader_spin_density
 _atom_site_pbe_cm5_charge
 _atom_site_pbe_ddec_charge
 _atom_site_pbe_ddec_spin_density
 _atom_site_pbe_ddec_sum_bond_order
 _atom_site_pbe_magmom
Ni  Ni0  1  0.83267370  0.35390456  0.46485787  1  1.201721  1.565529  0.656038  0.817728  1.77966  2.51882  1.552
Ni  Ni1  1  0.63221635  0.11096503  0.46484393  1  1.204343  1.565823  0.654765  0.816398  1.779653  2.519947  1.553
Ni  Ni2  1  0.60390023  0.58266393  0.96485952  1  1.201674  1.565517  0.656094  0.817858  1.779659  2.51862  1.552
Ni  Ni3  1  0.36096075  0.38221040  0.96484320  1  1.204237  1.565816  0.654751  0.816523  1.779652  2.519753  1.553
H  H4  1  0.04235166  0.40114585  0.43118614  1  0.134239  0.002223  0.126525  0.104773  0.000812  0.987926  0.002
H  H5  1  0.38869279  0.03011045  0.43117333  1  0.131591  0.002218  0.127265  0.106732  0.000811  0.987082  0.002
H  H6  1  0.65112808  0.79234198  0.93119055  1  0.134036  0.002223  0.126504  0.104773  0.000812  0.987958  0.002
H  H7  1  0.28008764  0.13868379  0.93117618  1  0.131882  0.002218  0.127282  0.106697  0.000811  0.987162  0.002
H  H8  1  0.14937095  0.50989364  0.35989843  1  0.071553  0.00112  0.1049  0.112801  0.000534  1.006923  0.0
H  H9  1  0.21031567  0.85013131  0.35990651  1  0.057722  0.001132  0.105543  0.113267  0.000533  1.007204  0.0
H  H10  1  0.75987369  0.89937036  0.85990517  1  0.071596  0.00112  0.104993  0.112941  0.000534  1.00688  0.0
H  H11  1  0.10010280  0.96031324  0.85990742  1  0.057453  0.001132  0.105494  0.113201  0.000533  1.007071  0.0
H  H12  1  0.87703604  0.59721670  0.28810473  1  0.082545  0.001121  0.11292  0.125646  0.000527  0.981792  0.0
H  H13  1  0.41069817  0.69079839  0.28811714  1  0.089395  0.001116  0.112949  0.125118  0.000525  0.981118  0.0
H  H14  1  0.84721636  0.62704465  0.78810755  1  0.082412  0.001121  0.112929  0.125665  0.000527  0.981768  0.0
H  H15  1  0.94079081  0.16071037  0.78812314  1  0.089202  0.001116  0.112944  0.125151  0.000525  0.981108  0.0
H  H16  1  0.78269599  0.48385106  0.36257440  1  0.134986  0.002194  0.123935  0.098638  0.000811  0.996179  0.001
H  H17  1  0.57958409  0.87857250  0.36259167  1  0.105897  0.002197  0.12371  0.097935  0.000809  0.995858  0.001
H  H18  1  0.73385471  0.53270188  0.86257791  1  0.134887  0.002194  0.123944  0.098616  0.000811  0.996227  0.001
H  H19  1  0.12856542  0.32959145  0.86260128  1  0.106099  0.002197  0.123715  0.097894  0.000809  0.99582  0.001
H  H20  1  0.06552911  0.70183119  0.27607978  1  0.036696  -4e-05  0.105094  0.082816  -2.8e-05  0.982579  0.0
H  H21  1  0.21020994  0.57426453  0.27616592  1  0.041846  -4e-05  0.105326  0.08294  -2.8e-05  0.983635  0.0
H  H22  1  0.95181878  0.81553806  0.77608328  1  0.036992  -4e-05  0.105077  0.082785  -2.8e-05  0.982618  0.0
H  H23  1  0.82424488  0.96021304  0.77616637  1  0.04151  -4e-05  0.105279  0.08281  -2.8e-05  0.983771  0.0
H  H24  1  0.00860481  0.46700373  0.16645760  1  0.053692  0.000131  0.103492  0.080912  0.000101  0.981685  0.0
H  H25  1  0.15763191  0.69938696  0.16648931  1  0.040791  0.000131  0.103524  0.081069  0.000101  0.981072  0.0
H  H26  1  0.71699311  0.75860339  0.66645928  1  0.053579  0.000131  0.103533  0.080921  0.000101  0.981658  0.0
H  H27  1  0.94937839  0.90763112  0.66649455  1  0.041347  0.000131  0.103556  0.08118  0.000101  0.980939  0.0
H  H28  1  0.01414942  0.73963035  0.14406961  1  0.049621  0.00113  0.104982  0.109003  0.00054  1.005428  0.0
H  H29  1  0.12979465  0.40437124  0.14403152  1  0.056685  0.001122  0.105364  0.109416  0.000538  1.005315  0.0
H  H30  1  0.98962664  0.76415108  0.64408381  1  0.050404  0.001129  0.104934  0.108941  0.00054  1.005415  0.0
H  H31  1  0.65436454  0.87979674  0.64403122  1  0.056719  0.001122  0.105342  0.109383  0.000538  1.005299  0.0
H  H32  1  0.84225178  0.74033286  0.05967549  1  0.127835  0.002024  0.120164  0.09333  0.000672  1.010039  0.001
H  H33  1  0.21741227  0.31940428  0.05966055  1  0.098669  0.002029  0.119793  0.093197  0.000672  1.008232  0.001
H  H34  1  0.99033702  0.59225778  0.55968457  1  0.127885  0.002023  0.120175  0.093368  0.000672  1.010019  0.001
H  H35  1  0.56940415  0.96741572  0.55966231  1  0.098637  0.002029  0.119782  0.093183  0.000671  1.008305  0.001
H  H36  1  0.65126069  0.39987315  0.00413505  1  0.136949  0.002191  0.127847  0.103502  0.000738  0.987748  0.001
H  H37  1  0.35299072  0.60455129  0.00439161  1  0.133956  0.002186  0.127808  0.103455  0.000737  0.98643  0.001
H  H38  1  0.64987338  0.40125779  0.50412440  1  0.137225  0.002191  0.12787  0.103566  0.000738  0.987742  0.001
H  H39  1  0.85455375  0.10298728  0.50439347  1  0.134142  0.002185  0.12781  0.103466  0.000737  0.986467  0.001
H  H40  1  0.81455441  0.38353131  0.08674786  1  0.064579  0.001318  0.113599  0.122171  0.000623  0.982215  0.001
H  H41  1  0.27244932  0.70346490  0.08715423  1  0.082302  0.0013  0.113359  0.121944  0.000622  0.982146  0.001
H  H42  1  0.63352086  0.56454760  0.58673966  1  0.064463  0.001318  0.113569  0.122122  0.000623  0.982293  0.001
H  H43  1  0.95346078  0.02244228  0.58715290  1  0.082335  0.0013  0.113394  0.121992  0.000622  0.982174  0.001
H  H44  1  0.36973870  0.08165846  0.29503271  1  0.080191  2.6e-05  0.098207  0.099072  -6.1e-05  1.029723  0.0
H  H45  1  0.92555784  0.21355515  0.29518562  1  0.077212  2.9e-05  0.097316  0.09836  -6.2e-05  1.029335  0.0
H  H46  1  0.33165607  0.11972235  0.79503634  1  0.080054  2.6e-05  0.098202  0.099  -6.1e-05  1.029747  0.0
H  H47  1  0.46355944  0.67553235  0.79518045  1  0.076946  2.9e-05  0.097373  0.098474  -6.2e-05  1.029377  0.0
H  H48  1  0.22127592  0.04001065  0.16493659  1  -0.0002  0.000277  0.091604  0.086739  0.000123  1.007031  0.0
H  H49  1  0.94383950  0.12510226  0.16505718  1  0.058034  0.000269  0.09113  0.085889  0.000123  1.00706  0.0
H  H50  1  0.29000228  0.97126180  0.66493299  1  -0.000271  0.000277  0.091561  0.086727  0.000123  1.007014  0.0
H  H51  1  0.37509814  0.69383461  0.66506247  1  0.057745  0.000269  0.09113  0.08586  0.000123  1.007064  0.0
H  H52  1  0.26952401  0.15677107  0.08020164  1  0.054788  0.000205  0.095302  0.093443  0.000124  1.032816  0.0
H  H53  1  0.81087103  0.92360273  0.08029188  1  0.089072  0.000206  0.096186  0.094326  0.000124  1.032584  0.0
H  H54  1  0.40675988  0.01951449  0.58019554  1  0.054796  0.000204  0.095343  0.093424  0.000124  1.032775  0.0
H  H55  1  0.17359507  0.56086488  0.58029958  1  0.088938  0.000206  0.0962  0.094344  0.000125  1.032592  0.0
H  H56  1  0.60797922  0.34943848  0.25148272  1  0.093846  0.00025  0.1031  0.107307  0.000128  1.027177  0.0
H  H57  1  0.64377361  0.90220595  0.25161982  1  0.100055  0.000251  0.101182  0.106147  0.000128  1.028513  0.0
H  H58  1  0.59944033  0.35797027  0.75149049  1  0.094254  0.000249  0.103022  0.107143  0.000128  1.027155  0.0
H  H59  1  0.15221100  0.39374499  0.75161256  1  0.099942  0.000251  0.101104  0.106027  0.000128  1.028486  0.0
H  H60  1  0.84392892  0.27819478  0.57510656  1  0.648686  0.000385  0.28785  0.376699  0.000625  0.965951  0.001
H  H61  1  0.73121516  0.29696437  0.57504183  1  0.643343  0.000373  0.288373  0.377851  0.000621  0.965146  0.001
H  H62  1  0.52819239  0.59392495  0.07510919  1  0.64802  0.000384  0.287855  0.376718  0.000625  0.965916  0.001
H  H63  1  0.54695762  0.48121053  0.07504029  1  0.643371  0.000372  0.288364  0.377861  0.000621  0.965181  0.001
C  C64  1  0.00988133  0.44628060  0.39843188  1  0.479729  -0.005649  0.053477  0.101887  -0.006313  3.944769  -0.004
C  C65  1  0.38837755  0.95218208  0.39846373  1  0.481396  -0.0056  0.052625  0.099091  -0.006279  3.943876  -0.004
C  C66  1  0.69626326  0.75987688  0.89843650  1  0.480208  -0.005652  0.053521  0.101848  -0.006314  3.944624  -0.004
C  C67  1  0.20216155  0.13837598  0.89846843  1  0.48132  -0.005601  0.052528  0.099065  -0.006279  3.943746  -0.004
C  C68  1  0.06828157  0.50719676  0.35845664  1  -0.062791  0.00602  -0.092885  -0.199084  0.003254  3.974776  0.005
C  C69  1  0.28995385  0.85131296  0.35848947  1  -0.029851  0.006008  -0.093603  -0.199337  0.003251  3.975927  0.005
C  C70  1  0.75718032  0.81828232  0.85846209  1  -0.063673  0.006022  -0.092876  -0.199096  0.003254  3.974997  0.005
C  C71  1  0.10128872  0.03995367  0.85849313  1  -0.029494  0.006008  -0.09355  -0.199261  0.003251  3.975608  0.005
C  C72  1  0.02221623  0.56377407  0.31769135  1  -0.005767  -0.008064  0.002633  0.125687  -0.008804  3.986842  -0.005
C  C73  1  0.29520856  0.75392925  0.31774420  1  -0.04175  -0.008043  0.002557  0.125795  -0.008766  3.990148  -0.005
C  C74  1  0.81375648  0.77221529  0.81769573  1  -0.005443  -0.008064  0.002583  0.125497  -0.008805  3.987357  -0.005
C  C75  1  0.00390926  0.04521059  0.81774451  1  -0.041896  -0.008043  0.002589  0.125935  -0.008766  3.989948  -0.005
C  C76  1  0.91770390  0.55592680  0.31948138  1  -0.057864  0.005704  -0.08685  -0.186002  0.00314  3.953932  0.004
C  C77  1  0.40147910  0.76351077  0.31950874  1  -0.02959  0.005681  -0.087372  -0.185583  0.003134  3.949295  0.004
C  C78  1  0.80592202  0.66770951  0.81948795  1  -0.057678  0.005702  -0.086918  -0.186052  0.00314  3.954098  0.004
C  C79  1  0.01349638  0.15148443  0.81951350  1  -0.029499  0.005681  -0.087338  -0.185756  0.003134  3.949382  0.004
C  C80  1  0.86462801  0.49344855  0.36065979  1  0.478487  -0.004936  0.051216  0.095117  -0.005674  3.948778  -0.003
C  C81  1  0.49578030  0.86715629  0.36070875  1  0.500259  -0.004949  0.053873  0.098544  -0.00567  3.944145  -0.003
C  C82  1  0.74344303  0.61462691  0.86066084  1  0.478643  -0.004936  0.051184  0.095103  -0.005675  3.949065  -0.003
C  C83  1  0.11714544  0.24578284  0.86071406  1  0.499629  -0.004948  0.053925  0.098764  -0.00567  3.944127  -0.003
C  C84  1  0.07462431  0.62378771  0.26821095  1  0.019055  -0.00073  -0.073604  -0.077508  -0.000923  3.83667  0.0
C  C85  1  0.19330637  0.64445716  0.26828524  1  0.01857  -0.00073  -0.07569  -0.081296  -0.000922  3.841094  0.0
C  C86  1  0.87376857  0.82462157  0.76821277  1  0.018892  -0.00073  -0.073645  -0.077563  -0.000923  3.836745  0.0
C  C87  1  0.89443863  0.94330925  0.76828629  1  0.019152  -0.00073  -0.07559  -0.081036  -0.000922  3.840676  0.0
C  C88  1  0.02735442  0.55511353  0.17490430  1  0.004295  -0.001104  -0.07135  -0.076018  -0.001391  3.824783  -0.001
C  C89  1  0.14737657  0.61974720  0.17496317  1  -0.007539  -0.001115  -0.071203  -0.074918  -0.001391  3.823292  -0.001
C  C90  1  0.80510468  0.77735438  0.67490869  1  0.004534  -0.001104  -0.071348  -0.075887  -0.00139  3.824976  -0.001
C  C91  1  0.86973688  0.89737419  0.67496747  1  -0.008041  -0.001115  -0.071204  -0.075036  -0.001391  3.823533  -0.001
C  C92  1  0.92920470  0.56011023  0.12217133  1  0.007356  -0.008773  0.002234  0.124258  -0.009554  3.987523  -0.006
C  C93  1  0.19298682  0.56213435  0.12233245  1  -0.002823  -0.008732  0.004184  0.127745  -0.009497  3.985548  -0.006
C  C94  1  0.81010178  0.67920571  0.62217430  1  0.006723  -0.008773  0.002155  0.124108  -0.009553  3.987608  -0.006
C  C95  1  0.81212897  0.94298537  0.62233355  1  -0.002266  -0.008731  0.004159  0.127832  -0.009496  3.9855  -0.006
C  C96  1  0.93598062  0.66144257  0.11380237  1  -0.057007  0.005714  -0.090653  -0.19028  0.003138  3.980026  0.004
C  C97  1  0.17779681  0.45238831  0.11386232  1  -0.048261  0.005723  -0.092567  -0.194383  0.00313  3.979937  0.004
C  C98  1  0.91143661  0.68598293  0.61380762  1  -0.057833  0.005715  -0.090562  -0.190198  0.003137  3.980128  0.004
C  C99  1  0.70238291  0.92779967  0.61386146  1  -0.047721  0.005722  -0.09258  -0.194404  0.003129  3.979967  0.004
C  C100  1  0.84127676  0.66307256  0.06661293  1  0.460318  -0.00571  0.045736  0.091242  -0.006539  3.965538  -0.004
C  C101  1  0.22536180  0.40362690  0.06666257  1  0.495584  -0.005687  0.046048  0.093709  -0.006516  3.961382  -0.004
C  C102  1  0.91307474  0.59128210  0.56661666  1  0.460627  -0.00571  0.045766  0.091207  -0.006538  3.965466  -0.004
C  C103  1  0.65362500  0.97536299  0.56666129  1  0.495551  -0.005686  0.046054  0.093688  -0.006516  3.961531  -0.004
C  C104  1  0.73379770  0.47254156  0.03533656  1  0.502289  -0.006103  0.060413  0.121107  -0.006866  3.907456  -0.004
C  C105  1  0.30170697  0.56301015  0.03559556  1  0.50216  -0.006072  0.059334  0.119785  -0.006825  3.9091  -0.004
C  C106  1  0.72254037  0.48379914  0.53533204  1  0.502318  -0.006101  0.060376  0.120968  -0.006864  3.907449  -0.004
C  C107  1  0.81301115  0.05170149  0.53559403  1  0.502118  -0.00607  0.059371  0.11984  -0.006823  3.909149  -0.004
C  C108  1  0.82521802  0.46435592  0.08160184  1  -0.022159  0.006011  -0.080608  -0.177682  0.003291  3.940369  0.005
C  C109  1  0.25660985  0.61746076  0.08194262  1  -0.045396  0.006029  -0.081698  -0.178691  0.003284  3.941507  0.005
C  C110  1  0.71434954  0.57521578  0.58159908  1  -0.021919  0.006011  -0.080607  -0.177609  0.003292  3.940314  0.005
C  C111  1  0.86745679  0.00660469  0.58194141  1  -0.046795  0.006029  -0.08178  -0.178886  0.003284  3.94158  0.005
C  C112  1  0.49726455  0.21747299  0.28128454  1  -0.031642  0.012239  -0.020903  -0.02802  0.007253  3.949183  0.009
C  C113  1  0.78422726  0.06399695  0.28139559  1  0.031255  0.012145  -0.020044  -0.028746  0.007243  3.95195  0.009
C  C114  1  0.46747526  0.24725163  0.78129608  1  -0.031723  0.012236  -0.020876  -0.028149  0.007252  3.949281  0.009
C  C115  1  0.31400658  0.53419838  0.78138482  1  0.030283  0.012147  -0.01989  -0.028697  0.007244  3.951878  0.009
C  C116  1  0.38805849  0.13069857  0.25659567  1  -0.094686  0.000426  -0.087725  -0.090385  -6.4e-05  3.973987  0.0
C  C117  1  0.86875354  0.12608307  0.25671957  1  -0.070207  0.00043  -0.087683  -0.088989  -5.7e-05  3.97508  0.0
C  C118  1  0.38069852  0.13804287  0.75659899  1  -0.094234  0.000426  -0.087692  -0.090268  -6.4e-05  3.974038  0.0
C  C119  1  0.37609600  0.61873241  0.75671363  1  -0.070216  0.000429  -0.087893  -0.089271  -5.7e-05  3.975307  0.0
C  C120  1  0.30605784  0.10808439  0.18428189  1  -7.8e-05  0.000617  -0.105925  -0.106044  0.000278  4.076468  0.0
C  C121  1  0.87844226  0.07634331  0.18441609  1  -0.109763  0.00062  -0.104082  -0.104349  0.000276  4.078067  0.0
C  C122  1  0.35808250  0.05604315  0.68428060  1  -0.000808  0.000617  -0.105978  -0.106121  0.000278  4.076479  0.0
C  C123  1  0.32634649  0.62842547  0.68441567  1  -0.108891  0.00062  -0.104106  -0.10426  0.000276  4.077855  0.0
C  C124  1  0.33238056  0.17291528  0.13683260  1  0.015697  -0.000121  -0.091732  -0.098338  -0.000261  3.997849  0.0
C  C125  1  0.80469033  0.96406656  0.13695085  1  -0.018946  -9.7e-05  -0.092942  -0.100066  -0.000246  4.002702  0.0
C  C126  1  0.42291265  0.08237374  0.63683150  1  0.016279  -0.000121  -0.091716  -0.098298  -0.000261  3.997707  0.0
C  C127  1  0.21406803  0.55467561  0.63695365  1  -0.019225  -9.6e-05  -0.092875  -0.100032  -0.000245  4.002697  0.0
C  C128  1  0.44096307  0.26101076  0.16110226  1  -0.048828  0.007556  -0.02267  -0.038696  0.00445  3.971937  0.006
C  C129  1  0.72040892  0.90022882  0.16123381  1  -0.018261  0.007591  -0.025134  -0.042111  0.004452  3.976713  0.006
C  C130  1  0.51101353  0.19095595  0.66110934  1  -0.049374  0.007558  -0.02274  -0.038726  0.004451  3.971626  0.006
C  C131  1  0.15023117  0.47038282  0.66122995  1  -0.018195  0.007593  -0.025207  -0.042428  0.004452  3.977226  0.006
C  C132  1  0.52329813  0.28220352  0.23312095  1  0.002498  0.001641  -0.079016  -0.103597  0.000661  3.92066  0.001
C  C133  1  0.71007305  0.95110117  0.23324497  1  -0.079929  0.001729  -0.075136  -0.100122  0.000672  3.921026  0.001
C  C134  1  0.53220137  0.27328772  0.73313008  1  0.002239  0.001641  -0.078948  -0.103315  0.000661  3.920337  0.001
C  C135  1  0.20110805  0.46004696  0.73323924  1  -0.079697  0.00173  -0.075035  -0.099773  0.000673  3.921087  0.001
C  C136  1  0.58476284  0.23731146  0.35841498  1  1.581543  0.003848  0.211114  0.578537  0.003181  4.184834  0.002
C  C137  1  0.77375351  0.12125580  0.35848037  1  1.592111  0.003732  0.209169  0.577321  0.003204  4.186899  0.002
C  C138  1  0.48731223  0.33474465  0.85842395  1  1.582067  0.003848  0.211128  0.578637  0.00318  4.184927  0.002
C  C139  1  0.37125469  0.52373223  0.85847408  1  1.592801  0.003727  0.209179  0.57734  0.003204  4.186996  0.002
C  C140  1  0.46469949  0.33198217  0.10955052  1  1.566582  -0.000181  0.207128  0.575752  -0.000542  4.183276  -0.001
C  C141  1  0.64508136  0.77769443  0.10968471  1  1.558678  -0.000169  0.204515  0.573562  -0.000534  4.185654  -0.001
C  C142  1  0.58198090  0.21469747  0.60955085  1  1.567062  -0.000181  0.207105  0.575553  -0.000542  4.183393  -0.001
C  C143  1  0.02769212  0.39507026  0.60968184  1  1.559445  -0.000173  0.20462  0.573802  -0.000535  4.185148  -0.001
N  N144  1  0.91002661  0.43982000  0.39984339  1  -1.195229  0.07431  -0.319253  -0.204852  0.04312  3.566722  0.066
N  N145  1  0.48964197  0.96001463  0.39987811  1  -1.201463  0.074189  -0.320182  -0.206066  0.043041  3.568063  0.066
N  N146  1  0.68981230  0.66002428  0.89984552  1  -1.195277  0.074309  -0.319243  -0.20471  0.04312  3.566718  0.066
N  N147  1  0.21000195  0.23964091  0.89988311  1  -1.201188  0.07418  -0.320249  -0.206295  0.043035  3.568185  0.066
N  N148  1  0.74154718  0.57030465  0.02785907  1  -1.218845  0.073063  -0.326482  -0.228946  0.042413  3.590994  0.066
N  N149  1  0.28635896  0.45768081  0.02794692  1  -1.205157  0.072947  -0.323931  -0.228114  0.04226  3.588264  0.066
N  N150  1  0.82030570  0.49154935  0.52785625  1  -1.219152  0.073068  -0.32647  -0.2288  0.042415  3.590801  0.066
N  N151  1  0.70768491  0.03636046  0.52794773  1  -1.205153  0.072947  -0.323899  -0.22805  0.042261  3.588225  0.066
O  O152  1  0.68596023  0.30595565  0.37256923  1  -1.162878  0.073842  -0.310362  -0.561236  0.041065  2.410565  0.068
O  O153  1  0.68666402  0.06676904  0.37258530  1  -1.161784  0.073726  -0.308644  -0.560053  0.040984  2.409923  0.068
O  O154  1  0.55595133  0.43594461  0.87257496  1  -1.163283  0.073845  -0.310279  -0.561189  0.041065  2.410498  0.068
O  O155  1  0.31676925  0.43664188  0.87257856  1  -1.161679  0.073734  -0.308706  -0.560132  0.040986  2.409893  0.068
O  O156  1  0.55094416  0.18434997  0.40322965  1  -1.161729  0.055475  -0.319919  -0.556431  0.030524  2.352142  0.049
O  O157  1  0.85238742  0.21902600  0.40331771  1  -1.169226  0.05557  -0.320088  -0.555397  0.03045  2.354363  0.049
O  O158  1  0.43434618  0.30092569  0.90323760  1  -1.16176  0.055481  -0.320056  -0.556574  0.030527  2.35228  0.049
O  O159  1  0.46902477  0.60236920  0.90331383  1  -1.169724  0.055579  -0.320061  -0.555378  0.030453  2.354328  0.049
O  O160  1  0.56174806  0.41280242  0.13050520  1  -1.183311  0.001832  -0.332513  -0.548709  0.000195  2.126993  0.001
O  O161  1  0.56912985  0.71780402  0.13073236  1  -1.173322  0.001862  -0.332152  -0.547745  0.000214  2.127519  0.001
O  O162  1  0.66279879  0.31174661  0.63051217  1  -1.183389  0.001833  -0.332469  -0.548611  0.000195  2.127029  0.001
O  O163  1  0.96780136  0.31911288  0.63072336  1  -1.173321  0.001861  -0.332231  -0.547854  0.000214  2.127292  0.001
O  O164  1  0.37996786  0.30432812  0.04674539  1  -1.163878  0.074668  -0.318369  -0.570313  0.041682  2.426156  0.069
O  O165  1  0.66683429  0.74254329  0.04679903  1  -1.158255  0.074652  -0.316168  -0.567504  0.041687  2.42392  0.069
O  O166  1  0.55432983  0.12996881  0.54674178  1  -1.163906  0.074665  -0.318344  -0.570176  0.04168  2.426247  0.069
O  O167  1  0.99255361  0.41684205  0.54680329  1  -1.158313  0.074647  -0.316205  -0.567523  0.041686  2.423706  0.069
O  O168  1  0.76875449  0.26872233  0.53741564  1  -1.242346  0.116542  -0.556241  -0.772255  0.066864  2.431082  0.105
O  O169  1  0.51871193  0.51874746  0.03741301  1  -1.241581  0.116555  -0.556231  -0.772278  0.066872  2.430995  0.105
