# generated using pymatgen
data_AlH6C13Cl2O5
_symmetry_space_group_name_H-M   'P 1'
_cell_length_a   6.56599334
_cell_length_b   11.20799156
_cell_length_c   15.18231153
_cell_angle_alpha   82.11892980
_cell_angle_beta   78.89796933
_cell_angle_gamma   71.26885711
_symmetry_Int_Tables_number   1
_chemical_formula_structural   AlH6C13Cl2O5
_chemical_formula_sum   'Al2 H12 C26 Cl4 O10'
_cell_volume   1034.90004255
_cell_formula_units_Z   2
loop_
 _symmetry_equiv_pos_site_id
 _symmetry_equiv_pos_as_xyz
  1  'x, y, z'
loop_
 _atom_site_type_symbol
 _atom_site_label
 _atom_site_symmetry_multiplicity
 _atom_site_fract_x
 _atom_site_fract_y
 _atom_site_fract_z
 _atom_site_occupancy
 _atom_site_pbe_bader_charge
 _atom_site_pbe_bader_spin_density
 _atom_site_pbe_cm5_charge
 _atom_site_pbe_ddec_charge
 _atom_site_pbe_ddec_spin_density
 _atom_site_pbe_ddec_sum_bond_order
 _atom_site_pbe_magmom
Al  Al0  1  0.50440133  0.49571901  0.50044213  1  2.501022  0  0.387712  1.644723  0  2.577295  0
Al  Al1  1  0.00622959  0.49231095  0.50132334  1  2.501521  0  0.390427  1.639435  0  2.569906  0
H  H2  1  0.31537229  0.34255884  0.56026846  1  0.624607  0  0.333382  0.412463  0  0.897227  0
H  H3  1  0.70589276  0.64757363  0.44690484  1  0.605165  0  0.342419  0.418687  0  0.883151  0
H  H4  1  0.85823499  0.59831134  0.77028589  1  0.114799  0  0.106182  0.110969  0  1.00188  0
H  H5  1  0.74996407  0.61462251  0.93393360  1  0.048808  0  0.101839  0.10045  0  1.014629  0
H  H6  1  0.08883393  0.44715755  0.22596471  1  0.113156  0  0.108706  0.115063  0  0.992889  0
H  H7  1  0.17061778  0.45249025  0.06059851  1  0.045094  0  0.100301  0.097482  0  1.024377  0
H  H8  1  0.63953859  0.57291793  0.23050572  1  0.098407  0  0.105317  0.109353  0  1.010713  0
H  H9  1  0.72641485  0.57782039  0.06532560  1  0.060645  0  0.099937  0.096832  0  1.025163  0
H  H10  1  0.38156367  0.41022788  0.77104588  1  0.096431  0  0.109612  0.11704  0  0.989766  0
H  H11  1  0.28639609  0.41319084  0.93578498  1  0.038299  0  0.102093  0.100934  0  1.016274  0
H  H12  1  0.23017776  0.22968382  0.38191287  1  0.105104  0  0.114784  0.139711  0  1.014917  0
H  H13  1  0.42672834  0.76267602  0.37924079  1  0.143367  0  0.114289  0.130602  0  1.027358  0
C  C14  1  0.86836235  0.26941768  0.49308752  1  1.606876  0  0.272076  0.657967  0  4.094306  0
C  C15  1  0.69214466  0.49290763  0.66174928  1  1.549297  0  0.263578  0.634876  0  4.105057  0
C  C16  1  0.13729966  0.71972484  0.50581096  1  1.554596  0  0.270368  0.658062  0  4.094859  0
C  C17  1  0.31124910  0.50336535  0.33871802  1  1.581755  0  0.262015  0.630065  0  4.107932  0
C  C18  1  0.62821980  0.50211312  0.76053330  1  -0.021371  0  -0.016624  -0.045283  0  3.978048  0
C  C19  1  0.35970600  0.50871416  0.23888946  1  -0.03487  0  -0.021159  -0.05641  0  3.997368  0
C  C20  1  0.73153742  0.55913473  0.80744255  1  -0.011192  0  -0.082143  -0.085022  0  3.981924  0
C  C21  1  0.67113695  0.56640934  0.89992374  1  -0.030318  0  -0.089087  -0.130355  0  3.977544  0
C  C22  1  0.22825337  0.47573182  0.18980509  1  -0.109922  0  -0.081541  -0.083462  0  3.989137  0
C  C23  1  0.27628025  0.47873444  0.09651678  1  0.047551  0  -0.09096  -0.134632  0  3.980304  0
C  C24  1  0.53817968  0.54638522  0.19240038  1  -0.083161  0  -0.081073  -0.079932  0  3.974643  0
C  C25  1  0.58530391  0.54916423  0.09905935  1  -0.010836  0  -0.090291  -0.131963  0  3.97145  0
C  C26  1  0.46354839  0.45292898  0.80799345  1  -0.038095  0  -0.079462  -0.080404  0  3.973746  0
C  C27  1  0.40913208  0.45671141  0.90082550  1  -0.021215  0  -0.089043  -0.132147  0  3.97782  0
C  C28  1  0.51163278  0.51328258  0.94934178  1  -0.020966  0  -0.002843  0.07171  0  3.985382  0
C  C29  1  0.45685313  0.51450813  0.04855119  1  -0.044111  0  -0.000233  0.077848  0  3.977087  0
C  C30  1  0.93848087  0.12791528  0.49503506  1  0.054374  0  -0.007125  -0.123007  0  3.914636  0
C  C31  1  0.13472659  0.06278667  0.43994784  1  -0.04029  0  0.00097  0.076002  0  3.974272  0
C  C32  1  0.81126254  0.06087210  0.55033222  1  0.080061  0  0.016622  0.066709  0  4.028744  0
C  C33  1  0.27133998  0.12737072  0.38347845  1  0.105531  0  -0.089504  -0.18065  0  3.919359  0
C  C34  1  0.46109514  0.06222030  0.33131260  1  0.042979  0  0.009265  0.092583  0  4.059452  0
C  C35  1  0.06338589  0.86139853  0.50000727  1  0.135813  0  -0.00909  -0.126015  0  3.921107  0
C  C36  1  0.87435858  0.92656622  0.55330732  1  0.096892  0  0.015351  0.066021  0  4.048357  0
C  C37  1  0.19519757  0.92796252  0.44126650  1  0.045651  0  0.002173  0.081394  0  3.973473  0
C  C38  1  0.38467467  0.86414285  0.38338259  1  0.046864  0  -0.092775  -0.190244  0  3.943194  0
C  C39  1  0.51749881  0.92856752  0.33061265  1  0.028038  0  0.009207  0.091672  0  4.065436  0
Cl  Cl40  1  0.71935243  0.84661574  0.62667485  1  -0.15999  0  0.02305  -0.027892  0  1.593109  0
Cl  Cl41  1  0.58180558  0.13660322  0.62208061  1  -0.179108  0  0.029857  -0.03355  0  1.600803  0
Cl  Cl42  1  0.62737021  0.14380189  0.26723300  1  -0.177133  0  0.001898  -0.054567  0  1.507695  0
Cl  Cl43  1  0.75147418  0.84539323  0.26484208  1  -0.187257  0  0.001397  -0.056995  0  1.496726  0
O  O44  1  0.68233101  0.32786562  0.47187873  1  -1.251211  0  -0.228596  -0.577773  0  2.352578  0
O  O45  1  0.86983731  0.51422665  0.62443304  1  -1.257724  0  -0.238467  -0.590971  0  2.346299  0
O  O46  1  0.01066466  0.66549728  0.48694443  1  -1.25297  0  -0.227165  -0.587875  0  2.384297  0
O  O47  1  0.43956928  0.53291637  0.37935832  1  -1.267569  0  -0.241296  -0.603095  0  2.370043  0
O  O48  1  0.32540756  0.66493889  0.52670400  1  -1.247061  0  -0.22839  -0.571581  0  2.315653  0
O  O49  1  0.14378169  0.47128811  0.37735495  1  -1.263518  0  -0.238452  -0.588543  0  2.341369  0
O  O50  1  0.99989209  0.31976723  0.51304939  1  -1.250496  0  -0.22628  -0.578066  0  2.335286  0
O  O51  1  0.56536541  0.46214805  0.62119271  1  -1.272523  0  -0.242401  -0.612975  0  2.385361  0
O  O52  1  0.27319216  0.43168585  0.53962447  1  -1.431355  0  -0.450058  -0.986942  0  2.228157  0
O  O53  1  0.73940778  0.55700602  0.46135958  1  -1.408441  0  -0.450768  -0.988304  0  2.214237  0
