# generated using pymatgen
data_HgH6C8N5ClO
_symmetry_space_group_name_H-M   'P 1'
_cell_length_a   3.90363926
_cell_length_b   12.66861763
_cell_length_c   19.56496475
_cell_angle_alpha   90.00009175
_cell_angle_beta   94.54862471
_cell_angle_gamma   89.99992595
_symmetry_Int_Tables_number   1
_chemical_formula_structural   HgH6C8N5ClO
_chemical_formula_sum   'Hg4 H24 C32 N20 Cl4 O4'
_cell_volume   964.51271669
_cell_formula_units_Z   4
loop_
 _symmetry_equiv_pos_site_id
 _symmetry_equiv_pos_as_xyz
  1  'x, y, z'
loop_
 _atom_site_type_symbol
 _atom_site_label
 _atom_site_symmetry_multiplicity
 _atom_site_fract_x
 _atom_site_fract_y
 _atom_site_fract_z
 _atom_site_occupancy
 _atom_site_hle17_bader_spin_density
 _atom_site_hle17_ddec_charge
 _atom_site_hle17_ddec_spin_density
 _atom_site_hle17_ddec_sum_bond_order
 _atom_site_hle17_magmom
 _atom_site_hse06_10hf_bader_charge
 _atom_site_hse06_10hf_bader_spin_density
 _atom_site_hse06_10hf_ddec_charge
 _atom_site_hse06_10hf_ddec_spin_density
 _atom_site_hse06_10hf_ddec_sum_bond_order
 _atom_site_hse06_10hf_magmom
 _atom_site_hse06_bader_spin_density
 _atom_site_hse06_ddec_charge
 _atom_site_hse06_ddec_spin_density
 _atom_site_hse06_ddec_sum_bond_order
 _atom_site_hse06_magmom
 _atom_site_pbe_bader_spin_density
 _atom_site_pbe_cm5_charge
 _atom_site_pbe_ddec_charge
 _atom_site_pbe_ddec_spin_density
 _atom_site_pbe_ddec_sum_bond_order
 _atom_site_pbe_magmom
Hg  Hg0  1  0.24668879  0.99922908  0.11080741  1  0  0.625278  0  2.053911  0  0.688462  0  0.498338  0  2.510359  0  0  0.531503  0  2.48962  0  0  0.465184  0.475561  0  2.524685  0
Hg  Hg1  1  0.25331331  0.49922696  0.38919405  1  0  0.625235  0  2.0541  0  0.68809  0  0.498338  0  2.510488  0  0  0.531503  0  2.489747  0  0  0.465174  0.475555  0  2.524794  0
Hg  Hg2  1  0.75330888  0.00077293  0.88919643  1  0  0.625184  0  2.053979  0  0.688149  0  0.498285  0  2.51033  0  0  0.531451  0  2.489591  0  0  0.465146  0.475501  0  2.524654  0
Hg  Hg3  1  0.74668681  0.50077189  0.61080472  1  0  0.625197  0  2.054026  0  0.688277  0  0.4983  0  2.510382  0  0  0.531465  0  2.489642  0  0  0.465163  0.475516  0  2.524694  0
H  H4  1  0.98273875  0.25024220  0.33497436  1  0  0.109143  0  0.937978  0  0.182377  0  0.116044  0  1.003387  0  0  0.11941  0  0.999059  0  0  0.129606  0.113489  0  1.006643  0
H  H5  1  0.51727484  0.75023902  0.16502568  1  0  0.109127  0  0.938006  0  0.182381  0  0.115983  0  1.003457  0  0  0.119347  0  0.999133  0  0  0.129593  0.113423  0  1.006716  0
H  H6  1  0.01726658  0.74976218  0.66502756  1  0  0.109193  0  0.937856  0  0.182431  0  0.116022  0  1.003362  0  0  0.119387  0  0.999036  0  0  0.129593  0.113474  0  1.00661  0
H  H7  1  0.48273042  0.24975510  0.83497317  1  0  0.109205  0  0.937943  0  0.182477  0  0.116022  0  1.003438  0  0  0.11939  0  0.999107  0  0  0.129584  0.113453  0  1.006706  0
H  H8  1  0.42999361  0.13949610  0.24840691  1  0  0.100061  0  0.957594  0  0.16607  0  0.11328  0  1.021117  0  0  0.114548  0  1.020379  0  0  0.110814  0.112254  0  1.021737  0
H  H9  1  0.07000468  0.63948917  0.25159412  1  0  0.100086  0  0.957536  0  0.166067  0  0.113355  0  1.020998  0  0  0.114629  0  1.020256  0  0  0.110834  0.112346  0  1.021629  0
H  H10  1  0.56999380  0.86050985  0.75159780  1  0  0.100104  0  0.957568  0  0.166154  0  0.113284  0  1.02117  0  0  0.114552  0  1.020422  0  0  0.11079  0.112262  0  1.021796  0
H  H11  1  0.92999799  0.36050574  0.74840418  1  0  0.100104  0  0.957622  0  0.166154  0  0.113309  0  1.021186  0  0  0.114575  0  1.020442  0  0  0.110813  0.112281  0  1.021807  0
H  H12  1  0.81976373  0.08015567  0.23180417  1  0  0.095957  0  0.939696  0  0.124714  0  0.108625  0  1.008254  0  0  0.110119  0  1.006131  0  0  0.106317  0.107368  0  1.01001  0
H  H13  1  0.68023252  0.58015189  0.26819595  1  0  0.095972  0  0.939586  0  0.124611  0  0.108586  0  1.008232  0  0  0.110077  0  1.00611  0  0  0.106281  0.107346  0  1.009994  0
H  H14  1  0.18022624  0.91984871  0.76820008  1  0  0.095966  0  0.939636  0  0.124637  0  0.108582  0  1.008267  0  0  0.110075  0  1.006146  0  0  0.106278  0.107333  0  1.010031  0
H  H15  1  0.31976501  0.41984460  0.73180176  1  0  0.096011  0  0.939642  0  0.124716  0  0.108638  0  1.008257  0  0  0.110131  0  1.006135  0  0  0.106309  0.107382  0  1.010015  0
H  H16  1  0.47908508  0.19888984  0.03890811  1  0  0.091136  0  1.010267  0  0.156508  0  0.102984  0  1.076029  0  0  0.104652  0  1.074709  0  0  0.097921  0.101639  0  1.077229  0
H  H17  1  0.02089755  0.69888503  0.46109173  1  0  0.091002  0  1.010406  0  0.156492  0  0.102844  0  1.076192  0  0  0.104511  0  1.074874  0  0  0.097889  0.101499  0  1.077392  0
H  H18  1  0.52090485  0.80111375  0.96109460  1  0  0.091245  0  1.010173  0  0.156431  0  0.103045  0  1.075992  0  0  0.104711  0  1.074675  0  0  0.097942  0.101701  0  1.077191  0
H  H19  1  0.97909743  0.30111383  0.53890696  1  0  0.091108  0  1.010271  0  0.156453  0  0.102967  0  1.076028  0  0  0.104633  0  1.074709  0  0  0.097937  0.101621  0  1.077228  0
H  H20  1  0.82127736  0.43525925  0.96549184  1  0  0.343441  0  0.930374  0  0.566415  0  0.314955  0  1.006502  0  0  0.325343  0  0.99729  0  0  0.293622  0.307638  0  1.012967  0
H  H21  1  0.67872181  0.93525805  0.53450828  1  0  0.343447  0  0.930383  0  0.566441  0  0.314973  0  1.006499  0  0  0.325351  0  0.997302  0  0  0.29366  0.307663  0  1.012954  0
H  H22  1  0.17873050  0.56473960  0.03450858  1  0  0.343449  0  0.930452  0  0.566414  0  0.315029  0  1.006467  0  0  0.3254  0  0.997271  0  0  0.293663  0.307711  0  1.012932  0
H  H23  1  0.32127058  0.06474238  0.46548987  1  0  0.343466  0  0.930439  0  0.566425  0  0.314996  0  1.006531  0  0  0.325383  0  0.997321  0  0  0.293654  0.30768  0  1.012997  0
H  H24  1  0.63039865  0.31069560  0.97791442  1  0  0.329486  0  0.893239  0  0.47519  0  0.315494  0  0.951681  0  0  0.32199  0  0.946388  0  0  0.303386  0.310882  0  0.955485  0
H  H25  1  0.86959839  0.81069271  0.52208452  1  0  0.329393  0  0.893159  0  0.475169  0  0.315416  0  0.951598  0  0  0.321913  0  0.946304  0  0  0.303351  0.310807  0  0.955399  0
H  H26  1  0.36958867  0.68930720  0.02208672  1  0  0.329571  0  0.893096  0  0.475088  0  0.315576  0  0.951558  0  0  0.322072  0  0.946265  0  0  0.303432  0.310966  0  0.955357  0
H  H27  1  0.13040427  0.18930772  0.47791327  1  0  0.329539  0  0.893052  0  0.475072  0  0.315541  0  0.951535  0  0  0.322037  0  0.946239  0  0  0.303409  0.310933  0  0.955335  0
C  C28  1  0.84734789  0.38268097  0.06506637  1  0  0.627462  0  3.804124  0  1.659795  0  0.562502  0  4.100504  0  0  0.592879  0  4.105047  0  0  0.355049  0.542207  0  4.096659  0
C  C29  1  0.65264469  0.88267682  0.43493502  1  0  0.627493  0  3.804173  0  1.659372  0  0.56246  0  4.100652  0  0  0.592842  0  4.10519  0  0  0.355048  0.542164  0  4.096813  0
C  C30  1  0.15265226  0.61731710  0.93493394  1  0  0.627335  0  3.804094  0  1.65982  0  0.562471  0  4.100415  0  0  0.592851  0  4.104958  0  0  0.355041  0.542175  0  4.096569  0
C  C31  1  0.34735804  0.11731809  0.56506532  1  0  0.62745  0  3.803763  0  1.659772  0  0.562485  0  4.100309  0  0  0.59285  0  4.10486  0  0  0.355064  0.542197  0  4.096464  0
C  C32  1  0.87427043  0.31523728  0.17603946  1  0  0.237823  0  3.828026  0  0.84615  0  0.191448  0  4.092539  0  0  0.20501  0  4.111902  0  0  0.212029  0.18264  0  4.079337  0
C  C33  1  0.62573266  0.81523366  0.32396151  1  0  0.237964  0  3.828034  0  0.845636  0  0.191554  0  4.092538  0  0  0.20512  0  4.111901  0  0  0.212069  0.182756  0  4.079342  0
C  C34  1  0.12571695  0.68476789  0.82396372  1  0  0.23804  0  3.827784  0  0.845439  0  0.191727  0  4.092238  0  0  0.205292  0  4.111601  0  0  0.212073  0.182913  0  4.079041  0
C  C35  1  0.37428283  0.18476678  0.67603596  1  0  0.237816  0  3.827949  0  0.845416  0  0.191547  0  4.092345  0  0  0.205111  0  4.11171  0  0  0.211989  0.182745  0  4.079146  0
C  C36  1  0.05807720  0.40009125  0.20336675  1  0  -0.077151  0  3.805978  0  0.53839  0  -0.078293  0  4.075909  0  0  -0.086165  0  4.096322  0  0  0.060549  -0.073534  0  4.062389  0
C  C37  1  0.44193034  0.90008901  0.29663214  1  0  -0.077141  0  3.806044  0  0.538449  0  -0.078229  0  4.075912  0  0  -0.086105  0  4.096338  0  0  0.060578  -0.073497  0  4.062431  0
C  C38  1  0.94192043  0.59991155  0.79663556  1  0  -0.077269  0  3.806146  0  0.538485  0  -0.078338  0  4.07597  0  0  -0.08621  0  4.096388  0  0  0.060522  -0.073567  0  4.062441  0
C  C39  1  0.55808509  0.09991221  0.70336226  1  0  -0.077144  0  3.806236  0  0.53839  0  -0.078172  0  4.076005  0  0  -0.086043  0  4.096421  0  0  0.060627  -0.073427  0  4.062501  0
C  C40  1  0.14986741  0.48203539  0.15611928  1  0  0.543974  0  3.91225  0  1.392535  0  0.497509  0  4.213125  0  0  0.528081  0  4.211565  0  0  0.220268  0.477059  0  4.213614  0
C  C41  1  0.35013217  0.98202778  0.34388162  1  0  0.543891  0  3.9122  0  1.392468  0  0.49742  0  4.213048  0  0  0.527996  0  4.211494  0  0  0.220259  0.476977  0  4.213544  0
C  C42  1  0.85014307  0.51796583  0.84388323  1  0  0.543926  0  3.912321  0  1.392489  0  0.497429  0  4.213188  0  0  0.527999  0  4.211633  0  0  0.220222  0.476975  0  4.213676  0
C  C43  1  0.64987044  0.01796791  0.65611412  1  0  0.543824  0  3.912365  0  1.392473  0  0.497293  0  4.21331  0  0  0.527848  0  4.21176  0  0  0.220079  0.476856  0  4.213803  0
C  C44  1  0.97994970  0.28984314  0.28583230  1  0  0.189152  0  3.620046  0  0.99586  0  0.123201  0  3.903664  0  0  0.136982  0  3.914489  0  0  0.143301  0.114245  0  3.896115  0
C  C45  1  0.52006888  0.78983929  0.21416785  1  0  0.18922  0  3.619985  0  0.995814  0  0.123312  0  3.903591  0  0  0.137096  0  3.914415  0  0  0.143272  0.114365  0  3.896037  0
C  C46  1  0.02005823  0.71015887  0.71417119  1  0  0.189088  0  3.620167  0  0.995939  0  0.123198  0  3.903766  0  0  0.136979  0  3.914593  0  0  0.143272  0.114234  0  3.896217  0
C  C47  1  0.47993634  0.21015640  0.78582947  1  0  0.18903  0  3.620169  0  0.9959  0  0.123146  0  3.903782  0  0  0.136925  0  3.91461  0  0  0.143246  0.114207  0  3.896233  0
C  C48  1  0.64295344  0.14456918  0.21487647  1  0  0.007804  0  3.657683  0  0.248667  0  -0.059693  0  3.903331  0  0  -0.052914  0  3.91501  0  0  -0.066281  -0.064001  0  3.89539  0
C  C49  1  0.85704256  0.64456301  0.28512370  1  0  0.007895  0  3.657484  0  0.248828  0  -0.05963  0  3.903144  0  0  -0.052847  0  3.914815  0  0  -0.066251  -0.064026  0  3.895301  0
C  C50  1  0.35702881  0.85543598  0.78512714  1  0  0.00781  0  3.657616  0  0.248728  0  -0.059759  0  3.903502  0  0  -0.052974  0  3.915175  0  0  -0.066295  -0.064069  0  3.895528  0
C  C51  1  0.14296264  0.35543348  0.71487310  1  0  0.00774  0  3.657675  0  0.24868  0  -0.059811  0  3.903496  0  0  -0.053025  0  3.915163  0  0  -0.066305  -0.064119  0  3.895541  0
C  C52  1  0.51771846  0.13525239  0.14040962  1  0  -0.270464  0  3.697069  0  -0.086047  0  -0.222558  0  4.005592  0  0  -0.239572  0  4.034829  0  0  -0.138649  -0.211425  0  3.985914  0
C  C53  1  0.98227246  0.63524714  0.35959149  1  0  -0.270532  0  3.697138  0  -0.086141  0  -0.222621  0  4.005629  0  0  -0.239637  0  4.034859  0  0  -0.138621  -0.211457  0  3.98597  0
C  C54  1  0.48226639  0.86474962  0.85959557  1  0  -0.270412  0  3.697081  0  -0.08604  0  -0.222462  0  4.005506  0  0  -0.239479  0  4.034743  0  0  -0.138553  -0.211322  0  3.985842  0
C  C55  1  0.01772248  0.36474777  0.64040567  1  0  -0.270366  0  3.697175  0  -0.086088  0  -0.222436  0  4.005654  0  0  -0.239451  0  4.034888  0  0  -0.138554  -0.2113  0  3.985969  0
C  C56  1  0.57317716  0.20813084  0.09229519  1  0  0.018448  0  3.790854  0  0.19342  0  -0.04141  0  4.063466  0  0  -0.032625  0  4.085074  0  0  -0.017944  -0.047409  0  4.049072  0
C  C57  1  0.92681346  0.70812572  0.40770446  1  0  0.018611  0  3.790926  0  0.19346  0  -0.041262  0  4.063558  0  0  -0.032474  0  4.085163  0  0  -0.017962  -0.047264  0  4.049163  0
C  C58  1  0.42681534  0.79187196  0.90770756  1  0  0.01839  0  3.790934  0  0.19334  0  -0.041398  0  4.063554  0  0  -0.032608  0  4.085161  0  0  -0.017961  -0.047403  0  4.049164  0
C  C59  1  0.07317891  0.29187392  0.59229266  1  0  0.018444  0  3.79094  0  0.193313  0  -0.04135  0  4.063542  0  0  -0.032562  0  4.085149  0  0  -0.018038  -0.047356  0  4.049148  0
N  N60  1  0.03269533  0.46510294  0.08834907  1  0  -0.583417  0  3.020149  0  -1.278204  0  -0.530108  0  3.287118  0  0  -0.556284  0  3.293023  0  0  -0.342745  -0.512442  0  3.2827  0
N  N61  1  0.46729915  0.96509861  0.41165071  1  0  -0.583431  0  3.020433  0  -1.278281  0  -0.530059  0  3.287383  0  0  -0.556244  0  3.293297  0  0  -0.342749  -0.512383  0  3.282962  0
N  N62  1  0.96732026  0.53489434  0.91165249  1  0  -0.583337  0  3.020359  0  -1.278334  0  -0.530001  0  3.287283  0  0  -0.556183  0  3.293193  0  0  -0.342745  -0.512334  0  3.282866  0
N  N63  1  0.53269579  0.03489788  0.58834645  1  0  -0.583178  0  3.020272  0  -1.278273  0  -0.529874  0  3.287373  0  0  -0.556014  0  3.293258  0  0  -0.342686  -0.512232  0  3.282969  0
N  N64  1  0.74091515  0.37666728  0.99869818  1  0  -0.660423  0  3.085339  0  -1.351743  0  -0.624033  0  3.332043  0  0  -0.645046  0  3.325789  0  0  -0.560183  -0.609502  0  3.336023  0
N  N65  1  0.75906625  0.87666597  0.50130110  1  0  -0.660332  0  3.085402  0  -1.351766  0  -0.623935  0  3.332159  0  0  -0.644946  0  3.32591  0  0  -0.560151  -0.609405  0  3.336132  0
N  N66  1  0.25909022  0.62333157  0.00130527  1  0  -0.660538  0  3.085184  0  -1.35168  0  -0.624215  0  3.331823  0  0  -0.645216  0  3.325592  0  0  -0.560304  -0.609682  0  3.335802  0
N  N67  1  0.24092351  0.12333289  0.49869394  1  0  -0.660473  0  3.085086  0  -1.351613  0  -0.624078  0  3.331817  0  0  -0.645093  0  3.325567  0  0  -0.560211  -0.609546  0  3.335798  0
N  N68  1  0.75884415  0.30148276  0.10887742  1  0  -0.221209  0  3.544714  0  -1.312095  0  -0.132362  0  3.771682  0  0  -0.153957  0  3.7932  0  0  -0.233431  -0.117868  0  3.756809  0
N  N69  1  0.74114867  0.80147610  0.39112185  1  0  -0.221294  0  3.544634  0  -1.311708  0  -0.132421  0  3.77163  0  0  -0.154017  0  3.793152  0  0  -0.23344  -0.117927  0  3.75676  0
N  N70  1  0.24115097  0.69852083  0.89112741  1  0  -0.221282  0  3.544548  0  -1.31214  0  -0.132595  0  3.771631  0  0  -0.154196  0  3.793158  0  0  -0.233488  -0.118101  0  3.756765  0
N  N71  1  0.25884881  0.19852197  0.60887433  1  0  -0.221354  0  3.544369  0  -1.31209  0  -0.132684  0  3.771556  0  0  -0.154288  0  3.793088  0  0  -0.233448  -0.118188  0  3.756682  0
N  N72  1  0.12250818  0.38242404  0.27343132  1  0  -0.366157  0  3.091384  0  -1.214646  0  -0.319448  0  3.381387  0  0  -0.334424  0  3.398111  0  0  -0.334922  -0.308994  0  3.369817  0
N  N73  1  0.37751485  0.88242166  0.22656778  1  0  -0.366252  0  3.091317  0  -1.214476  0  -0.319563  0  3.381308  0  0  -0.334535  0  3.398028  0  0  -0.334974  -0.309101  0  3.369751  0
N  N74  1  0.87749973  0.61757797  0.72657115  1  0  -0.366119  0  3.091564  0  -1.214497  0  -0.319435  0  3.381525  0  0  -0.334408  0  3.398247  0  0  -0.334907  -0.308984  0  3.369959  0
N  N75  1  0.62249804  0.11757483  0.77342811  1  0  -0.366116  0  3.091545  0  -1.214447  0  -0.319432  0  3.38149  0  0  -0.334407  0  3.398215  0  0  -0.334901  -0.308976  0  3.369925  0
N  N76  1  0.82416374  0.24546336  0.22691237  1  0  -0.120664  0  3.464791  0  -1.266454  0  -0.025145  0  3.684944  0  0  -0.041762  0  3.707043  0  0  -0.234106  -0.014106  0  3.669747  0
N  N77  1  0.67583961  0.74545722  0.27308853  1  0  -0.120831  0  3.464858  0  -1.266018  0  -0.025294  0  3.684985  0  0  -0.041924  0  3.707099  0  0  -0.234074  -0.014225  0  3.669804  0
N  N78  1  0.17582621  0.75454181  0.77309085  1  0  -0.12076  0  3.465088  0  -1.265853  0  -0.025212  0  3.68515  0  0  -0.041835  0  3.707257  0  0  -0.234007  -0.014165  0  3.669969  0
N  N79  1  0.32416562  0.25453926  0.72690929  1  0  -0.120603  0  3.464795  0  -1.265863  0  -0.025077  0  3.684879  0  0  -0.041697  0  3.706983  0  0  -0.233992  -0.014036  0  3.669675  0
Cl  Cl80  1  0.92045124  0.85769489  0.06004184  1  0  -0.462539  0  1.0888  0  -0.538956  0  -0.399247  0  1.388673  0  0  -0.414311  0  1.368198  0  0  -0.260777  -0.388506  0  1.402805  0
Cl  Cl81  1  0.57955681  0.35769375  0.43995822  1  0  -0.46251  0  1.088815  0  -0.53862  0  -0.399247  0  1.388702  0  0  -0.414314  0  1.368236  0  0  -0.260787  -0.388507  0  1.402821  0
Cl  Cl82  1  0.07955661  0.14231107  0.93995807  1  0  -0.462512  0  1.08877  0  -0.538674  0  -0.399235  0  1.388623  0  0  -0.414304  0  1.368158  0  0  -0.260774  -0.388493  0  1.402749  0
Cl  Cl83  1  0.42044334  0.64230589  0.56004208  1  0  -0.462493  0  1.088792  0  -0.538778  0  -0.399219  0  1.388667  0  0  -0.414288  0  1.368203  0  0  -0.260784  -0.388478  0  1.402785  0
O  O84  1  0.32564005  0.56199359  0.17241467  1  0  -0.557125  0  1.917514  0  -1.186409  0  -0.512077  0  2.139108  0  0  -0.533444  0  2.132169  0  0  -0.309003  -0.497197  0  2.143387  0
O  O85  1  0.17435333  0.06199056  0.32758366  1  0  -0.557049  0  1.917143  0  -1.186273  0  -0.512014  0  2.138739  0  0  -0.533382  0  2.131797  0  0  -0.308993  -0.497128  0  2.14302  0
O  O86  1  0.67437549  0.43800527  0.82758484  1  0  -0.557094  0  1.91736  0  -1.186341  0  -0.51203  0  2.138943  0  0  -0.533394  0  2.132001  0  0  -0.308948  -0.497147  0  2.143224  0
O  O87  1  0.82563649  0.93800593  0.67241394  1  0  -0.557161  0  1.917353  0  -1.186346  0  -0.512051  0  2.138952  0  0  -0.533415  0  2.132019  0  0  -0.308956  -0.497173  0  2.143234  0
