# generated using pymatgen
data_Zn6H21C46S7O45F7
_symmetry_space_group_name_H-M   'P 1'
_cell_length_a   18.80369022
_cell_length_b   18.92053025
_cell_length_c   18.97423644
_cell_angle_alpha   109.03311077
_cell_angle_beta   109.69132036
_cell_angle_gamma   109.39550210
_symmetry_Int_Tables_number   1
_chemical_formula_structural   Zn6H21C46S7O45F7
_chemical_formula_sum   'Zn6 H21 C46 S7 O45 F7'
_cell_volume   5215.21726337
_cell_formula_units_Z   1
loop_
 _symmetry_equiv_pos_site_id
 _symmetry_equiv_pos_as_xyz
  1  'x, y, z'
loop_
 _atom_site_type_symbol
 _atom_site_label
 _atom_site_symmetry_multiplicity
 _atom_site_fract_x
 _atom_site_fract_y
 _atom_site_fract_z
 _atom_site_occupancy
 _atom_site_pbe_bader_charge
 _atom_site_pbe_bader_spin_density
 _atom_site_pbe_cm5_charge
 _atom_site_pbe_ddec_charge
 _atom_site_pbe_ddec_spin_density
 _atom_site_pbe_ddec_sum_bond_order
 _atom_site_pbe_magmom
Zn  Zn0  1  0.99214817  0.44590773  0.92542227  1  1.317941  0  0.730692  0.961603  0  2.160308  0
Zn  Zn1  1  0.97688079  0.55730111  0.04613295  1  1.313431  0  0.739147  0.968845  0  2.084702  0
Zn  Zn2  1  0.57725832  0.00157557  0.07759211  1  1.328627  0  0.7396  0.979466  0  2.117059  0
Zn  Zn3  1  0.45175668  0.99177361  0.94294341  1  1.302037  0  0.742006  0.963988  0  2.081713  0
Zn  Zn4  1  0.55371221  0.57535880  0.48770522  1  1.317776  0  0.743161  0.972804  0  2.088941  0
Zn  Zn5  1  0.42780209  0.44748053  0.48741973  1  1.314529  0  0.738565  0.962138  0  2.109363  0
H  H6  1  0.32840925  0.53365500  0.98713103  1  0.054275  0  0.111753  0.110548  0  0.975017  0
H  H7  1  0.44786972  0.31612622  0.23800921  1  0.153186  0  0.140374  0.169839  0  0.919771  0
H  H8  1  0.04815345  0.85438579  0.99569598  1  0.112092  0  0.1222  0.143856  0  0.964244  0
H  H9  1  0.29585179  0.95286513  0.00902729  1  0.099766  0  0.106218  0.137535  0  1.020117  0
H  H10  1  0.43182725  0.63136420  0.95989673  1  0.077415  0  0.118858  0.141674  0  0.969067  0
H  H11  1  0.20712739  0.55308077  0.99193528  1  0.088058  0  0.10304  0.116035  0  1.024415  0
H  H12  1  0.77365958  0.32409787  0.17360789  1  0.682944  0  0.316617  0.390912  0  0.930206  0
H  H13  1  0.63086663  0.23612047  0.58887099  1  0.628416  0  0.356154  0.408913  0  0.825741  0
H  H14  1  0.67959042  0.88037201  0.03147752  1  0.649143  0  0.317497  0.386052  0  0.921598  0
H  H15  1  0.65730898  0.27938040  0.39689007  1  0.660498  0  0.323979  0.395329  0  0.916828  0
H  H16  1  0.69895763  0.42943096  0.28216795  1  0.682256  0  0.322421  0.393579  0  0.923398  0
H  H17  1  0.21250632  0.45799057  0.30582643  1  0.149765  0  0.132323  0.158375  0  0.944625  0
H  H18  1  0.39024802  0.02366546  0.18457610  1  0.662364  0  0.35688  0.410175  0  0.831897  0
H  H19  1  0.37138702  0.75635125  0.33779799  1  0.644052  0  0.358769  0.408691  0  0.828128  0
H  H20  1  0.20762582  0.50337629  0.17054987  1  0.107267  0  0.12079  0.164401  0  0.970856  0
H  H21  1  0.64493297  0.20818117  0.94866344  1  0.126874  0  0.129119  0.180528  0  0.950723  0
H  H22  1  0.70781004  0.54243021  0.70853650  1  0.127149  0  0.130868  0.152502  0  0.948654  0
H  H23  1  0.04364256  0.71653602  0.97494324  1  0.124505  0  0.109859  0.123535  0  1.007307  0
H  H24  1  0.73135459  0.51026372  0.84485927  1  0.103496  0  0.128386  0.175229  0  0.95808  0
H  H25  1  0.44132559  0.63397503  0.69125657  1  0.143903  0  0.123623  0.144939  0  0.961331  0
H  H26  1  0.59858641  0.78562313  0.71922053  1  0.13149  0  0.12738  0.149975  0  0.950201  0
C  C27  1  0.10696627  0.53605844  0.12671606  1  1.546888  0  0.216205  0.677259  0  4.131422  0
C  C28  1  0.25375901  0.59784417  0.98429987  1  -0.040016  0  -0.097789  -0.149585  0  3.98724  0
C  C29  1  0.28943833  0.58524570  0.33847536  1  -0.166176  0  0.000825  -0.13576  0  3.918346  0
C  C30  1  0.09797382  0.60675897  0.96825930  1  1.535973  0  0.225847  0.61428  0  4.125094  0
C  C31  1  0.27855032  0.51252831  0.34152011  1  0.061925  0  -0.054277  -0.166864  0  3.810295  0
C  C32  1  0.21534176  0.58637822  0.27974416  1  0.458834  0  0.11903  0.313133  0  4.086931  0
C  C33  1  0.17944041  0.54085444  0.19388942  1  0.114908  0  -0.10508  -0.367489  0  3.884057  0
C  C34  1  0.75365735  0.20609443  0.02442095  1  0.511731  0  0.119836  0.346343  0  4.07742  0
C  C35  1  0.66761021  0.17676901  0.98263980  1  0.088523  0  -0.106181  -0.378522  0  3.875451  0
C  C36  1  0.81736806  0.28355770  0.03284189  1  0.01174  0  -0.02465  -0.291463  0  3.944775  0
C  C37  1  0.83770239  0.27858810  0.97047536  1  0.464252  0  0.122409  0.19024  0  3.939486  0
C  C38  1  0.16982132  0.75381636  0.98261990  1  0.027359  0  0.000716  0.051967  0  3.955225  0
C  C39  1  0.65041048  0.41161792  0.67178357  1  -0.098387  0  -0.005367  -0.153873  0  3.936566  0
C  C40  1  0.64912113  0.47951648  0.66428083  1  -0.008944  0  -0.04924  -0.146845  0  3.80223  0
C  C41  1  0.72929915  0.42579407  0.73968161  1  0.393939  0  0.120836  0.327494  0  4.048436  0
C  C42  1  0.84862310  0.49852690  0.89146695  1  1.536832  0  0.215943  0.672316  0  4.143687  0
C  C43  1  0.76575591  0.47932298  0.82443653  1  0.178631  0  -0.100734  -0.365907  0  3.855023  0
C  C44  1  0.55883390  0.88712861  0.93908860  1  1.561224  0  0.22306  0.65836  0  4.133767  0
C  C45  1  0.37977135  0.87748449  0.98648833  1  1.5548  0  0.224856  0.615123  0  4.14675  0
C  C46  1  0.53232520  0.11652531  0.14302849  1  1.651345  0  0.213718  0.611515  0  4.232661  0
C  C47  1  0.60234010  0.10801139  0.98268212  1  1.527059  0  0.220275  0.68429  0  4.120293  0
C  C48  1  0.53189854  0.65270078  0.61318244  1  1.546406  0  0.221908  0.645441  0  4.12095  0
C  C49  1  0.30843215  0.80669987  0.98161424  1  0.040725  0  -0.006323  -0.095208  0  3.883364  0
C  C50  1  0.34820945  0.49898560  0.39059170  1  1.565802  0  0.22051  0.644164  0  4.145161  0
C  C51  1  0.51047067  0.42270513  0.36851382  1  1.635187  0  0.228189  0.647692  0  4.157798  0
C  C52  1  0.57977141  0.47974034  0.59732774  1  1.597764  0  0.224389  0.646921  0  4.138781  0
C  C53  1  0.49551580  0.69976736  0.72539785  1  0.057393  0  -0.069583  -0.13124  0  3.961333  0
C  C54  1  0.89216577  0.35175255  0.96398789  1  1.636955  0  0.217703  0.552801  0  4.201579  0
C  C55  1  0.54637367  0.72053343  0.69176368  1  -0.016091  0  -0.053627  -0.132298  0  3.805266  0
C  C56  1  0.50073753  0.76025362  0.79973813  1  0.435954  0  0.135702  0.354686  0  3.994353  0
C  C57  1  0.56974077  0.82463353  0.87790770  1  -0.030004  0  -0.043655  -0.401313  0  3.865117  0
C  C58  1  0.57437321  0.33886468  0.30318765  1  -0.155807  0  -0.02594  -0.147839  0  4.055682  0
C  C59  1  0.50997031  0.35639889  0.29833246  1  0.042433  0  -0.037809  -0.122517  0  3.775204  0
C  C60  1  0.30985920  0.73073000  0.97473640  1  0.020474  0  -0.004496  -0.041488  0  3.978457  0
C  C61  1  0.56695889  0.27049091  0.23056237  1  -0.05353  0  -0.001157  -0.082537  0  3.949559  0
C  C62  1  0.53355903  0.18733656  0.21078655  1  -0.128086  0  0.001786  -0.199402  0  3.816544  0
C  C63  1  0.09934777  0.76745294  0.98275305  1  -0.00859  0  -0.079474  -0.086438  0  3.953554  0
C  C64  1  0.10147073  0.84382683  0.99489230  1  -0.015704  0  -0.089759  -0.192778  0  4.002286  0
C  C65  1  0.17530004  0.91035959  0.00724757  1  0.395086  0  0.096682  0.301851  0  4.109136  0
C  C66  1  0.24326261  0.90080165  0.00400104  1  0.016883  0  -0.117074  -0.298933  0  3.996166  0
C  C67  1  0.24156668  0.82097813  0.98919781  1  -0.013852  0  0.001214  0.086633  0  3.977679  0
C  C68  1  0.24353012  0.66746959  0.97787117  1  0.00182  0  0.004555  0.082058  0  3.964844  0
C  C69  1  0.17191080  0.67802555  0.97637179  1  -0.012549  0  -0.001065  -0.105199  0  3.855052  0
C  C70  1  0.37334792  0.71018432  0.96386097  1  0.414105  0  0.098761  0.243144  0  4.0394  0
C  C71  1  0.38076634  0.64191917  0.96759244  1  0.087079  0  -0.098295  -0.212923  0  4.029022  0
C  C72  1  0.32125541  0.58658948  0.98114282  1  0.002551  0  -0.085036  -0.049715  0  4.046442  0
S  S73  1  0.85737211  0.38206187  0.12895768  1  3.113738  0  0.538805  1.189544  0  6.023091  0
S  S74  1  0.55943548  0.30286686  0.59896114  1  3.091001  0  0.542616  1.161402  0  5.993187  0
S  S75  1  0.67852673  0.84223499  0.91376125  1  3.140212  0  0.53069  1.191547  0  6.062559  0
S  S76  1  0.67970276  0.39969912  0.39962401  1  3.101615  0  0.553954  1.158848  0  5.975345  0
S  S77  1  0.60895226  0.30517241  0.16663940  1  3.144954  0  0.553962  1.162285  0  5.987986  0
S  S78  1  0.48963991  0.15450366  0.27307554  1  3.082279  0  0.562857  1.172976  0  5.936013  0
S  S79  1  0.39421928  0.68290165  0.39808287  1  3.052364  0  0.54345  1.162503  0  5.974241  0
O  O80  1  0.08644655  0.48786086  0.04979214  1  -1.16561  0  -0.318661  -0.583666  0  2.270657  0
O  O81  1  0.47352761  0.57557151  0.58125545  1  -1.18255  0  -0.311013  -0.583822  0  2.305339  0
O  O82  1  0.42454657  0.54242890  0.40623943  1  -1.162829  0  -0.294947  -0.560894  0  2.351774  0
O  O83  1  0.07038849  0.57929059  0.14823345  1  -1.104253  0  -0.307142  -0.512268  0  2.243427  0
O  O84  1  0.32357760  0.44129536  0.41242490  1  -1.111345  0  -0.31065  -0.513697  0  2.192462  0
O  O85  1  0.56095850  0.50192912  0.39502021  1  -1.109469  0  -0.302061  -0.506718  0  2.240168  0
O  O86  1  0.45753000  0.39323298  0.39188468  1  -1.144558  0  -0.290946  -0.533119  0  2.255401  0
O  O87  1  0.60673857  0.53258771  0.57288558  1  -1.142978  0  -0.296059  -0.547183  0  2.280253  0
O  O88  1  0.49985862  0.42872990  0.57083362  1  -1.107545  0  -0.30038  -0.507852  0  2.266144  0
O  O89  1  0.07160118  0.52961673  0.91186541  1  -1.131533  0  -0.31143  -0.52388  0  2.27014  0
O  O90  1  0.06669500  0.62563578  0.01672455  1  -1.160322  0  -0.305748  -0.572515  0  2.329803  0
O  O91  1  0.50338361  0.90766218  0.90910895  1  -1.15319  0  -0.294662  -0.548727  0  2.327991  0
O  O92  1  0.88926030  0.46200401  0.86973521  1  -1.168285  0  -0.314678  -0.57536  0  2.353429  0
O  O93  1  0.87476809  0.55278611  0.96967036  1  -1.1134  0  -0.317453  -0.525559  0  2.184806  0
O  O94  1  0.92148274  0.33448614  0.91236502  1  -1.099983  0  -0.307775  -0.497092  0  2.223718  0
O  O95  1  0.90324033  0.42419462  0.00969579  1  -1.15002  0  -0.28707  -0.536902  0  2.386871  0
O  O96  1  0.60887339  0.91921002  0.02148704  1  -1.13055  0  -0.307646  -0.548057  0  2.263175  0
O  O97  1  0.95041248  0.42980565  0.17240377  1  -1.243944  0  -0.304705  -0.500769  0  2.125536  0
O  O98  1  0.80386063  0.41941270  0.10684645  1  -1.271533  0  -0.31322  -0.520906  0  2.08655  0
O  O99  1  0.83476653  0.34238865  0.18561972  1  -1.244685  0  -0.356094  -0.527768  0  2.204123  0
O  O100  1  0.49777053  0.29210124  0.62816569  1  -1.251548  0  -0.293721  -0.479673  0  2.083813  0
O  O101  1  0.53722815  0.28339234  0.51210244  1  -1.267044  0  -0.30587  -0.520347  0  2.150515  0
O  O102  1  0.45610695  0.91486108  0.04931307  1  -1.167278  0  -0.307314  -0.566533  0  2.338489  0
O  O103  1  0.60200296  0.24679116  0.62235282  1  -1.173367  0  -0.356976  -0.529816  0  2.15216  0
O  O104  1  0.68076383  0.76961744  0.86133618  1  -1.298215  0  -0.312258  -0.522014  0  2.125486  0
O  O105  1  0.73021864  0.92686879  0.92887738  1  -1.282511  0  -0.320378  -0.530387  0  2.07885  0
O  O106  1  0.69938899  0.84253612  0.00241355  1  -1.212872  0  -0.362702  -0.520347  0  2.137022  0
O  O107  1  0.74096280  0.45236112  0.38274447  1  -1.285024  0  -0.296514  -0.512111  0  2.139892  0
O  O108  1  0.67242069  0.43894578  0.47333876  1  -1.262516  0  -0.281158  -0.481465  0  2.18  0
O  O109  1  0.70432836  0.32785900  0.40035449  1  -1.224405  0  -0.346699  -0.510516  0  2.194214  0
O  O110  1  0.67230106  0.27763233  0.16641684  1  -1.298196  0  -0.292194  -0.527306  0  2.223339  0
O  O111  1  0.53645475  0.27803593  0.08703815  1  -1.260853  0  -0.28831  -0.473797  0  2.081399  0
O  O112  1  0.65474931  0.40554704  0.21973961  1  -1.250136  0  -0.337069  -0.500489  0  2.213801  0
O  O113  1  0.35622450  0.89827742  0.92766429  1  -1.114755  0  -0.306295  -0.509295  0  2.273116  0
O  O114  1  0.56255210  0.18761104  0.35633812  1  -1.278645  0  -0.281296  -0.495331  0  2.169097  0
O  O115  1  0.41867068  0.17040555  0.26492599  1  -1.255942  0  -0.282267  -0.490666  0  2.1167  0
O  O116  1  0.45289052  0.05298092  0.22562642  1  -1.202474  0  -0.334167  -0.496599  0  2.163373  0
O  O117  1  0.42954892  0.70993084  0.48778989  1  -1.253266  0  -0.289836  -0.482404  0  2.128974  0
O  O118  1  0.44192213  0.67379518  0.35341496  1  -1.25278  0  -0.312099  -0.524734  0  2.09307  0
O  O119  1  0.36378188  0.75007086  0.38443096  1  -1.184575  0  -0.354816  -0.528625  0  2.149918  0
O  O120  1  0.58857840  0.09532579  0.17323648  1  -1.11034  0  -0.297952  -0.489176  0  2.230262  0
O  O121  1  0.47580457  0.08460915  0.06596539  1  -1.152702  0  -0.292725  -0.540861  0  2.271941  0
O  O122  1  0.62644045  0.08385928  0.03707815  1  -1.164705  0  -0.311395  -0.574249  0  2.354954  0
O  O123  1  0.52182617  0.07723952  0.92687031  1  -1.106473  0  -0.315587  -0.519284  0  2.19052  0
O  O124  1  0.58175636  0.67747846  0.58308870  1  -1.101681  0  -0.306803  -0.510045  0  2.206714  0
F  F125  1  0.18784297  0.63598399  0.31801179  1  -0.603605  0  -0.07339  -0.09771  0  1.359716  0
F  F126  1  0.78901943  0.17011875  0.06559616  1  -0.602907  0  -0.074575  -0.098592  0  1.347611  0
F  F127  1  0.80479294  0.20015060  0.90377214  1  -0.602931  0  -0.078505  -0.094022  0  1.350218  0
F  F128  1  0.76606324  0.38269661  0.70802971  1  -0.618262  0  -0.085185  -0.124702  0  1.36716  0
F  F129  1  0.41967275  0.74511621  0.78451153  1  -0.59532  0  -0.080647  -0.116928  0  1.334482  0
F  F130  1  0.17713909  0.98641818  0.02136211  1  -0.627265  0  -0.109242  -0.154183  0  1.292238  0
F  F131  1  0.42914970  0.76069556  0.94746762  1  -0.643087  0  -0.094668  -0.13318  0  1.432475  0
