# generated using pymatgen
data_ZnH2C10N(O2F)2
_symmetry_space_group_name_H-M   'P 1'
_cell_length_a   9.88483428
_cell_length_b   10.98579641
_cell_length_c   14.49733904
_cell_angle_alpha   90.80921768
_cell_angle_beta   90.03610161
_cell_angle_gamma   89.97925674
_symmetry_Int_Tables_number   1
_chemical_formula_structural   ZnH2C10N(O2F)2
_chemical_formula_sum   'Zn2 H4 C20 N2 O8 F4'
_cell_volume   1574.14888078
_cell_formula_units_Z   2
loop_
 _symmetry_equiv_pos_site_id
 _symmetry_equiv_pos_as_xyz
  1  'x, y, z'
loop_
 _atom_site_type_symbol
 _atom_site_label
 _atom_site_symmetry_multiplicity
 _atom_site_fract_x
 _atom_site_fract_y
 _atom_site_fract_z
 _atom_site_occupancy
 _atom_site_pbe_bader_charge
 _atom_site_pbe_bader_spin_density
 _atom_site_pbe_cm5_charge
 _atom_site_pbe_ddec_charge
 _atom_site_pbe_ddec_spin_density
 _atom_site_pbe_ddec_sum_bond_order
 _atom_site_pbe_magmom
Zn  Zn0  1  0.36133485  0.50002106  0.49987922  1  1.289382  0  0.665453  0.852245  0  2.378819  0
Zn  Zn1  1  0.63866488  0.49997929  0.50012069  1  1.269765  0  0.665465  0.852273  0  2.378795  0
H  H2  1  0.71577399  0.88557282  0.51530925  1  0.09597  0  0.10306  0.107217  0  1.004515  0
H  H3  1  0.28422575  0.11442753  0.48469066  1  0.095961  0  0.103062  0.107224  0  1.004504  0
H  H4  1  0.71590866  0.11466150  0.51533479  1  0.094332  0  0.103349  0.107678  0  1.001978  0
H  H5  1  0.28409107  0.88533885  0.48466581  1  0.09433  0  0.103335  0.107669  0  1.001958  0
C  C6  1  0.49993989  0.73653249  0.49965329  1  1.531548  0  0.220415  0.602001  0  4.1437  0
C  C7  1  0.49999445  0.49998815  0.04256552  1  -0.179096  0  -0.004897  -0.006041  0  4.199083  0
C  C8  1  0.62206289  0.93678776  0.50846695  1  -0.149863  0  -0.082056  -0.091433  0  3.975332  0
C  C9  1  0.37793684  0.06321351  0.49153366  1  -0.149797  0  -0.082067  -0.091482  0  3.975265  0
C  C10  1  0.62211598  0.06334163  0.50862030  1  0.022722  0  -0.082038  -0.091403  0  3.975058  0
C  C11  1  0.37788375  0.93665873  0.49138099  1  0.022716  0  -0.082055  -0.091399  0  3.975004  0
C  C12  1  0.50004287  0.12730381  0.50021915  1  0.056546  0  -0.012642  -0.022845  0  3.953681  0
C  C13  1  0.49995686  0.87269655  0.49978214  1  0.056553  0  -0.01267  -0.022915  0  3.953766  0
C  C14  1  0.92906944  0.42407290  0.44554326  1  1.31723  0  0.257534  0.301827  0  4.084161  0
C  C15  1  0.07093131  0.57592655  0.55445872  1  1.317234  0  0.257497  0.301715  0  4.084272  0
C  C16  1  0.92915922  0.57590529  0.55446775  1  1.158533  0  0.257728  0.302068  0  4.083416  0
C  C17  1  0.50005985  0.26346786  0.50034731  1  1.531551  0  0.220399  0.601977  0  4.143729  0
C  C18  1  0.07084052  0.42409598  0.44553424  1  1.158185  0  0.257629  0.301916  0  4.083527  0
C  C19  1  0.50000300  0.50008472  0.68078674  1  1.615118  0  0.219916  0.65851  0  4.246013  0
C  C20  1  0.49999775  0.49991563  0.31921317  1  1.615129  0  0.219984  0.658605  0  4.24585  0
C  C21  1  0.49995030  0.49971382  0.78025822  1  0.213089  0  -0.00944  -0.127731  0  3.840718  0
C  C22  1  0.50004943  0.50028743  0.21974101  1  0.2131  0  -0.009461  -0.127795  0  3.840652  0
C  C23  1  0.49998753  0.49994262  0.86490194  1  -0.233161  0  -0.016631  0.014774  0  4.270449  0
C  C24  1  0.50001119  0.50005864  0.13509798  1  -0.233182  0  -0.016602  0.014893  0  4.270426  0
C  C25  1  0.50000529  0.50001220  0.95743439  1  0.054002  0  -0.00473  -0.005767  0  4.199024  0
N  N26  1  0.13984508  0.50000830  0.49997594  1  -1.196488  0  -0.27924  -0.288699  0  3.468176  0
N  N27  1  0.86015566  0.49999206  0.50002604  1  -1.196461  0  -0.279327  -0.288817  0  3.468154  0
O  O28  1  0.38517510  0.68334923  0.49938571  1  -1.158077  0  -0.320218  -0.553875  0  2.34505  0
O  O29  1  0.61482564  0.31665021  0.50061489  1  -1.158079  0  -0.320195  -0.553851  0  2.344991  0
O  O30  1  0.38529392  0.31669773  0.50001435  1  -1.158132  0  -0.320348  -0.553553  0  2.344027  0
O  O31  1  0.61470582  0.68330262  0.49998556  1  -1.158104  0  -0.320354  -0.553554  0  2.343996  0
O  O32  1  0.38450031  0.50035425  0.64163210  1  -1.121712  0  -0.314028  -0.542124  0  2.262524  0
O  O33  1  0.61549943  0.49964519  0.35836781  1  -1.121716  0  -0.314037  -0.542147  0  2.262509  0
O  O34  1  0.38440590  0.49965998  0.35814542  1  -1.1217  0  -0.31405  -0.542313  0  2.262893  0
O  O35  1  0.61559384  0.50034037  0.64185449  1  -1.121716  0  -0.314021  -0.54227  0  2.262979  0
F  F36  1  0.86188688  0.34770330  0.39096084  1  -0.591042  0  -0.035872  -0.062876  0  1.401428  0
F  F37  1  0.13811387  0.65229526  0.60904320  1  -0.591091  0  -0.035886  -0.062859  0  1.401514  0
F  F38  1  0.86201276  0.65228835  0.60907479  1  -0.591809  0  -0.035978  -0.063433  0  1.40155  0
F  F39  1  0.13798799  0.34771291  0.39092581  1  -0.591776  0  -0.035984  -0.063408  0  1.40157  0
