# generated using pymatgen
data_UCuH10C14(NO6)2
_symmetry_space_group_name_H-M   'P 1'
_cell_length_a   5.34017893
_cell_length_b   7.77539736
_cell_length_c   10.77462935
_cell_angle_alpha   103.81049410
_cell_angle_beta   91.84617133
_cell_angle_gamma   99.94092942
_symmetry_Int_Tables_number   1
_chemical_formula_structural   UCuH10C14(NO6)2
_chemical_formula_sum   'U1 Cu1 H10 C14 N2 O12'
_cell_volume   426.66525686
_cell_formula_units_Z   1
loop_
 _symmetry_equiv_pos_site_id
 _symmetry_equiv_pos_as_xyz
  1  'x, y, z'
loop_
 _atom_site_type_symbol
 _atom_site_label
 _atom_site_symmetry_multiplicity
 _atom_site_fract_x
 _atom_site_fract_y
 _atom_site_fract_z
 _atom_site_occupancy
 _atom_site_pbe_cm5_charge
 _atom_site_pbe_ddec_charge
 _atom_site_pbe_ddec_spin_density
 _atom_site_pbe_ddec_sum_bond_order
 _atom_site_pbe_magmom
U  U0  1  0.99999110  0.50001076  0.49999371  1  2.160185  2.446727  -0.000417  4.698693  0.0
Cu  Cu1  1  0.00000022  0.49999864  0.00000231  1  0.767706  0.751348  -0.725169  2.245215  -0.561
H  H2  1  0.76250936  0.97868848  0.10568518  1  0.121006  0.14003  -0.00083  0.983627  -0.001
H  H3  1  0.23749748  0.02130474  0.89431696  1  0.121007  0.140023  -0.00083  0.983653  -0.001
H  H4  1  0.94114676  0.74657007  0.25817694  1  0.129518  0.110594  -0.000947  1.015787  -0.002
H  H5  1  0.05885464  0.25343122  0.74182562  1  0.129517  0.110613  -0.000947  1.01572  -0.002
H  H6  1  0.22936749  0.02241684  0.39938927  1  0.128417  0.137513  -0.00045  0.974732  -0.001
H  H7  1  0.77063539  0.97758311  0.60061121  1  0.128401  0.137485  -0.00045  0.974787  -0.001
H  H8  1  0.47534309  0.56398291  0.36158262  1  0.312819  0.418269  -6.5e-05  0.90119  0.0
H  H9  1  0.52465101  0.43601971  0.63841453  1  0.312827  0.418248  -6.5e-05  0.90123  0.0
H  H10  1  0.29688991  0.41592152  0.24790246  1  0.30068  0.4075  4e-05  0.923904  0.0
H  H11  1  0.70310593  0.58407303  0.75209609  1  0.300678  0.407534  4e-05  0.923866  0.0
C  C12  1  0.69299774  0.17805904  0.34459375  1  0.210503  0.550294  0.00013  4.21596  0.0
C  C13  1  0.30700733  0.82194227  0.65540606  1  0.210445  0.550091  0.00013  4.216201  0.0
C  C14  1  0.51563481  0.01916596  0.26253765  1  0.018298  0.03568  0.003313  3.902038  0.002
C  C15  1  0.48437458  0.98082996  0.73746405  1  0.018304  0.035797  0.003314  3.90203  0.002
C  C16  1  0.58264241  0.93185576  0.14249263  1  -0.058691  -0.12955  -0.002026  3.885452  -0.002
C  C17  1  0.41735862  0.06814419  0.85750877  1  -0.058682  -0.129555  -0.002026  3.885409  -0.002
C  C18  1  0.41483338  0.78146080  0.07125787  1  0.111987  0.099128  0.001006  3.965436  0.0
C  C19  1  0.58516575  0.21853914  0.92874258  1  0.111987  0.099148  0.001007  3.965475  0.0
C  C20  1  0.12248943  0.80511797  0.22856655  1  0.070757  0.115511  0.001314  3.888289  0.001
C  C21  1  0.87751500  0.19488064  0.77143465  1  0.07073  0.115437  0.001314  3.888201  0.001
C  C22  1  0.28265161  0.95554582  0.30603312  1  -0.043237  -0.080245  -0.004024  3.835587  -0.005
C  C23  1  0.71735257  0.04445143  0.69397155  1  -0.043218  -0.080256  -0.004023  3.835745  -0.005
C  C24  1  0.46793739  0.66824210  0.94448843  1  0.21053  0.531504  0.001603  4.228169  0.002
C  C25  1  0.53206260  0.33175380  0.05551225  1  0.210539  0.531458  0.001603  4.228079  0.002
N  N26  1  0.18954727  0.72126392  0.11429952  1  -0.348083  -0.238353  -0.053734  3.629025  -0.069
N  N27  1  0.81045193  0.27873603  0.88570371  1  -0.348053  -0.238304  -0.053737  3.62891  -0.069
O  O28  1  0.19135041  0.37236005  0.57307787  1  -0.748907  -0.720814  -4.9e-05  1.934094  0.0
O  O29  1  0.80863677  0.62766007  0.42691483  1  -0.748914  -0.720735  -4.9e-05  1.93444  0.0
O  O30  1  0.64275695  0.24232754  0.45966722  1  -0.334991  -0.567543  0.000215  2.27701  0.0
O  O31  1  0.35724382  0.75767914  0.54033070  1  -0.334981  -0.567481  0.000215  2.277076  0.0
O  O32  1  0.89279129  0.24923403  0.30077248  1  -0.32855  -0.54959  0.000401  2.222997  0.0
O  O33  1  0.10720843  0.75076861  0.69922473  1  -0.328514  -0.549507  0.000402  2.223043  0.0
O  O34  1  0.67344669  0.70988774  0.89621877  1  -0.289433  -0.516438  -0.011735  2.201077  -0.017
O  O35  1  0.32655642  0.29010547  0.10378426  1  -0.28943  -0.516392  -0.011734  2.200974  -0.017
O  O36  1  0.29366376  0.52925437  0.89436532  1  -0.309981  -0.510544  -0.071478  2.323532  -0.102
O  O37  1  0.70634009  0.47074154  0.10564004  1  -0.31001  -0.510563  -0.071479  2.323466  -0.102
O  O38  1  0.29741581  0.50474863  0.33308227  1  -0.616586  -0.832054  0.000109  2.149998  0.0
O  O39  1  0.70257414  0.49525263  0.66691275  1  -0.61658  -0.832008  0.00011  2.149867  0.0
