# generated using pymatgen
data_AlH8C15O5F
_symmetry_space_group_name_H-M   'P 1'
_cell_length_a   6.75232672
_cell_length_b   15.39466956
_cell_length_c   17.81900356
_cell_angle_alpha   83.21448606
_cell_angle_beta   79.02840436
_cell_angle_gamma   78.04077786
_symmetry_Int_Tables_number   1
_chemical_formula_structural   AlH8C15O5F
_chemical_formula_sum   'Al2 H16 C30 O10 F2'
_cell_volume   1772.97250575
_cell_formula_units_Z   2
loop_
 _symmetry_equiv_pos_site_id
 _symmetry_equiv_pos_as_xyz
  1  'x, y, z'
loop_
 _atom_site_type_symbol
 _atom_site_label
 _atom_site_symmetry_multiplicity
 _atom_site_fract_x
 _atom_site_fract_y
 _atom_site_fract_z
 _atom_site_occupancy
 _atom_site_pbe_bader_charge
 _atom_site_pbe_bader_spin_density
 _atom_site_pbe_cm5_charge
 _atom_site_pbe_ddec_charge
 _atom_site_pbe_ddec_spin_density
 _atom_site_pbe_ddec_sum_bond_order
 _atom_site_pbe_magmom
Al  Al0  1  0.49999708  0.50000731  0.49999976  1  2.505196  0  0.404124  1.651958  0  2.568905  0
Al  Al1  1  0.00000314  0.50000553  0.50000050  1  2.495248  0  0.404234  1.656178  0  2.56559  0
H  H2  1  0.25419161  0.41281931  0.57430230  1  0.621712  0  0.354633  0.432502  0  0.849173  0
H  H3  1  0.74581130  0.58719271  0.42569623  1  0.621563  0  0.354663  0.432566  0  0.848905  0
H  H4  1  0.68543312  0.49727883  0.26852332  1  0.097454  0  0.109437  0.112112  0  1.007102  0
H  H5  1  0.75830945  0.49830941  0.12518523  1  0.054559  0  0.103139  0.103513  0  1.009297  0
H  H6  1  0.12001739  0.49824948  0.12531482  1  0.064066  0  0.102455  0.102431  0  1.007689  0
H  H7  1  0.05025553  0.49718861  0.26864332  1  0.130901  0  0.108576  0.111451  0  1.00803  0
H  H8  1  0.88001496  0.50180962  0.87467231  1  0.064067  0  0.102382  0.10228  0  1.007743  0
H  H9  1  0.94972675  0.50289386  0.73133776  1  0.130401  0  0.108645  0.111558  0  1.007734  0
H  H10  1  0.31459893  0.50267693  0.73148700  1  0.097806  0  0.10952  0.112315  0  1.007129  0
H  H11  1  0.24173897  0.50166309  0.87482372  1  0.054714  0  0.103097  0.103458  0  1.009398  0
H  H12  1  0.79981313  0.76851633  0.50289171  1  0.11248  0  0.116757  0.143082  0  0.995834  0
H  H13  1  0.20019405  0.23149300  0.49710783  1  0.112248  0  0.116779  0.143113  0  0.995818  0
H  H14  1  0.56687150  0.22566655  0.49702594  1  0.114391  0  0.107424  0.112433  0  1.006505  0
H  H15  1  0.65075553  0.06396355  0.49863183  1  0.130328  0  0.090638  0.102235  0  1.100995  0
H  H16  1  0.43314158  0.77434305  0.50296642  1  0.11421  0  0.107414  0.112427  0  1.006505  0
H  H17  1  0.34924227  0.93604972  0.50136865  1  0.130973  0  0.090586  0.102272  0  1.100984  0
C  C18  1  0.82690563  0.33968727  0.49827771  1  1.584148  0  0.270343  0.645231  0  4.089167  0
C  C19  1  0.67993108  0.50114024  0.63816255  1  1.537179  0  0.266631  0.642306  0  4.09889  0
C  C20  1  0.17309644  0.66032656  0.50172578  1  1.584796  0  0.270564  0.645577  0  4.089004  0
C  C21  1  0.32007243  0.49887700  0.36183889  1  1.537394  0  0.266601  0.642599  0  4.098592  0
C  C22  1  0.36350335  0.49779906  0.27671062  1  -0.0392  0  -0.014577  -0.047994  0  3.97059  0
C  C23  1  0.56333310  0.49779973  0.23626842  1  -0.050134  0  -0.079191  -0.083269  0  3.984296  0
C  C24  1  0.60351761  0.49826588  0.15689507  1  0.042066  0  -0.08043  -0.125349  0  3.943278  0
C  C25  1  0.44363382  0.49874203  0.11582274  1  0.097655  0  0.005726  0.146442  0  4.10602  0
C  C26  1  0.24306933  0.49823513  0.15697880  1  0.054093  0  -0.080596  -0.123932  0  3.943262  0
C  C27  1  0.20421707  0.49774933  0.23633422  1  -0.095455  0  -0.077975  -0.082949  0  3.984875  0
C  C28  1  0.48337220  0.49955642  0.03494050  1  -0.549193  0  -0.042026  -0.104331  0  4.114338  0
C  C29  1  0.51669243  0.50043315  0.96505754  1  0.104605  0  -0.041879  -0.104562  0  4.114664  0
C  C30  1  0.55640710  0.50126610  0.88417557  1  0.097767  0  0.005603  0.146513  0  4.105924  0
C  C31  1  0.75695690  0.50180792  0.84301001  1  0.054068  0  -0.080544  -0.123687  0  3.943085  0
C  C32  1  0.79578754  0.50230777  0.76365058  1  -0.093036  0  -0.078188  -0.083431  0  3.984882  0
C  C33  1  0.63650561  0.50221295  0.72328859  1  -0.041471  0  -0.014436  -0.047522  0  3.970691  0
C  C34  1  0.43669883  0.50218554  0.76373569  1  -0.050753  0  -0.079364  -0.083691  0  3.984851  0
C  C35  1  0.39652921  0.50171004  0.84311093  1  0.042505  0  -0.080195  -0.125166  0  3.943323  0
C  C36  1  0.12392849  0.75920052  0.50247711  1  -0.020073  0  -0.013691  -0.016678  0  4.003574  0
C  C37  1  0.87607536  0.24080948  0.49752207  1  -0.019399  0  -0.013674  -0.016569  0  4.003486  0
C  C38  1  0.92250857  0.80476368  0.50226773  1  0.093983  0  -0.09447  -0.222631  0  4.000274  0
C  C39  1  0.87795080  0.89666364  0.50135375  1  0.336904  0  0.105882  0.247163  0  3.997629  0
C  C40  1  0.07749316  0.19524764  0.49773149  1  0.093208  0  -0.094459  -0.222646  0  4.000258  0
C  C41  1  0.12204488  0.10335094  0.49864678  1  0.336878  0  0.105956  0.247138  0  3.997312  0
C  C42  1  0.72457740  0.19116749  0.49766830  1  -0.065029  0  -0.08694  -0.098997  0  3.994911  0
C  C43  1  0.77370529  0.09894843  0.49853187  1  -0.018785  0  -0.09161  -0.1222  0  3.977609  0
C  C44  1  0.27542554  0.80884121  0.50232992  1  -0.064888  0  -0.086903  -0.098889  0  3.994861  0
C  C45  1  0.22629556  0.90106153  0.50146808  1  -0.019329  0  -0.091592  -0.122257  0  3.977601  0
C  C46  1  0.02453551  0.95062689  0.50065773  1  0.011105  0  -0.008182  -0.012559  0  3.945801  0
C  C47  1  0.97545985  0.04938840  0.49934165  1  0.075369  0  -0.00827  -0.012434  0  3.945744  0
O  O48  1  0.63995627  0.37752977  0.49893309  1  -1.25412  0  -0.23525  -0.59305  0  2.336516  0
O  O49  1  0.86523888  0.50030302  0.60517598  1  -1.254442  0  -0.2373  -0.597678  0  2.345656  0
O  O50  1  0.02380309  0.62181288  0.50065548  1  -1.260012  0  -0.237786  -0.596123  0  2.345798  0
O  O51  1  0.47109264  0.50015241  0.39490304  1  -1.265314  0  -0.236738  -0.597537  0  2.348321  0
O  O52  1  0.36004731  0.62248405  0.50107086  1  -1.254361  0  -0.235235  -0.593034  0  2.336443  0
O  O53  1  0.13475770  0.49970637  0.39482095  1  -1.254313  0  -0.237252  -0.597722  0  2.345539  0
O  O54  1  0.97620321  0.37819835  0.49934678  1  -1.260524  0  -0.237584  -0.595823  0  2.345777  0
O  O55  1  0.52889597  0.49987742  0.60509907  1  -1.265105  0  -0.236793  -0.597371  0  2.34834  0
O  O56  1  0.25182433  0.46056793  0.53379755  1  -1.427149  0  -0.449373  -0.996727  0  2.193262  0
O  O57  1  0.74818345  0.53944011  0.46620093  1  -1.426956  0  -0.449493  -0.996851  0  2.192973  0
F  F58  1  0.67538640  0.93356838  0.50110132  1  -0.64351  0  -0.079888  -0.133581  0  1.439687  0
F  F59  1  0.32461271  0.06644208  0.49890321  1  -0.64349  0  -0.079925  -0.133615  0  1.439454  0
