# generated using pymatgen
data_CuP2H32C18(NO4)2
_symmetry_space_group_name_H-M   'P 1'
_cell_length_a   6.62481880
_cell_length_b   9.10940570
_cell_length_c   9.76849932
_cell_angle_alpha   79.37685878
_cell_angle_beta   82.63549151
_cell_angle_gamma   73.93673321
_symmetry_Int_Tables_number   1
_chemical_formula_structural   CuP2H32C18(NO4)2
_chemical_formula_sum   'Cu1 P2 H32 C18 N2 O8'
_cell_volume   554.92366147
_cell_formula_units_Z   1
loop_
 _symmetry_equiv_pos_site_id
 _symmetry_equiv_pos_as_xyz
  1  'x, y, z'
loop_
 _atom_site_type_symbol
 _atom_site_label
 _atom_site_symmetry_multiplicity
 _atom_site_fract_x
 _atom_site_fract_y
 _atom_site_fract_z
 _atom_site_occupancy
 _atom_site_hle17_ddec_charge
 _atom_site_hle17_ddec_spin_density
 _atom_site_hle17_ddec_sum_bond_order
 _atom_site_hle17_magmom
 _atom_site_hse06_10hf_ddec_charge
 _atom_site_hse06_10hf_ddec_spin_density
 _atom_site_hse06_10hf_ddec_sum_bond_order
 _atom_site_hse06_10hf_magmom
 _atom_site_hse06_ddec_charge
 _atom_site_hse06_ddec_spin_density
 _atom_site_hse06_ddec_sum_bond_order
 _atom_site_hse06_magmom
 _atom_site_pbe_cm5_charge
 _atom_site_pbe_ddec_charge
 _atom_site_pbe_ddec_spin_density
 _atom_site_pbe_ddec_sum_bond_order
 _atom_site_pbe_magmom
Cu  Cu0  1  0.49999739  0.99999905  0.49999796  1  0.937611  0.722296  1.766798  0.549  0.920018  0.802292  2.142141  0.662  1.013786  0.86063  2.057238  0.74  0.770061  0.866699  0.758494  2.186603  0.607
P  P1  1  0.18575041  0.32750877  0.39493249  1  1.424016  0.002547  4.680897  0.001  1.273855  0.004393  5.176082  0.003  1.32242  0.002942  5.144408  0.003  0.360122  1.240012  0.00569  5.197263  0.003
P  P2  1  0.81424937  0.67249003  0.60506693  1  1.423963  0.00255  4.680886  0.001  1.273827  0.004395  5.176025  0.003  1.322391  0.002943  5.14435  0.003  0.360082  1.239981  0.00569  5.197212  0.003
H  H3  1  0.92567281  0.04006938  0.40807514  1  0.096593  0.001018  0.944391  0.002  0.103573  0.000841  1.007945  0.001  0.105254  0.00059  1.006087  0.001  0.127189  0.102733  0.001045  1.008515  0.002
H  H4  1  0.07431999  0.95994100  0.59192497  1  0.09661  0.001021  0.944358  0.002  0.103559  0.000842  1.007977  0.001  0.10524  0.00059  1.00612  0.001  0.127191  0.10272  0.001046  1.008545  0.002
H  H5  1  0.15179360  0.05069254  0.19268871  1  0.11167  0.000595  0.978361  0.001  0.120072  0.000498  1.04294  0.0  0.123096  0.000349  1.041833  0.0  0.111633  0.117648  0.00062  1.044165  0.001
H  H6  1  0.84820496  0.94931434  0.80731147  1  0.111645  0.000594  0.978437  0.001  0.120058  0.000498  1.042996  0.0  0.12308  0.000348  1.04189  0.0  0.111639  0.117635  0.00062  1.044225  0.001
H  H7  1  0.67947203  0.93374864  0.99452893  1  0.093516  0.00048  1.000466  0.0  0.103703  0.000422  1.064128  0.0  0.106083  0.00031  1.064186  0.0  0.10593  0.102021  0.000518  1.064209  0.001
H  H8  1  0.32054080  0.06624316  0.00546946  1  0.093501  0.000482  1.000472  0.0  0.103686  0.000422  1.064153  0.0  0.106066  0.00031  1.064211  0.0  0.10589  0.102004  0.000518  1.064232  0.001
H  H9  1  0.47319754  0.92394140  0.22630337  1  0.098547  0.001041  0.949515  0.002  0.106923  0.000848  1.010905  0.001  0.108775  0.000596  1.008766  0.001  0.123799  0.10531  0.001059  1.013003  0.002
H  H10  1  0.52681100  0.07605388  0.77369174  1  0.098752  0.001048  0.949425  0.002  0.10711  0.000848  1.010814  0.001  0.108966  0.000596  1.008662  0.001  0.123867  0.105495  0.001059  1.012916  0.002
H  H11  1  0.59083485  0.30221971  0.23488708  1  0.09621  -0.000115  0.97551  0.0  0.11303  -7.2e-05  1.044785  0.0  0.113677  -7.8e-05  1.046602  0.0  0.083299  0.112605  -6.4e-05  1.04355  0.0
H  H12  1  0.40916146  0.69778026  0.76511143  1  0.096231  -0.000117  0.975485  0.0  0.113044  -7.1e-05  1.044773  0.0  0.113692  -7.8e-05  1.046588  0.0  0.0833  0.112619  -6.4e-05  1.043536  0.0
H  H13  1  0.52911792  0.48231078  0.29734196  1  0.116211  -3e-06  0.946726  0.0  0.137679  -4e-06  1.003307  0.0  0.139355  5e-06  1.002873  0.0  0.092233  0.136404  -7e-06  1.003733  0.0
H  H14  1  0.47088149  0.51768917  0.70265934  1  0.116239  7e-06  0.946726  0.0  0.137708  -3e-06  1.003301  0.0  0.139384  5e-06  1.002866  0.0  0.092248  0.136433  -7e-06  1.003727  0.0
H  H15  1  0.54604968  0.47785563  0.11504613  1  0.091323  0.000223  0.977861  0.0  0.113988  0.000103  1.039351  0.0  0.115265  5.7e-05  1.039337  0.0  0.083157  0.113255  0.000168  1.039086  0.0
H  H16  1  0.45394670  0.52214434  0.88495648  1  0.091311  0.000226  0.977814  0.0  0.113974  0.000103  1.039317  0.0  0.115248  5.7e-05  1.039303  0.0  0.083157  0.11324  0.000168  1.039056  0.0
H  H17  1  0.04976365  0.34907897  0.11965451  1  0.103139  3.4e-05  0.950579  0.0  0.124692  2.3e-05  1.011417  0.0  0.125824  2.2e-05  1.012098  0.0  0.088543  0.123638  3.1e-05  1.011272  0.0
H  H18  1  0.95023261  0.65092562  0.88034322  1  0.103142  3.7e-05  0.950563  0.0  0.124701  2.4e-05  1.011388  0.0  0.125834  2.1e-05  1.012068  0.0  0.088554  0.123648  3.1e-05  1.011243  0.0
H  H19  1  0.31865662  0.23954010  0.11210428  1  0.082685  -1.9e-05  0.994015  0.0  0.102117  2e-06  1.062274  0.0  0.103035  -7e-06  1.062776  0.0  0.079648  0.101379  3.2e-05  1.06199  0.0
H  H20  1  0.68134155  0.76046333  0.88789244  1  0.082651  -1.6e-05  0.994058  0.0  0.102082  3e-06  1.062309  0.0  0.102999  -6e-06  1.062814  0.0  0.079644  0.101345  3.2e-05  1.062023  0.0
H  H21  1  0.24195206  0.42314490  0.00607413  1  0.096546  -7.3e-05  0.969458  0.0  0.120133  -4.2e-05  1.028009  0.0  0.121217  -3.5e-05  1.028445  0.0  0.086257  0.119326  -4.8e-05  1.027574  0.0
H  H22  1  0.75804384  0.57686085  0.99392650  1  0.096519  -7.4e-05  0.969446  0.0  0.120077  -4.2e-05  1.028048  0.0  0.121161  -3.5e-05  1.028487  0.0  0.086225  0.11927  -4.8e-05  1.027614  0.0
H  H23  1  0.17848937  0.66282191  0.10605943  1  0.091748  0.000255  0.950543  0.0  0.11406  0.000142  1.012224  0.0  0.114729  7.4e-05  1.013766  0.0  0.081338  0.113832  0.000236  1.010894  0.0
H  H24  1  0.82150736  0.33718152  0.89394357  1  0.091813  0.000253  0.950589  0.0  0.114098  0.000141  1.012299  0.0  0.114767  7.5e-05  1.013843  0.0  0.081363  0.113867  0.000236  1.01097  0.0
H  H25  1  0.16726899  0.66309461  0.28837676  1  0.105872  -2.8e-05  0.973584  0.0  0.123707  -2e-05  1.041327  0.0  0.125461  -8e-06  1.040928  0.0  0.085508  0.122137  -2.2e-05  1.04189  0.0
H  H26  1  0.83272976  0.33690303  0.71162910  1  0.105865  -3.1e-05  0.973658  0.0  0.123716  -2.1e-05  1.041369  0.0  0.125483  -7e-06  1.040955  0.0  0.085496  0.122146  -2.2e-05  1.041932  0.0
H  H27  1  0.96251296  0.61665897  0.21671738  1  0.104161  -1.4e-05  0.954155  0.0  0.123853  -1e-06  1.016352  0.0  0.125348  -2e-06  1.016881  0.0  0.085674  0.122891  4e-06  1.015726  0.0
H  H28  1  0.03748499  0.38334098  0.78328815  1  0.104139  -2e-05  0.954164  0.0  0.123834  -1e-06  1.016364  0.0  0.125326  -2e-06  1.016899  0.0  0.085659  0.122873  4e-06  1.015734  0.0
H  H29  1  0.49182682  0.71394650  0.44723243  1  0.413318  -0.000115  0.897401  0.0  0.38352  -0.000107  0.960977  0.0  0.394047  -0.000106  0.945607  0.0  0.280199  0.376093  -9.2e-05  0.971839  0.0
H  H30  1  0.50817722  0.28604881  0.55276822  1  0.413275  -0.000115  0.897436  0.0  0.383464  -0.000107  0.96104  0.0  0.393991  -0.000106  0.945669  0.0  0.280209  0.376037  -9.2e-05  0.971902  0.0
H  H31  1  0.24821554  0.74771794  0.48860856  1  0.409976  0.0  0.893573  0.0  0.385691  -1.3e-05  0.948492  0.0  0.395665  -1.3e-05  0.933883  0.0  0.285192  0.378707  -7e-06  0.958709  0.0
H  H32  1  0.75178920  0.25228428  0.51139287  1  0.409953  1e-06  0.893596  0.0  0.385668  -1.3e-05  0.948521  0.0  0.395644  -1.3e-05  0.933909  0.0  0.285197  0.378684  -7e-06  0.958739  0.0
H  H33  1  0.85615107  0.46715608  0.43999169  1  0.435427  0.000178  0.876333  0.001  0.398296  0.000201  0.949155  0.001  0.410181  0.000139  0.932299  0.0  0.303268  0.38999  0.000274  0.960896  0.001
H  H34  1  0.14384679  0.53284389  0.56000771  1  0.435386  0.000178  0.876382  0.001  0.398271  0.000201  0.949182  0.001  0.410157  0.000139  0.932324  0.0  0.303258  0.389966  0.000274  0.960921  0.001
C  C35  1  0.87645392  0.01713245  0.31405127  1  0.153487  -0.011075  3.650824  -0.007  0.124243  -0.002723  3.906427  -0.002  0.133895  -0.004188  3.924109  -0.003  0.063155  0.117291  -0.001538  3.895442  -0.001
C  C36  1  0.12354351  0.98287329  0.68594921  1  0.153633  -0.011068  3.650976  -0.007  0.124309  -0.002725  3.906629  -0.002  0.133962  -0.004187  3.924309  -0.003  0.063188  0.117357  -0.001538  3.895648  -0.001
C  C37  1  0.00316685  0.02338710  0.18950150  1  -0.128299  0.008151  3.648698  0.009  -0.146311  0.003281  3.890802  0.004  -0.153516  0.002896  3.910163  0.004  -0.066981  -0.141946  0.00356  3.878199  0.004
C  C38  1  0.99683411  0.97661284  0.81050068  1  -0.128303  0.008151  3.648768  0.009  -0.146316  0.003282  3.890871  0.004  -0.153523  0.002896  3.910235  0.004  -0.066988  -0.141958  0.003561  3.878273  0.004
C  C39  1  0.93616718  0.99639003  0.06803518  1  0.091947  -0.009874  3.740463  -0.006  0.104266  -0.003678  3.966878  -0.002  0.108756  -0.004104  3.987414  -0.002  0.017777  0.101207  -0.003372  3.953194  -0.002
C  C40  1  0.06383500  0.00360644  0.93196954  1  0.091877  -0.009876  3.740434  -0.006  0.104254  -0.003679  3.966798  -0.002  0.108743  -0.004105  3.987335  -0.002  0.017759  0.101198  -0.003372  3.953112  -0.002
C  C41  1  0.74082891  0.96022910  0.08235265  1  -0.151553  0.007907  3.696833  0.009  -0.167218  0.003129  3.936335  0.004  -0.175083  0.002769  3.957271  0.004  -0.076478  -0.162267  0.003479  3.92258  0.004
C  C42  1  0.25918005  0.03976503  0.91764467  1  -0.151574  0.007899  3.696487  0.009  -0.167255  0.003129  3.935985  0.004  -0.17512  0.002768  3.956921  0.004  -0.076526  -0.162303  0.00348  3.922231  0.004
C  C43  1  0.62279073  0.95526424  0.21027105  1  0.133726  -0.010188  3.671502  -0.007  0.106526  -0.002242  3.922999  -0.001  0.115463  -0.003755  3.941514  -0.003  0.053166  0.100365  -0.001148  3.911892  0.0
C  C44  1  0.37721774  0.04473566  0.78972327  1  0.133501  -0.010201  3.67122  -0.007  0.106268  -0.002245  3.922678  -0.001  0.115204  -0.003752  3.941197  -0.003  0.053108  0.100108  -0.001148  3.911572  0.0
C  C45  1  0.25895870  0.43327996  0.22493396  1  -0.031735  0.003315  3.66552  0.004  0.024619  0.001707  3.89192  0.002  0.017581  0.001093  3.913048  0.001  -0.02521  0.029363  0.002458  3.877651  0.003
C  C46  1  0.74103840  0.56672232  0.77506715  1  -0.031701  0.003318  3.665429  0.004  0.024658  0.001706  3.891799  0.002  0.017622  0.001092  3.912928  0.001  -0.02519  0.029401  0.002458  3.877528  0.003
C  C47  1  0.49534779  0.42258383  0.21857247  1  -0.314496  -8.9e-05  3.680848  0.0  -0.392685  -6.1e-05  3.915758  0.0  -0.3945  -0.000107  3.926296  0.0  -0.243575  -0.391026  2.2e-05  3.908225  0.0
C  C48  1  0.50465049  0.57741498  0.78142913  1  -0.314532  -0.000109  3.680832  0.0  -0.392726  -6.3e-05  3.915749  0.0  -0.394535  -0.000105  3.926285  0.0  -0.243593  -0.391069  2.2e-05  3.908217  0.0
C  C49  1  0.21382291  0.35650548  0.10918983  1  -0.311635  -7e-05  3.69902  0.0  -0.392899  0.000191  3.935462  0.0  -0.394782  0.000133  3.946791  0.0  -0.242533  -0.391491  0.000269  3.927741  0.0
C  C50  1  0.78617526  0.64349794  0.89080792  1  -0.311564  -8.3e-05  3.699028  0.0  -0.392815  0.000191  3.935488  0.0  -0.394695  0.000134  3.946811  0.0  -0.24251  -0.391416  0.000268  3.927785  0.0
C  C51  1  0.13307365  0.60363464  0.20948307  1  -0.318423  0.000454  3.688637  0.0  -0.398462  0.000281  3.926573  0.0  -0.401587  0.00015  3.939385  0.0  -0.247723  -0.395991  0.000389  3.917913  0.0
C  C52  1  0.86692273  0.39636533  0.79051953  1  -0.31849  0.00047  3.688773  0.0  -0.398518  0.000283  3.926676  0.0  -0.401657  0.000149  3.939483  0.0  -0.247748  -0.396039  0.000389  3.918009  0.0
N  N53  1  0.68837456  0.98557077  0.32436631  1  -0.28553  0.074279  3.334865  0.097  -0.238516  0.048509  3.62544  0.068  -0.269947  0.038878  3.646869  0.058  -0.342636  -0.219968  0.054847  3.612413  0.073
N  N54  1  0.31162062  0.01442806  0.67563251  1  -0.285627  0.074273  3.33503  0.097  -0.238453  0.048512  3.625459  0.068  -0.269884  0.038874  3.646888  0.058  -0.342616  -0.219906  0.054849  3.61243  0.073
O  O55  1  0.27467829  0.15403425  0.39167611  1  -0.814253  0.067821  2.021105  0.094  -0.773329  0.042618  2.335931  0.063  -0.81416  0.031821  2.31895  0.051  -0.381527  -0.746208  0.050123  2.345655  0.071
O  O56  1  0.72531841  0.84596457  0.60832155  1  -0.81422  0.067823  2.021132  0.094  -0.773345  0.042616  2.335959  0.063  -0.814176  0.031819  2.318979  0.051  -0.381517  -0.74621  0.050122  2.345649  0.071
O  O57  1  0.25676490  0.38786109  0.51236688  1  -0.839097  0.001445  1.978775  0.003  -0.754502  0.000204  2.211643  0.001  -0.781182  -0.000255  2.193879  0.0  -0.366988  -0.735539  0.000839  2.223281  0.002
O  O58  1  0.74323418  0.61213540  0.48763505  1  -0.839112  0.001444  1.978809  0.003  -0.754521  0.000203  2.211689  0.001  -0.781198  -0.000255  2.193916  0.0  -0.36696  -0.735562  0.000839  2.223327  0.002
O  O59  1  0.93531459  0.36030710  0.40754057  1  -0.770379  0.001863  2.04289  0.003  -0.687596  0.001556  2.2668  0.002  -0.710558  0.001035  2.243305  0.001  -0.38345  -0.671565  0.002036  2.28273  0.003
O  O60  1  0.06468517  0.63969170  0.59245783  1  -0.770346  0.001862  2.04295  0.003  -0.687579  0.001557  2.26684  0.002  -0.710537  0.001035  2.243343  0.001  -0.383438  -0.671548  0.002035  2.282767  0.003
O  O61  1  0.35558464  0.79207198  0.42979047  1  -0.853458  -0.001082  1.81351  0.0  -0.816962  -0.001133  1.991909  0.0  -0.836638  -0.001515  1.958595  0.0  -0.604991  -0.803481  -0.000648  2.01443  0.0
O  O62  1  0.64441976  0.20792679  0.57021160  1  -0.853409  -0.001085  1.813554  0.0  -0.816922  -0.001132  1.991959  0.0  -0.836596  -0.001515  1.958644  0.0  -0.605005  -0.803441  -0.000648  2.014479  0.0
