# generated using pymatgen
data_ZnH16C12(NO)4
_symmetry_space_group_name_H-M   'P 1'
_cell_length_a   7.09168491
_cell_length_b   14.35507649
_cell_length_c   14.35539003
_cell_angle_alpha   120.00251717
_cell_angle_beta   89.99938667
_cell_angle_gamma   90.00110353
_symmetry_Int_Tables_number   1
_chemical_formula_structural   ZnH16C12(NO)4
_chemical_formula_sum   'Zn3 H48 C36 N12 O12'
_cell_volume   1265.57985655
_cell_formula_units_Z   3
loop_
 _symmetry_equiv_pos_site_id
 _symmetry_equiv_pos_as_xyz
  1  'x, y, z'
loop_
 _atom_site_type_symbol
 _atom_site_label
 _atom_site_symmetry_multiplicity
 _atom_site_fract_x
 _atom_site_fract_y
 _atom_site_fract_z
 _atom_site_occupancy
 _atom_site_pbe_bader_charge
 _atom_site_pbe_bader_spin_density
 _atom_site_pbe_cm5_charge
 _atom_site_pbe_ddec_charge
 _atom_site_pbe_ddec_spin_density
 _atom_site_pbe_ddec_sum_bond_order
 _atom_site_pbe_magmom
Zn  Zn0  1  0.16671598  0.59629389  0.00003653  1  1.257643  0  0.682955  0.778176  0  2.261226  0
Zn  Zn1  1  0.83335565  0.40372495  0.40371924  1  1.255673  0  0.68292  0.778188  0  2.261308  0
Zn  Zn2  1  0.49999694  0.00000766  0.59627578  1  1.257532  0  0.682892  0.778182  0  2.261354  0
H  H3  1  0.40008402  0.45903723  0.21000288  1  0.054372  0  0.101785  0.146275  0  1.018396  0
H  H4  1  0.06673804  0.75097039  0.54096650  1  0.064832  0  0.101794  0.146296  0  1.018403  0
H  H5  1  0.73339200  0.78999766  0.24903944  1  0.01834  0  0.101814  0.146356  0  1.018426  0
H  H6  1  0.93327767  0.24904828  0.79000781  1  0.018574  0  0.1018  0.146336  0  1.018508  0
H  H7  1  0.26659571  0.21000612  0.45903650  1  0.054414  0  0.101776  0.146271  0  1.018423  0
H  H8  1  0.59995010  0.54096925  0.75095367  1  0.064952  0  0.101847  0.146364  0  1.018416  0
H  H9  1  0.43379504  0.57953082  0.20586300  1  0.086123  0  0.100526  0.151504  0  0.995572  0
H  H10  1  0.10045665  0.62632930  0.42047516  1  0.051213  0  0.100467  0.151428  0  0.995597  0
H  H11  1  0.76711464  0.79414689  0.37367353  1  0.059293  0  0.10048  0.151449  0  0.99562  0
H  H12  1  0.89956606  0.37368569  0.79416009  1  0.058898  0  0.100512  0.151513  0  0.995665  0
H  H13  1  0.23287163  0.20586332  0.57952869  1  0.086128  0  0.100512  0.151482  0  0.995566  0
H  H14  1  0.56622789  0.42047466  0.62631853  1  0.051116  0  0.100485  0.151454  0  0.995715  0
H  H15  1  0.43178588  0.45388261  0.08421349  1  0.073965  0  0.100189  0.150257  0  1.002846  0
H  H16  1  0.09844869  0.63032907  0.54611260  1  0.072948  0  0.100206  0.150309  0  1.002846  0
H  H17  1  0.76510921  0.91579134  0.36967841  1  0.108539  0  0.100164  0.150253  0  1.002917  0
H  H18  1  0.90155139  0.36969150  0.91579813  1  0.10848  0  0.100173  0.150308  0  1.002921  0
H  H19  1  0.23487716  0.08421607  0.45388955  1  0.073969  0  0.100204  0.150247  0  1.002914  0
H  H20  1  0.56823137  0.54611245  0.63031353  1  0.073411  0  0.100151  0.150234  0  1.002874  0
H  H21  1  0.77192332  0.57745226  0.09106232  1  0.126348  0  0.113469  0.110362  0  1.036683  0
H  H22  1  0.43857705  0.51358977  0.42255005  1  0.128959  0  0.11342  0.110448  0  1.036437  0
H  H23  1  0.10523067  0.90894762  0.48640280  1  0.122618  0  0.113488  0.11042  0  1.036584  0
H  H24  1  0.56145840  0.48640426  0.90895464  1  0.122608  0  0.113488  0.110444  0  1.036646  0
H  H25  1  0.89474866  0.09105853  0.57745759  1  0.126232  0  0.1135  0.110466  0  1.036633  0
H  H26  1  0.22812341  0.42255587  0.51360141  1  0.128476  0  0.113512  0.110478  0  1.03661  0
H  H27  1  0.73182348  0.46942711  0.20788649  1  0.157075  0  0.118751  0.123628  0  1.056974  0
H  H28  1  0.39849263  0.73844426  0.53055369  1  0.168515  0  0.118772  0.123682  0  1.057107  0
H  H29  1  0.06514450  0.79211090  0.26154565  1  0.162251  0  0.118717  0.123574  0  1.057133  0
H  H30  1  0.60151330  0.26154731  0.79210219  1  0.16239  0  0.118757  0.12365  0  1.057139  0
H  H31  1  0.93484013  0.20788972  0.46944254  1  0.157197  0  0.118762  0.123678  0  1.05705  0
H  H32  1  0.26817838  0.53055533  0.73845251  1  0.168528  0  0.118745  0.12362  0  1.057199  0
H  H33  1  0.50229573  0.84332474  0.97178895  1  0.046921  0  0.10627  0.121212  0  0.958535  0
H  H34  1  0.16894234  0.12844623  0.15669833  1  0.049577  0  0.106286  0.121161  0  0.958512  0
H  H35  1  0.83560849  0.02825105  0.87152087  1  0.044412  0  0.106197  0.121186  0  0.958553  0
H  H36  1  0.83109800  0.87151767  0.02827853  1  0.045008  0  0.106208  0.12123  0  0.958554  0
H  H37  1  0.16439852  0.97175411  0.84327326  1  0.047175  0  0.106227  0.121209  0  0.95865  0
H  H38  1  0.49773677  0.15671017  0.12845647  1  0.049002  0  0.106317  0.121269  0  0.958613  0
H  H39  1  0.62667536  0.72959679  0.87787748  1  0.089905  0  0.103317  0.119152  0  0.980643  0
H  H40  1  0.29335332  0.14826925  0.27041343  1  0.036112  0  0.103221  0.119002  0  0.980738  0
H  H41  1  0.96001269  0.12214885  0.85170919  1  0.04903  0  0.103261  0.119068  0  0.980747  0
H  H42  1  0.70667191  0.85170188  0.12216471  1  0.048818  0  0.103349  0.119175  0  0.9808  0
H  H43  1  0.03998459  0.87785293  0.72955298  1  0.089467  0  0.103259  0.119057  0  0.980681  0
H  H44  1  0.37331711  0.27042893  0.14829006  1  0.036429  0  0.103276  0.119122  0  0.980702  0
H  H45  1  0.06637958  0.43110913  0.24177793  1  0.55914  0  0.308837  0.289303  0  1.006005  0
H  H46  1  0.73303759  0.81066383  0.56887573  1  0.560739  0  0.308815  0.289245  0  1.006175  0
H  H47  1  0.39970265  0.75822780  0.18934018  1  0.567705  0  0.3088  0.289195  0  1.006026  0
H  H48  1  0.26695420  0.18934864  0.75822180  1  0.5676  0  0.308794  0.289138  0  1.00623  0
H  H49  1  0.60029172  0.24178648  0.43112653  1  0.558758  0  0.308777  0.289193  0  1.00598  0
H  H50  1  0.93362527  0.56886590  0.81065276  1  0.560907  0  0.308787  0.289121  0  1.00622  0
C  C51  1  0.16034151  0.50896077  0.15707811  1  0.980466  0  0.216313  0.38908  0  3.955899  0
C  C52  1  0.82699730  0.64810854  0.49103838  1  0.991095  0  0.216375  0.389173  0  3.955787  0
C  C53  1  0.49365338  0.84293097  0.35189569  1  0.988137  0  0.216377  0.389172  0  3.955963  0
C  C54  1  0.17301697  0.35191056  0.84294629  1  0.987939  0  0.216509  0.38912  0  3.955977  0
C  C55  1  0.50633114  0.15708169  0.50897248  1  0.980476  0  0.216432  0.389188  0  3.955776  0
C  C56  1  0.83968455  0.49103819  0.64809775  1  0.990982  0  0.21646  0.389052  0  3.956185  0
C  C57  1  0.36763330  0.49963900  0.16442749  1  -0.04856  0  -0.230909  -0.471234  0  3.933835  0
C  C58  1  0.03429170  0.66478676  0.50036253  1  -0.022886  0  -0.230883  -0.471266  0  3.933777  0
C  C59  1  0.70094972  0.83557929  0.33522142  1  -0.020249  0  -0.230881  -0.471314  0  3.933857  0
C  C60  1  0.96572395  0.33523283  0.83559169  1  -0.019922  0  -0.230929  -0.471397  0  3.934166  0
C  C61  1  0.29903370  0.16442942  0.49964025  1  -0.048617  0  -0.230908  -0.471207  0  3.933782  0
C  C62  1  0.63239249  0.50036289  0.66477191  1  -0.023298  0  -0.230915  -0.471244  0  3.934023  0
C  C63  1  0.87710746  0.54681138  0.12379773  1  0.363448  0  -0.016185  -0.062252  0  4.03608  0
C  C64  1  0.54377444  0.57696661  0.45318964  1  0.306706  0  -0.016063  -0.062314  0  4.035995  0
C  C65  1  0.21042718  0.87621493  0.42302721  1  0.393705  0  -0.016161  -0.062246  0  4.035954  0
C  C66  1  0.45625116  0.42303746  0.87622490  1  0.393258  0  -0.016116  -0.062287  0  4.035824  0
C  C67  1  0.78955749  0.12379480  0.54681915  1  0.36318  0  -0.016282  -0.062465  0  4.036079  0
C  C68  1  0.12291841  0.45319254  0.57696913  1  0.306814  0  -0.016201  -0.062424  0  4.036064  0
C  C69  1  0.85407452  0.49478023  0.18130196  1  0.2912  0  -0.006631  -0.05189  0  3.956583  0
C  C70  1  0.52073361  0.68650742  0.50520837  1  0.338073  0  -0.006652  -0.052013  0  3.956832  0
C  C71  1  0.18739043  0.81870316  0.31348797  1  0.258092  0  -0.006527  -0.051909  0  3.956748  0
C  C72  1  0.47927795  0.31349191  0.81870202  1  0.258472  0  -0.00657  -0.051926  0  3.956614  0
C  C73  1  0.81259330  0.18130226  0.49479114  1  0.291039  0  -0.006548  -0.051919  0  3.956841  0
C  C74  1  0.14594658  0.50521078  0.68650950  1  0.337835  0  -0.006574  -0.051878  0  3.956697  0
C  C75  1  0.44044146  0.70307162  0.97795419  1  1.55041  0  0.202386  0.623403  0  4.130788  0
C  C76  1  0.10713190  0.27488704  0.29693729  1  1.552139  0  0.202096  0.623071  0  4.131022  0
C  C77  1  0.77381375  0.02203713  0.72508085  1  1.562186  0  0.202265  0.623463  0  4.131304  0
C  C78  1  0.89279971  0.72503986  0.02201457  1  1.561432  0  0.20191  0.623371  0  4.131517  0
C  C79  1  0.22619800  0.97796165  0.70304187  1  1.550216  0  0.202164  0.62326  0  4.131256  0
C  C80  1  0.55952017  0.29694554  0.27491365  1  1.552511  0  0.202282  0.623599  0  4.131238  0
C  C81  1  0.58219501  0.77338099  0.96257985  1  -0.065592  0  -0.162688  -0.271086  0  3.970419  0
C  C82  1  0.24887019  0.18918546  0.22663014  1  0.012316  0  -0.162636  -0.270791  0  3.970033  0
C  C83  1  0.91554526  0.03744067  0.81078618  1  -0.017275  0  -0.16257  -0.271026  0  3.97041  0
C  C84  1  0.75112411  0.81078700  0.03745764  1  0.009141  0  -0.1627  -0.27127  0  3.970572  0
C  C85  1  0.08447173  0.96255977  0.77334462  1  -0.038858  0  -0.162622  -0.271047  0  3.970575  0
C  C86  1  0.41779881  0.22663410  0.18919637  1  -0.013632  0  -0.162712  -0.271296  0  3.970396  0
N  N87  1  0.06852422  0.55504054  0.10896306  1  -1.219985  0  -0.364018  -0.36965  0  3.53412  0
N  N88  1  0.73518837  0.55390497  0.44495743  1  -1.221914  0  -0.364167  -0.369812  0  3.534259  0
N  N89  1  0.40184153  0.89104887  0.44609508  1  -1.222135  0  -0.364161  -0.36988  0  3.534362  0
N  N90  1  0.26483997  0.44611173  0.89107353  1  -1.221884  0  -0.364253  -0.369839  0  3.534303  0
N  N91  1  0.59813854  0.10895747  0.55504552  1  -1.219579  0  -0.364104  -0.369801  0  3.534166  0
N  N92  1  0.93150632  0.44496383  0.55389878  1  -1.221602  0  -0.364222  -0.369833  0  3.53447  0
N  N93  1  0.03315748  0.47196451  0.20129759  1  -1.307939  0  -0.378946  -0.256612  0  3.627897  0
N  N94  1  0.69982002  0.72932370  0.52802199  1  -1.321753  0  -0.378945  -0.256414  0  3.628035  0
N  N95  1  0.36647630  0.79870608  0.27068031  1  -1.321195  0  -0.378981  -0.256382  0  3.62796  0
N  N96  1  0.30018728  0.27068833  0.79871234  1  -1.321244  0  -0.379036  -0.256328  0  3.627913  0
N  N97  1  0.63351101  0.20129821  0.47197959  1  -1.307504  0  -0.37894  -0.256352  0  3.628053  0
N  N98  1  0.96685725  0.52802229  0.72931570  1  -1.321649  0  -0.378946  -0.25627  0  3.62796  0
O  O99  1  0.30506600  0.66507586  0.91153674  1  -1.178209  0  -0.326474  -0.555345  0  2.22064  0
O  O100  1  0.97174909  0.24647901  0.33494008  1  -1.181195  0  -0.326377  -0.555189  0  2.220835  0
O  O101  1  0.63841396  0.08844324  0.75348865  1  -1.185485  0  -0.326588  -0.555495  0  2.221086  0
O  O102  1  0.02822078  0.75341918  0.08840831  1  -1.185049  0  -0.326378  -0.555454  0  2.221368  0
O  O103  1  0.36158521  0.91155152  0.66503725  1  -1.17929  0  -0.326513  -0.555351  0  2.220833  0
O  O104  1  0.69493621  0.33493273  0.24650860  1  -1.181553  0  -0.32662  -0.555536  0  2.221071  0
O  O105  1  0.45524518  0.68364895  0.05593690  1  -1.202987  0  -0.327363  -0.575081  0  2.196239  0
O  O106  1  0.12196232  0.37229160  0.31635766  1  -1.199869  0  -0.327209  -0.57498  0  2.196364  0
O  O107  1  0.78865831  0.94405794  0.62767854  1  -1.208343  0  -0.327145  -0.575027  0  2.196641  0
O  O108  1  0.87789910  0.62764843  0.94402862  1  -1.208548  0  -0.327085  -0.574948  0  2.196364  0
O  O109  1  0.21136186  0.05594781  0.68362913  1  -1.201765  0  -0.327127  -0.574943  0  2.196659  0
O  O110  1  0.54465978  0.31637030  0.37231446  1  -1.200022  0  -0.327145  -0.575106  0  2.196504  0
