# generated using pymatgen
data_LiH8C10N4OF3
_symmetry_space_group_name_H-M   'P 1'
_cell_length_a   8.14974909
_cell_length_b   8.59433994
_cell_length_c   8.63119958
_cell_angle_alpha   73.49368905
_cell_angle_beta   85.06943709
_cell_angle_gamma   88.20957412
_symmetry_Int_Tables_number   1
_chemical_formula_structural   LiH8C10N4OF3
_chemical_formula_sum   'Li2 H16 C20 N8 O2 F6'
_cell_volume   577.47021199
_cell_formula_units_Z   2
loop_
 _symmetry_equiv_pos_site_id
 _symmetry_equiv_pos_as_xyz
  1  'x, y, z'
loop_
 _atom_site_type_symbol
 _atom_site_label
 _atom_site_symmetry_multiplicity
 _atom_site_fract_x
 _atom_site_fract_y
 _atom_site_fract_z
 _atom_site_occupancy
 _atom_site_hle17_bader_spin_density
 _atom_site_hle17_ddec_charge
 _atom_site_hle17_ddec_spin_density
 _atom_site_hle17_ddec_sum_bond_order
 _atom_site_hle17_magmom
 _atom_site_hse06_10hf_bader_spin_density
 _atom_site_hse06_10hf_ddec_charge
 _atom_site_hse06_10hf_ddec_spin_density
 _atom_site_hse06_10hf_ddec_sum_bond_order
 _atom_site_hse06_10hf_magmom
 _atom_site_hse06_bader_spin_density
 _atom_site_hse06_ddec_charge
 _atom_site_hse06_ddec_spin_density
 _atom_site_hse06_ddec_sum_bond_order
 _atom_site_hse06_magmom
 _atom_site_pbe_bader_spin_density
 _atom_site_pbe_cm5_charge
 _atom_site_pbe_ddec_charge
 _atom_site_pbe_ddec_spin_density
 _atom_site_pbe_ddec_sum_bond_order
 _atom_site_pbe_magmom
Li  Li0  1  0.75843494  0.76176295  0.16530243  1  0  0.819885  0  0.446785  0  0  0.750885  0  0.597553  0  0  0.763413  0  0.577455  0  0  0.539994  0.742005  0  0.611832  0
Li  Li1  1  0.24156498  0.23823697  0.83470002  1  0  0.819881  0  0.446789  0  0  0.750878  0  0.597559  0  0  0.763399  0  0.577467  0  0  0.539991  0.742051  0  0.61169  0
H  H2  1  0.75045080  0.89291126  0.49410802  1  0  0.04762  0  0.943759  0  0  0.054637  0  1.020181  0  0  0.056215  0  1.01835  0  0  0.088203  0.053499  0  1.021569  0
H  H3  1  0.24954787  0.10709231  0.50589232  1  0  0.047633  0  0.943794  0  0  0.05483  0  1.020085  0  0  0.056235  0  1.018375  0  0  0.088237  0.053527  0  1.021574  0
H  H4  1  0.94644111  0.89730251  0.38087394  1  0  0.058685  0  0.937931  0  0  0.073243  0  1.000423  0  0  0.073464  0  1.000232  0  0  0.101888  0.072992  0  1.00067  0
H  H5  1  0.05356006  0.10269499  0.61912678  1  0  0.058613  0  0.937969  0  0  0.073189  0  1.000445  0  0  0.073412  0  1.000241  0  0  0.101876  0.07293  0  1.000689  0
H  H6  1  0.90522598  0.78022896  0.72087486  1  0  0.075332  0  0.96325  0  0  0.088821  0  1.031309  0  0  0.089596  0  1.031924  0  0  0.088626  0.088222  0  1.030907  0
H  H7  1  0.09477517  0.21977217  0.27912598  1  0  0.075334  0  0.963275  0  0  0.088828  0  1.031319  0  0  0.089605  0  1.031946  0  0  0.088633  0.088239  0  1.030912  0
H  H8  1  0.06092725  0.70248794  0.60521359  1  0  0.064489  0  0.951941  0  0  0.078866  0  1.016944  0  0  0.079805  0  1.017232  0  0  0.083794  0.078051  0  1.016956  0
H  H9  1  0.93907513  0.29751319  0.39478600  1  0  0.064504  0  0.951927  0  0  0.078753  0  1.017169  0  0  0.079823  0  1.017221  0  0  0.083806  0.078062  0  1.016956  0
H  H10  1  0.92440268  0.45457041  0.67841521  1  0  0.078567  0  0.953377  0  0  0.093039  0  1.014908  0  0  0.094423  0  1.014882  0  0  0.092463  0.091958  0  1.015051  0
H  H11  1  0.07559970  0.54543072  0.32158323  1  0  0.078517  0  0.953413  0  0  0.092952  0  1.014958  0  0  0.094331  0  1.014937  0  0  0.09243  0.091874  0  1.015098  0
H  H12  1  0.76018325  0.53415156  0.78296878  1  0  0.073267  0  0.951607  0  0  0.088233  0  1.015756  0  0  0.08859  0  1.017042  0  0  0.087806  0.087943  0  1.014864  0
H  H13  1  0.23982037  0.46584836  0.21703222  1  0  0.07327  0  0.951651  0  0  0.088219  0  1.015776  0  0  0.088579  0  1.017067  0  0  0.087803  0.087884  0  1.014982  0
H  H14  1  0.72708068  0.46390996  0.48372781  1  0  0.050078  0  0.950139  0  0  0.059221  0  1.024108  0  0  0.060104  0  1.022629  0  0  0.097716  0.058669  0  1.025002  0
H  H15  1  0.27291923  0.53609118  0.51627429  1  0  0.050079  0  0.950089  0  0  0.059415  0  1.023781  0  0  0.060112  0  1.022567  0  0  0.097701  0.058615  0  1.025064  0
H  H16  1  0.60157723  0.60629194  0.55752351  1  0  0.043967  0  0.937475  0  0  0.053122  0  1.010947  0  0  0.054153  0  1.00967  0  0  0.090576  0.052112  0  1.012212  0
H  H17  1  0.39842515  0.39370798  0.44247758  1  0  0.043979  0  0.937444  0  0  0.052959  0  1.011173  0  0  0.054159  0  1.009643  0  0  0.090588  0.052127  0  1.012186  0
C  C18  1  0.73087160  0.14095494  0.10765579  1  0  0.078648  0  3.893472  0  0  0.072553  0  4.155831  0  0  0.073162  0  4.174105  0  0  0.105119  0.072235  0  4.143502  0
C  C19  1  0.26912463  0.85904620  0.89234196  1  0  0.078667  0  3.893433  0  0  0.072558  0  4.155799  0  0  0.073165  0  4.174107  0  0  0.105076  0.072078  0  4.143736  0
C  C20  1  0.62018190  0.25311020  0.15457951  1  0  0.067105  0  3.88873  0  0  0.062579  0  4.152825  0  0  0.063235  0  4.17069  0  0  0.104997  0.062315  0  4.140368  0
C  C21  1  0.37981556  0.74689215  0.84541664  1  0  0.067083  0  3.888731  0  0  0.062688  0  4.152428  0  0  0.063193  0  4.170736  0  0  0.105031  0.062217  0  4.140567  0
C  C22  1  0.50632269  0.02381028  0.21464903  1  0  0.143848  0  3.84351  0  0  0.125908  0  4.130572  0  0  0.129837  0  4.146578  0  0  0.192404  0.123156  0  4.1203  0
C  C23  1  0.49367723  0.97618964  0.78535110  1  0  0.143783  0  3.843645  0  0  0.125565  0  4.131118  0  0  0.129766  0  4.146713  0  0  0.192382  0.123162  0  4.120261  0
C  C24  1  0.89035134  0.17154864  0.03039084  1  0  0.327415  0  3.745083  0  0  0.306076  0  4.024347  0  0  0.319964  0  4.038012  0  0  0.226879  0.296462  0  4.015422  0
C  C25  1  0.10964611  0.82845371  0.96960763  1  0  0.327373  0  3.744933  0  0  0.306052  0  4.024241  0  0  0.319931  0  4.037873  0  0  0.226893  0.29642  0  4.015339  0
C  C26  1  0.64933670  0.41723006  0.14149369  1  0  0.32587  0  3.734349  0  0  0.30915  0  4.003879  0  0  0.322157  0  4.018435  0  0  0.226481  0.300242  0  3.994157  0
C  C27  1  0.35065832  0.58276986  0.85850103  1  0  0.325943  0  3.734081  0  0  0.309287  0  4.003441  0  0  0.322237  0  4.018177  0  0  0.226505  0.300301  0  3.993832  0
C  C28  1  0.38281552  0.89263158  0.28614288  1  0  0.75223  0  3.638217  0  0  0.670507  0  3.984087  0  0  0.701799  0  3.957  0  0  0.320635  0.647501  0  4.005053  0
C  C29  1  0.61718565  0.10736592  0.71385900  1  0  0.752249  0  3.638252  0  0  0.669999  0  3.985345  0  0  0.701808  0  3.957055  0  0  0.320763  0.64782  0  4.004531  0
C  C30  1  0.85685384  0.81946784  0.46842952  1  0  0.09716  0  3.597402  0  0  0.042999  0  3.867679  0  0  0.049944  0  3.873278  0  0  -0.073837  0.038368  0  3.863647  0
C  C31  1  0.14314978  0.18053208  0.53157032  1  0  0.097207  0  3.597381  0  0  0.043063  0  3.867521  0  0  0.049989  0  3.873256  0  0  -0.07386  0.038419  0  3.863616  0
C  C32  1  0.92755780  0.71985020  0.62498140  1  0  -0.139573  0  3.644617  0  0  -0.176163  0  3.896162  0  0  -0.17826  0  3.909486  0  0  -0.168635  -0.17456  0  3.886941  0
C  C33  1  0.07244335  0.28015093  0.37501829  1  0  -0.139586  0  3.644626  0  0  -0.176244  0  3.896261  0  0  -0.17831  0  3.909481  0  0  -0.16866  -0.174592  0  3.886908  0
C  C34  1  0.83645676  0.55551127  0.66809169  1  0  -0.142518  0  3.6291  0  0  -0.178946  0  3.880791  0  0  -0.180755  0  3.893375  0  0  -0.169464  -0.177507  0  3.871993  0
C  C35  1  0.16354563  0.44448744  0.33190859  1  0  -0.142508  0  3.629138  0  0  -0.178838  0  3.880736  0  0  -0.180651  0  3.893346  0  0  -0.169436  -0.177467  0  3.872072  0
C  C36  1  0.72898676  0.57194721  0.52678335  1  0  0.102199  0  3.597433  0  0  0.046543  0  3.87037  0  0  0.054046  0  3.875047  0  0  -0.07185  0.041466  0  3.867178  0
C  C37  1  0.27101563  0.42805271  0.47321890  1  0  0.102198  0  3.597315  0  0  0.046529  0  3.870244  0  0  0.054037  0  3.8749  0  0  -0.07185  0.04139  0  3.867151  0
N  N38  1  0.65563362  0.99336891  0.14716589  1  0  -0.466967  0  3.069273  0  0  -0.441721  0  3.347126  0  0  -0.453143  0  3.360885  0  0  -0.386668  -0.433884  0  3.338051  0
N  N39  1  0.34436631  0.00662981  0.85283458  1  0  -0.466955  0  3.069279  0  0  -0.441713  0  3.34728  0  0  -0.453121  0  3.360902  0  0  -0.386672  -0.433785  0  3.337933  0
N  N40  1  0.02190325  0.20148748  0.96574623  1  0  -0.46499  0  2.655078  0  0  -0.438915  0  2.90482  0  0  -0.449339  0  2.911034  0  0  -0.3643  -0.432041  0  2.901024  0
N  N41  1  0.97809419  0.79851610  0.03425422  1  0  -0.464967  0  2.654953  0  0  -0.438896  0  2.90471  0  0  -0.449322  0  2.910912  0  0  -0.364328  -0.431976  0  2.900872  0
N  N42  1  0.67845133  0.55165468  0.13287733  1  0  -0.458357  0  2.647072  0  0  -0.4307  0  2.88873  0  0  -0.440849  0  2.895756  0  0  -0.358923  -0.424125  0  2.884494  0
N  N43  1  0.32154491  0.44834525  0.86711961  1  0  -0.458411  0  2.64691  0  0  -0.430744  0  2.888552  0  0  -0.4409  0  2.8956  0  0  -0.358951  -0.424001  0  2.884084  0
N  N44  1  0.47702375  0.17609466  0.22257631  1  0  -0.337655  0  2.93215  0  0  -0.326625  0  3.206738  0  0  -0.336298  0  3.220928  0  0  -0.308807  -0.319572  0  3.196785  0
N  N45  1  0.52297249  0.82390527  0.77741947  1  0  -0.337613  0  2.932245  0  0  -0.326413  0  3.206658  0  0  -0.336234  0  3.221012  0  0  -0.308793  -0.319577  0  3.19689  0
O  O46  1  0.80194234  0.70094376  0.39419033  1  0  -0.419823  0  2.259448  0  0  -0.343984  0  2.515071  0  0  -0.360454  0  2.514006  0  0  -0.301559  -0.332348  0  2.51551  0
O  O47  1  0.19805757  0.29905738  0.60581061  1  0  -0.419797  0  2.25943  0  0  -0.343992  0  2.51515  0  0  -0.360433  0  2.513998  0  0  -0.301546  -0.332291  0  2.515443  0
F  F48  1  0.37555674  0.84385111  0.45280148  1  0  -0.267327  0  1.155375  0  0  -0.224785  0  1.323465  0  0  -0.236011  0  1.309489  0  0  -0.094669  -0.213793  0  1.329417  0
F  F49  1  0.62444562  0.15615123  0.54720008  1  0  -0.267439  0  1.155453  0  0  -0.221448  0  1.319122  0  0  -0.236041  0  1.3095  0  0  -0.094715  -0.213761  0  1.329236  0
F  F50  1  0.42026909  0.75777030  0.23648543  1  0  -0.255311  0  1.192552  0  0  -0.210304  0  1.363992  0  0  -0.222469  0  1.351545  0  0  -0.07069  -0.201699  0  1.37281  0
F  F51  1  0.57973207  0.24222720  0.76351877  1  0  -0.255308  0  1.192515  0  0  -0.210697  0  1.364157  0  0  -0.222473  0  1.351496  0  0  -0.07076  -0.201982  0  1.372732  0
F  F52  1  0.22712516  0.94064995  0.24656958  1  0  -0.253831  0  1.184308  0  0  -0.205334  0  1.347452  0  0  -0.216333  0  1.333353  0  0  -0.078164  -0.197719  0  1.357483  0
F  F53  1  0.77287479  0.05934633  0.75343042  1  0  -0.253745  0  1.184308  0  0  -0.205682  0  1.347675  0  0  -0.216289  0  1.333381  0  0  -0.078156  -0.197629  0  1.357329  0
