# generated using pymatgen
data_Zn2H8(CO)9
_symmetry_space_group_name_H-M   'P 1'
_cell_length_a   6.62951792
_cell_length_b   8.83840863
_cell_length_c   11.00677768
_cell_angle_alpha   109.81299415
_cell_angle_beta   92.87119904
_cell_angle_gamma   95.95052467
_symmetry_Int_Tables_number   1
_chemical_formula_structural   Zn2H8(CO)9
_chemical_formula_sum   'Zn4 H16 C18 O18'
_cell_volume   600.97988050
_cell_formula_units_Z   2
loop_
 _symmetry_equiv_pos_site_id
 _symmetry_equiv_pos_as_xyz
  1  'x, y, z'
loop_
 _atom_site_type_symbol
 _atom_site_label
 _atom_site_symmetry_multiplicity
 _atom_site_fract_x
 _atom_site_fract_y
 _atom_site_fract_z
 _atom_site_occupancy
 _atom_site_hle17_bader_spin_density
 _atom_site_hle17_ddec_charge
 _atom_site_hle17_ddec_spin_density
 _atom_site_hle17_ddec_sum_bond_order
 _atom_site_hle17_magmom
 _atom_site_hse06_10hf_bader_spin_density
 _atom_site_hse06_10hf_ddec_charge
 _atom_site_hse06_10hf_ddec_spin_density
 _atom_site_hse06_10hf_ddec_sum_bond_order
 _atom_site_hse06_10hf_magmom
 _atom_site_hse06_bader_spin_density
 _atom_site_hse06_ddec_charge
 _atom_site_hse06_ddec_spin_density
 _atom_site_hse06_ddec_sum_bond_order
 _atom_site_hse06_magmom
 _atom_site_pbe_bader_spin_density
 _atom_site_pbe_cm5_charge
 _atom_site_pbe_ddec_charge
 _atom_site_pbe_ddec_spin_density
 _atom_site_pbe_ddec_sum_bond_order
 _atom_site_pbe_magmom
Zn  Zn0  1  0.26330208  0.67985501  0.92607785  1  0  1.217767  0  1.691993  0  0  1.053054  0  2.14528  0  0  1.103527  0  2.081891  0  0  0.673819  1.015684  0  2.189692  0
Zn  Zn1  1  0.73669778  0.32014090  0.07392212  1  0  1.217768  0  1.692041  0  0  1.053045  0  2.145328  0  0  1.103521  0  2.081936  0  0  0.673837  1.015675  0  2.189756  0
Zn  Zn2  1  0.41222143  0.03348230  0.87332429  1  0  1.194379  0  1.696452  0  0  1.037048  0  2.143574  0  0  1.087046  0  2.080433  0  0  0.652671  1.001382  0  2.187413  0
Zn  Zn3  1  0.58777650  0.96652091  0.12667591  1  0  1.194327  0  1.696699  0  0  1.036974  0  2.143887  0  0  1.086973  0  2.080738  0  0  0.652588  1.001317  0  2.187723  0
H  H4  1  0.99774776  0.40799582  0.86556277  1  0  0.416092  0  0.891252  0  0  0.382899  0  0.963065  0  0  0.39319  0  0.948516  0  0  0.291581  0.375512  0  0.973507  0
H  H5  1  0.00224904  0.59200019  0.13443260  1  0  0.416151  0  0.891173  0  0  0.382931  0  0.962989  0  0  0.393218  0  0.94845  0  0  0.291611  0.375553  0  0.973416  0
H  H6  1  0.11417547  0.43795678  0.75204304  1  0  0.413309  0  0.855932  0  0  0.388596  0  0.925679  0  0  0.397467  0  0.915606  0  0  0.304353  0.382149  0  0.93306  0
H  H7  1  0.88582020  0.56204162  0.24795390  1  0  0.413265  0  0.85602  0  0  0.388524  0  0.925824  0  0  0.397393  0  0.915762  0  0  0.304317  0.382078  0  0.933215  0
H  H8  1  0.40921940  0.82414541  0.46437030  1  0  0.122089  0  0.925349  0  0  0.130628  0  0.985226  0  0  0.135153  0  0.981297  0  0  0.112799  0.127334  0  0.988227  0
H  H9  1  0.59077516  0.17585528  0.53563181  1  0  0.122077  0  0.925412  0  0  0.130633  0  0.985253  0  0  0.135182  0  0.981295  0  0  0.112785  0.127333  0  0.988257  0
H  H10  1  0.15971556  0.23369224  0.30719524  1  0  0.112837  0  0.924023  0  0  0.124482  0  0.979571  0  0  0.128218  0  0.977352  0  0  0.10938  0.121824  0  0.981334  0
H  H11  1  0.84029410  0.76630862  0.69280459  1  0  0.11282  0  0.924032  0  0  0.12448  0  0.979569  0  0  0.128217  0  0.977346  0  0  0.109376  0.121802  0  0.981334  0
H  H12  1  0.19039389  0.39408041  0.54265219  1  0  0.095125  0  0.943361  0  0  0.107917  0  0.999843  0  0  0.111218  0  0.997804  0  0  0.105921  0.105576  0  1.001359  0
H  H13  1  0.80961789  0.60591434  0.45734866  1  0  0.095147  0  0.943367  0  0  0.107929  0  0.999852  0  0  0.111229  0  0.997816  0  0  0.105947  0.105586  0  1.001371  0
H  H14  1  0.08789662  0.15255047  0.91524517  1  0  0.406088  0  0.916672  0  0  0.37245  0  0.98585  0  0  0.384721  0  0.968208  0  0  0.283748  0.363854  0  0.998189  0
H  H15  1  0.91210092  0.84745036  0.08475252  1  0  0.406063  0  0.916678  0  0  0.372415  0  0.985879  0  0  0.384686  0  0.968237  0  0  0.283721  0.363817  0  0.998223  0
H  H16  1  0.14093818  0.14482588  0.77702590  1  0  0.428027  0  0.826511  0  0  0.40697  0  0.887139  0  0  0.416246  0  0.876524  0  0  0.309623  0.400187  0  0.895017  0
H  H17  1  0.85905767  0.85517373  0.22297139  1  0  0.428042  0  0.826463  0  0  0.406981  0  0.8871  0  0  0.416257  0  0.876484  0  0  0.309624  0.400203  0  0.894981  0
H  H18  1  0.20369052  0.96980450  0.05784539  1  0  0.42428  0  0.843799  0  0  0.402679  0  0.902834  0  0  0.411364  0  0.893339  0  0  0.300938  0.396208  0  0.909382  0
H  H19  1  0.79630647  0.03019275  0.94214944  1  0  0.4243  0  0.843743  0  0  0.402672  0  0.902807  0  0  0.411377  0  0.893306  0  0  0.300943  0.396196  0  0.909361  0
C  C20  1  0.30235274  0.61889863  0.51879469  1  0  -0.077268  0  3.762943  0  0  -0.05308  0  3.999649  0  0  -0.062136  0  4.023754  0  0  -0.01889  -0.047336  0  3.983794  0
C  C21  1  0.69764732  0.38109844  0.48120744  1  0  -0.077117  0  3.762926  0  0  -0.052861  0  3.999598  0  0  -0.061913  0  4.023707  0  0  -0.018861  -0.047136  0  3.983768  0
C  C22  1  0.33417757  0.60611445  0.29684462  1  0  -0.091266  0  3.738902  0  0  -0.077132  0  3.979121  0  0  -0.084367  0  4.000029  0  0  -0.017682  -0.072256  0  3.964883  0
C  C23  1  0.66581942  0.39389231  0.70315930  1  0  -0.091221  0  3.738751  0  0  -0.077066  0  3.978935  0  0  -0.084304  0  3.999853  0  0  -0.017587  -0.072184  0  3.96467  0
C  C24  1  0.26611187  0.43855579  0.25264208  1  0  -0.059294  0  3.715736  0  0  -0.047996  0  3.95436  0  0  -0.049595  0  3.971915  0  0  -0.005872  -0.046229  0  3.941901  0
C  C25  1  0.73389022  0.56144504  0.74735664  1  0  -0.059225  0  3.715746  0  0  -0.047915  0  3.95436  0  0  -0.049513  0  3.971917  0  0  -0.005898  -0.046148  0  3.941885  0
C  C26  1  0.36768247  0.69190164  0.20168739  1  0  0.688342  0  3.845006  0  0  0.632175  0  4.139215  0  0  0.667628  0  4.130843  0  0  0.224253  0.607858  0  4.144197  0
C  C27  1  0.63227325  0.30807225  0.79830237  1  0  0.688229  0  3.845861  0  0  0.632053  0  4.140088  0  0  0.667507  0  4.131708  0  0  0.224227  0.607737  0  4.145059  0
C  C28  1  0.35482703  0.69478868  0.42993976  1  0  -0.063943  0  3.685762  0  0  -0.099425  0  3.934522  0  0  -0.09716  0  3.952197  0  0  -0.073199  -0.101  0  3.922951  0
C  C29  1  0.64517053  0.30521210  0.57005973  1  0  -0.064067  0  3.685789  0  0  -0.099565  0  3.934513  0  0  -0.097323  0  3.952183  0  0  -0.073256  -0.101133  0  3.922939  0
C  C30  1  0.21346034  0.36312495  0.34171173  1  0  -0.063639  0  3.708564  0  0  -0.088896  0  3.968298  0  0  -0.091172  0  3.986451  0  0  -0.081334  -0.087538  0  3.955901  0
C  C31  1  0.78654935  0.63687579  0.65829261  1  0  -0.063807  0  3.708734  0  0  -0.089069  0  3.968456  0  0  -0.091345  0  3.986612  0  0  -0.081432  -0.087686  0  3.956033  0
C  C32  1  0.23035611  0.45303857  0.47342765  1  0  -0.041144  0  3.722752  0  0  -0.070346  0  3.980801  0  0  -0.06894  0  4.000328  0  0  -0.074934  -0.070825  0  3.967486  0
C  C33  1  0.76965638  0.54696113  0.52657101  1  0  -0.041149  0  3.722658  0  0  -0.070345  0  3.980676  0  0  -0.068942  0  4.000202  0  0  -0.074942  -0.070823  0  3.967357  0
C  C34  1  0.25015443  0.33266086  0.11235265  1  0  0.704987  0  3.829985  0  0  0.645844  0  4.131393  0  0  0.681462  0  4.121227  0  0  0.228527  0.621205  0  4.137892  0
C  C35  1  0.74985409  0.66734239  0.88764875  1  0  0.705118  0  3.829605  0  0  0.64591  0  4.131118  0  0  0.681527  0  4.120956  0  0  0.228619  0.621274  0  4.137616  0
C  C36  1  0.32425875  0.71188899  0.66154141  1  0  0.684381  0  3.877652  0  0  0.630254  0  4.170945  0  0  0.665389  0  4.164163  0  0  0.222078  0.606131  0  4.174962  0
C  C37  1  0.67575986  0.28813143  0.33845973  1  0  0.684298  0  3.877854  0  0  0.63002  0  4.171337  0  0  0.665152  0  4.164565  0  0  0.221983  0.605896  0  4.175364  0
O  O38  1  0.31875444  0.92876417  0.01105394  1  0  -0.988705  0  1.927316  0  0  -0.890491  0  2.225084  0  0  -0.924388  0  2.18896  0  0  -0.562259  -0.866717  0  2.24967  0
O  O39  1  0.68124445  0.07123541  0.98894524  1  0  -0.988709  0  1.927273  0  0  -0.890459  0  2.225129  0  0  -0.924388  0  2.188979  0  0  -0.56226  -0.866673  0  2.249729  0
O  O40  1  0.24183679  0.63971023  0.73264316  1  0  -0.687317  0  2.16229  0  0  -0.617606  0  2.440137  0  0  -0.647839  0  2.427837  0  0  -0.316044  -0.595229  0  2.447303  0
O  O41  1  0.75816144  0.36028426  0.26736363  1  0  -0.68724  0  2.163157  0  0  -0.617444  0  2.441006  0  0  -0.647661  0  2.428693  0  0  -0.315964  -0.595069  0  2.448179  0
O  O42  1  0.41024959  0.30241740  0.05468954  1  0  -0.653232  0  2.075458  0  0  -0.583914  0  2.349082  0  0  -0.61344  0  2.334429  0  0  -0.301622  -0.563084  0  2.358805  0
O  O43  1  0.58975139  0.69758574  0.94531435  1  0  -0.653308  0  2.075167  0  0  -0.583939  0  2.348762  0  0  -0.613464  0  2.334111  0  0  -0.301642  -0.563109  0  2.358482  0
O  O44  1  0.13624268  0.42305144  0.83573385  1  0  -0.799299  0  1.890019  0  0  -0.743511  0  2.094266  0  0  -0.764824  0  2.065782  0  0  -0.565841  -0.728896  0  2.114739  0
O  O45  1  0.86374960  0.57694451  0.16426229  1  0  -0.799318  0  1.890032  0  0  -0.743468  0  2.094373  0  0  -0.764781  0  2.065887  0  0  -0.565793  -0.728853  0  2.114841  0
O  O46  1  0.42273495  0.85322936  0.70155524  1  0  -0.6323  0  2.058861  0  0  -0.567824  0  2.323134  0  0  -0.595961  0  2.308752  0  0  -0.311601  -0.547971  0  2.332392  0
O  O47  1  0.57725797  0.14676040  0.29844459  1  0  -0.632351  0  2.058061  0  0  -0.567813  0  2.322377  0  0  -0.595963  0  2.308006  0  0  -0.311609  -0.547943  0  2.331621  0
O  O48  1  0.50468563  0.81083937  0.22988204  1  0  -0.613445  0  2.062549  0  0  -0.550558  0  2.316737  0  0  -0.577748  0  2.302624  0  0  -0.298439  -0.531549  0  2.326015  0
O  O49  1  0.49532825  0.18918935  0.77012682  1  0  -0.612996  0  2.06453  0  0  -0.550135  0  2.318727  0  0  -0.577314  0  2.304617  0  0  -0.298178  -0.531142  0  2.328005  0
O  O50  1  0.24308021  0.63665912  0.09781483  1  0  -0.673973  0  2.121095  0  0  -0.590355  0  2.370772  0  0  -0.620825  0  2.3578  0  0  -0.3094  -0.567749  0  2.378218  0
O  O51  1  0.75692534  0.36334392  0.90219370  1  0  -0.674255  0  2.120146  0  0  -0.590647  0  2.369863  0  0  -0.621125  0  2.356875  0  0  -0.309649  -0.56804  0  2.377319  0
O  O52  1  0.11183503  0.07318327  0.82686886  1  0  -0.81359  0  1.858997  0  0  -0.7559  0  2.055848  0  0  -0.777934  0  2.023975  0  0  -0.576715  -0.740354  0  2.078175  0
O  O53  1  0.88815650  0.92681745  0.17313137  1  0  -0.813585  0  1.858934  0  0  -0.755899  0  2.055811  0  0  -0.777932  0  2.023934  0  0  -0.57671  -0.740344  0  2.078139  0
O  O54  1  0.07235839  0.26605974  0.05886738  1  0  -0.649258  0  2.055204  0  0  -0.577945  0  2.296816  0  0  -0.60628  0  2.284089  0  0  -0.305811  -0.558172  0  2.305503  0
O  O55  1  0.92764522  0.73394106  0.94113319  1  0  -0.649287  0  2.055249  0  0  -0.577958  0  2.296914  0  0  -0.606292  0  2.284188  0  0  -0.305846  -0.558186  0  2.305603  0
