# generated using pymatgen
data_Co2H22C25N18
_symmetry_space_group_name_H-M   'P 1'
_cell_length_a   13.81115321
_cell_length_b   15.15908441
_cell_length_c   16.04531683
_cell_angle_alpha   90.00007720
_cell_angle_beta   90.86187516
_cell_angle_gamma   90.00071497
_symmetry_Int_Tables_number   1
_chemical_formula_structural   Co2H22C25N18
_chemical_formula_sum   'Co8 H88 C100 N72'
_cell_volume   3358.93866565
_cell_formula_units_Z   4
loop_
 _symmetry_equiv_pos_site_id
 _symmetry_equiv_pos_as_xyz
  1  'x, y, z'
loop_
 _atom_site_type_symbol
 _atom_site_label
 _atom_site_symmetry_multiplicity
 _atom_site_fract_x
 _atom_site_fract_y
 _atom_site_fract_z
 _atom_site_occupancy
 _atom_site_pbe_bader_charge
 _atom_site_pbe_bader_spin_density
 _atom_site_pbe_cm5_charge
 _atom_site_pbe_ddec_charge
 _atom_site_pbe_ddec_spin_density
 _atom_site_pbe_ddec_sum_bond_order
 _atom_site_pbe_magmom
Co  Co0  1  0.33740130  0.08367221  0.42062253  1  1.172325  2.318697  0.693909  0.559591  2.579814  2.954929  2.304
Co  Co1  1  0.83505892  0.41416838  0.07266232  1  1.197812  2.457987  0.711225  0.595227  2.745265  2.953973  2.441
Co  Co2  1  0.16554581  0.91664567  0.42099680  1  1.189183  2.450055  0.699192  0.583933  2.728854  2.918832  2.434
Co  Co3  1  0.66658641  0.57984233  0.08005888  1  1.092585  1.067846  0.722545  0.453736  1.187045  3.284242  1.059
Co  Co4  1  0.66650254  0.92016668  0.58000136  1  1.09227  1.068826  0.722392  0.453848  1.188002  3.284141  1.06
Co  Co5  1  0.16552352  0.58336865  0.92096790  1  1.189294  2.450019  0.699198  0.583767  2.728848  2.919023  2.434
Co  Co6  1  0.83500057  0.08584219  0.57264565  1  1.197636  2.458044  0.711119  0.595205  2.745444  2.954174  2.441
Co  Co7  1  0.33738583  0.41632327  0.92069071  1  1.172503  2.319831  0.693741  0.559736  2.581022  2.954218  2.305
H  H8  1  0.69788204  0.76427060  0.16392612  1  0.132688  0.001796  0.11301  0.077951  0.000557  1.049258  0.001
H  H9  1  0.19637920  0.73433926  0.33621861  1  0.138256  0.001405  0.114108  0.081109  0.000299  1.036824  0.001
H  H10  1  0.79957245  0.23344559  0.15893111  1  0.103387  0.001466  0.113892  0.079903  0.000374  1.036306  0.001
H  H11  1  0.30220796  0.27050513  0.33827492  1  0.127265  0.001433  0.114212  0.081483  0.000337  1.035286  0.001
H  H12  1  0.30221235  0.22950632  0.83833737  1  0.127595  0.001432  0.114139  0.081262  0.000336  1.0355  0.001
H  H13  1  0.79954849  0.26658714  0.65892425  1  0.10338  0.001464  0.113845  0.079912  0.000374  1.036224  0.001
H  H14  1  0.19632455  0.76573136  0.83618164  1  0.109212  0.001404  0.11413  0.081013  0.0003  1.036842  0.001
H  H15  1  0.69778936  0.73571515  0.66380970  1  0.132852  0.001796  0.112987  0.078129  0.000557  1.048976  0.001
H  H16  1  0.47934170  0.57859126  0.18084384  1  0.129098  0.002068  0.112588  0.078741  0.00084  1.054355  0.001
H  H17  1  0.97789902  0.92095263  0.32003620  1  0.132357  0.001726  0.113806  0.081574  0.000695  1.044851  0.001
H  H18  1  0.01736159  0.42071825  0.17701524  1  0.131564  0.001736  0.113899  0.080766  0.000738  1.046574  0.001
H  H19  1  0.52114896  0.08535732  0.31895813  1  0.146379  0.001548  0.113331  0.080309  0.000562  1.041823  0.001
H  H20  1  0.52119085  0.41463483  0.81904663  1  0.145165  0.001549  0.113264  0.080156  0.000563  1.041953  0.001
H  H21  1  0.01730610  0.07930090  0.67700543  1  0.132169  0.001734  0.113929  0.080769  0.000737  1.046856  0.001
H  H22  1  0.97789133  0.57908011  0.82002733  1  0.133089  0.001725  0.113815  0.081608  0.000695  1.044802  0.001
H  H23  1  0.47924326  0.92140323  0.68077376  1  0.127867  0.002071  0.112429  0.078797  0.000841  1.054285  0.001
H  H24  1  0.45924889  0.22235548  0.50224000  1  0.088276  0.002216  0.113733  0.082699  0.00064  1.014886  0.001
H  H25  1  0.95850288  0.27418242  0.99434291  1  0.098085  0.002372  0.115982  0.087214  0.000826  1.011362  0.001
H  H26  1  0.04241217  0.77787411  0.50020454  1  0.099394  0.002271  0.114273  0.08413  0.000762  1.015436  0.001
H  H27  1  0.54455920  0.71617040  0.00957048  1  0.128336  0.001053  0.119985  0.090669  0.000502  1.016455  0.0
H  H28  1  0.54446135  0.78390374  0.50936871  1  0.128029  0.001058  0.119898  0.090594  0.000505  1.016302  0.0
H  H29  1  0.04239862  0.72214412  0.00016316  1  0.099051  0.002271  0.114235  0.084099  0.000762  1.015756  0.001
H  H30  1  0.95845538  0.22579391  0.49430505  1  0.09915  0.002371  0.11592  0.087041  0.000825  1.011071  0.001
H  H31  1  0.45929019  0.27767442  0.00233990  1  0.089348  0.002214  0.11386  0.083001  0.000639  1.014833  0.001
H  H32  1  0.60357949  0.87597277  0.24425349  1  0.10703  0.001726  0.111255  0.125597  0.00094  0.997683  0.001
H  H33  1  0.09967266  0.62455365  0.25332295  1  0.135397  0.001392  0.112632  0.126931  0.000801  0.99545  0.0
H  H34  1  0.89507610  0.12424105  0.24369988  1  0.130689  0.001636  0.111716  0.125904  0.000949  0.998741  0.0
H  H35  1  0.39448641  0.38198726  0.25634228  1  0.124216  0.001507  0.111819  0.126461  0.000861  0.994456  0.0
H  H36  1  0.39445839  0.11804293  0.75634953  1  0.124806  0.001506  0.111872  0.126467  0.000861  0.99473  0.0
H  H37  1  0.89507443  0.37579619  0.74367087  1  0.130213  0.001635  0.11177  0.126032  0.000948  0.99852  0.0
H  H38  1  0.09958715  0.87551508  0.75331147  1  0.136189  0.001391  0.11264  0.126715  0.000801  0.995034  0.0
H  H39  1  0.60350016  0.62401201  0.74418064  1  0.10794  0.001724  0.111247  0.125394  0.000939  0.997489  0.001
H  H40  1  0.44032478  0.35324791  0.59533220  1  0.086832  0.001104  0.106204  0.115929  0.000501  0.992733  0.0
H  H41  1  0.93875951  0.14030014  0.90456295  1  0.092845  0.001053  0.107178  0.116915  0.000471  0.991583  0.0
H  H42  1  0.06067444  0.64627003  0.59319017  1  0.060846  0.001073  0.105893  0.115494  0.00048  0.993388  0.0
H  H43  1  0.56242042  0.84665926  0.91715684  1  0.076942  0.000167  0.109226  0.120076  0.000101  0.987438  0.0
H  H44  1  0.56234323  0.65338204  0.41698407  1  0.075662  0.000169  0.109024  0.119739  0.000101  0.987649  0.0
H  H45  1  0.06064433  0.85370501  0.09320307  1  0.060882  0.001072  0.105873  0.115439  0.00048  0.993264  0.0
H  H46  1  0.93874982  0.35966461  0.40449996  1  0.093031  0.001052  0.107255  0.116907  0.00047  0.991432  0.0
H  H47  1  0.44040637  0.14676608  0.09543904  1  0.086632  0.001104  0.106089  0.115893  0.0005  0.992832  0.0
H  H48  1  0.37482963  0.68232257  0.26017884  1  0.096078  0.001184  0.111869  0.123314  0.00054  0.99905  0.001
H  H49  1  0.87126959  0.81939569  0.23834325  1  0.104915  0.001124  0.11207  0.124328  0.000563  0.996372  0.0
H  H50  1  0.12301362  0.31934736  0.26019073  1  0.078903  0.001136  0.112322  0.123937  0.00054  0.997731  0.001
H  H51  1  0.62390605  0.18894195  0.23874193  1  0.112355  0.00099  0.112135  0.123647  0.000479  1.000477  0.0
H  H52  1  0.62390982  0.31107172  0.73877332  1  0.112356  0.000991  0.112069  0.123515  0.000479  1.000781  0.0
H  H53  1  0.12299627  0.18065993  0.76016198  1  0.083753  0.00113  0.112223  0.123953  0.00054  0.997323  0.001
H  H54  1  0.87120419  0.68062119  0.73836779  1  0.104489  0.001123  0.11218  0.124373  0.000562  0.996539  0.0
H  H55  1  0.37478018  0.81769259  0.76015880  1  0.095499  0.001185  0.111879  0.123329  0.00054  0.999074  0.001
H  H56  1  0.33151384  0.42908572  0.69795358  1  0.044571  -0.000411  0.097367  0.103477  -0.00047  0.992466  0.0
H  H57  1  0.82818802  0.05952345  0.80457590  1  0.061991  -0.000276  0.097792  0.105249  -0.000339  0.985703  0.0
H  H58  1  0.17004624  0.56809582  0.69635235  1  0.05132  -0.000372  0.097831  0.10564  -0.000439  0.988984  0.0
H  H59  1  0.66857300  0.91870701  0.80896155  1  0.046942  -0.000277  0.098545  0.106318  -0.000272  0.986537  0.0
H  H60  1  0.66856750  0.58127070  0.30890009  1  0.047202  -0.000277  0.098562  0.106361  -0.000272  0.986928  0.0
H  H61  1  0.16998856  0.93185687  0.19640258  1  0.051474  -0.000372  0.097822  0.10551  -0.00044  0.988501  0.0
H  H62  1  0.82821237  0.44048409  0.30455562  1  0.061474  -0.000276  0.097976  0.105677  -0.000339  0.98564  0.0
H  H63  1  0.33156859  0.07084999  0.19800717  1  0.043251  -0.000412  0.097436  0.103252  -0.000471  0.992562  0.0
H  H64  1  0.20578704  0.40654669  0.69662423  1  0.050027  -0.000143  0.09664  0.099211  -0.00017  1.019527  0.0
H  H65  1  0.70196794  0.08017173  0.80467253  1  0.037813  -0.000148  0.09571  0.097541  -0.000158  1.016782  0.0
H  H66  1  0.29601982  0.58944348  0.69700956  1  0.033047  -0.000155  0.096479  0.098273  -0.000169  1.023968  0.0
H  H67  1  0.79447761  0.89747163  0.80946683  1  0.029474  -0.000162  0.096399  0.099631  -0.000153  1.014759  0.0
H  H68  1  0.79446184  0.60252535  0.30944023  1  0.029717  -0.000162  0.096309  0.099634  -0.000153  1.014679  0.0
H  H69  1  0.29596803  0.91046910  0.19710404  1  0.032695  -0.000155  0.096372  0.098333  -0.00017  1.023918  0.0
H  H70  1  0.70199381  0.41983766  0.30460922  1  0.036298  -0.000149  0.095614  0.09726  -0.000159  1.017388  0.0
H  H71  1  0.20584751  0.09341264  0.19671715  1  0.049831  -0.000143  0.096605  0.099183  -0.000171  1.019414  0.0
H  H72  1  0.31217946  0.50961148  0.56128972  1  0.027164  6.1e-05  0.088007  0.078804  4.6e-05  0.98233  0.0
H  H73  1  0.81402069  0.98226390  0.94306200  1  0.019405  3.8e-05  0.089081  0.081194  2.9e-05  0.979693  0.0
H  H74  1  0.18678244  0.48628217  0.56065554  1  0.016617  5.3e-05  0.088289  0.079593  4.1e-05  0.980878  0.0
H  H75  1  0.68838715  0.00419157  0.94269928  1  0.017227  4.4e-05  0.088935  0.080696  3.5e-05  0.981246  0.0
H  H76  1  0.68835473  0.49578752  0.44264256  1  0.017707  4.4e-05  0.088947  0.080801  3.5e-05  0.981126  0.0
H  H77  1  0.18683227  0.01367740  0.06073271  1  0.017037  5.3e-05  0.088439  0.080049  4.1e-05  0.980554  0.0
H  H78  1  0.81398279  0.51772888  0.44303764  1  0.020518  3.8e-05  0.089053  0.08107  2.9e-05  0.979873  0.0
H  H79  1  0.31220405  0.99029450  0.06138356  1  0.027533  6.1e-05  0.088136  0.079068  4.6e-05  0.982107  0.0
H  H80  1  0.13445044  0.29502497  0.60088800  1  0.074676  0.000995  0.103964  0.114221  0.000435  1.009453  0.0
H  H81  1  0.63146484  0.19288928  0.89871976  1  0.056456  0.001121  0.103346  0.113132  0.000478  1.011713  0.0
H  H82  1  0.36792304  0.69842996  0.60087422  1  0.095555  0.001086  0.103179  0.113083  0.00048  1.011979  0.0
H  H83  1  0.86695500  0.78525359  0.90402046  1  0.074706  9.7e-05  0.105539  0.11607  5.4e-05  1.009896  0.0
H  H84  1  0.86690205  0.71470807  0.40403864  1  0.07461  9.7e-05  0.105647  0.116221  5.4e-05  1.009764  0.0
H  H85  1  0.36788272  0.80149188  0.10095867  1  0.089576  0.001092  0.103172  0.112869  0.00048  1.011991  0.0
H  H86  1  0.63144647  0.30712009  0.39865851  1  0.055787  0.00112  0.103284  0.11299  0.000478  1.011754  0.0
H  H87  1  0.13450328  0.20483776  0.10092991  1  0.074853  0.000995  0.104061  0.11417  0.000436  1.009816  0.0
H  H88  1  0.16620181  0.16679240  0.50807640  1  0.110919  0.00213  0.116606  0.085862  0.000708  1.009659  0.001
H  H89  1  0.66436761  0.32478009  0.98761010  1  0.10609  0.002029  0.115467  0.083514  0.00056  1.009462  0.001
H  H90  1  0.33666496  0.82769741  0.50803696  1  0.103281  0.002097  0.115505  0.084457  0.000669  1.005794  0.001
H  H91  1  0.83663764  0.65634728  0.99509536  1  0.125689  0.000584  0.122323  0.093083  0.000116  1.009625  0.0
H  H92  1  0.83657458  0.84362670  0.49508249  1  0.126681  0.000585  0.122352  0.093017  0.000116  1.009777  0.0
H  H93  1  0.33663603  0.67228265  0.00805213  1  0.103706  0.002096  0.115536  0.084389  0.000669  1.005883  0.001
H  H94  1  0.66431135  0.17522781  0.48755966  1  0.105726  0.002027  0.115401  0.083526  0.000559  1.009334  0.001
H  H95  1  0.16618929  0.33311211  0.00814549  1  0.111492  0.00213  0.116415  0.085641  0.000709  1.010227  0.001
C  C96  1  0.41962403  0.85005595  0.30260296  1  0.933867  0.007905  0.202294  0.202733  0.004501  4.100462  0.007
C  C97  1  0.91424893  0.65008357  0.19512181  1  0.947335  0.004373  0.205411  0.20308  0.002085  4.096679  0.005
C  C98  1  0.08070038  0.15115097  0.30226944  1  0.91866  0.00901  0.202927  0.202328  0.005015  4.102194  0.009
C  C99  1  0.58003240  0.35624399  0.19570070  1  0.930545  0.003188  0.205816  0.204219  0.001376  4.082746  0.004
C  C100  1  0.58000030  0.14377901  0.69569861  1  0.929686  0.003192  0.205669  0.203789  0.001378  4.083888  0.004
C  C101  1  0.08070635  0.34886447  0.80224543  1  0.915543  0.009004  0.202926  0.202641  0.005012  4.102203  0.009
C  C102  1  0.91417533  0.84994033  0.69510414  1  0.947265  0.004375  0.205153  0.203165  0.002088  4.096983  0.005
C  C103  1  0.41956869  0.64996046  0.80258390  1  0.935235  0.007911  0.202363  0.20262  0.004506  4.100921  0.007
C  C104  1  0.62558562  0.74930096  0.18606455  1  0.438096  -0.002724  0.038315  0.081828  -0.003686  3.962192  -0.002
C  C105  1  0.12348368  0.74986087  0.31389723  1  0.442703  -0.007947  0.041431  0.089652  -0.009129  3.948118  -0.005
C  C106  1  0.87200173  0.24921874  0.18214015  1  0.465657  -0.007527  0.040562  0.089404  -0.00872  3.952536  -0.004
C  C107  1  0.37438522  0.25569328  0.31561964  1  0.454112  -0.00673  0.042123  0.090116  -0.00783  3.942952  -0.004
C  C108  1  0.37438386  0.24431566  0.81566401  1  0.452681  -0.006731  0.042235  0.09052  -0.007832  3.942479  -0.004
C  C109  1  0.87197332  0.25080495  0.68214508  1  0.46848  -0.007516  0.040566  0.089376  -0.008708  3.952432  -0.004
C  C110  1  0.12341883  0.75019767  0.81387699  1  0.472761  -0.007935  0.041531  0.089582  -0.009117  3.946958  -0.005
C  C111  1  0.62550429  0.75069059  0.68598002  1  0.437659  -0.002743  0.038675  0.081769  -0.003697  3.961367  -0.002
C  C112  1  0.50395341  0.64515941  0.19572945  1  0.475177  -0.002342  0.038983  0.077882  -0.003236  3.966082  -0.002
C  C113  1  0.00195331  0.85449248  0.30462539  1  0.505794  -0.006368  0.040579  0.082404  -0.007151  3.953537  -0.004
C  C114  1  0.99323961  0.35432671  0.19248848  1  0.485932  -0.006026  0.040223  0.083311  -0.006877  3.956893  -0.004
C  C115  1  0.49603887  0.15196739  0.30468393  1  0.435569  -0.005352  0.04044  0.08169  -0.006095  3.958097  -0.003
C  C116  1  0.49605506  0.34803435  0.80475285  1  0.437001  -0.00535  0.040405  0.081549  -0.006096  3.957529  -0.003
C  C117  1  0.99321462  0.14569641  0.69246774  1  0.485174  -0.006026  0.040326  0.083489  -0.006876  3.957375  -0.004
C  C118  1  0.00190952  0.64554882  0.80460889  1  0.504936  -0.006349  0.040796  0.082423  -0.007133  3.954062  -0.004
C  C119  1  0.50386928  0.85483603  0.69566062  1  0.4752  -0.002351  0.039184  0.07779  -0.003246  3.96597  -0.002
C  C120  1  0.38836891  0.24198227  0.52478021  1  0.454773  -0.006935  0.041347  0.090439  -0.008345  3.970198  -0.005
C  C121  1  0.88724378  0.25267542  0.97246268  1  0.490868  -0.005864  0.044067  0.095189  -0.00711  3.957854  -0.004
C  C122  1  0.11336504  0.75673407  0.52310990  1  0.521204  -0.006695  0.042211  0.09323  -0.008006  3.964456  -0.004
C  C123  1  0.61492861  0.73489494  0.98572592  1  0.420797  -0.005588  0.044706  0.086319  -0.00643  3.936671  -0.004
C  C124  1  0.61484660  0.76514970  0.48557383  1  0.421737  -0.005584  0.04496  0.086892  -0.006428  3.936887  -0.004
C  C125  1  0.11334696  0.74327049  0.02309718  1  0.521278  -0.006696  0.04232  0.093095  -0.008004  3.965088  -0.004
C  C126  1  0.88720512  0.24730336  0.47240870  1  0.491517  -0.005875  0.043931  0.095242  -0.007116  3.956419  -0.004
C  C127  1  0.38840608  0.25799606  0.02485201  1  0.455621  -0.006943  0.041231  0.089869  -0.008351  3.97048  -0.005
C  C128  1  0.57318217  0.81099637  0.23089695  1  0.023763  0.006431  -0.084583  -0.167455  0.003452  3.936213  0.005
C  C129  1  0.06965833  0.68926584  0.26757219  1  -0.083741  0.005953  -0.083066  -0.165552  0.002847  3.932646  0.005
C  C130  1  0.92511975  0.18891728  0.22930819  1  -0.027116  0.007225  -0.08364  -0.166594  0.003558  3.932017  0.006
C  C131  1  0.42605935  0.31748488  0.26984902  1  -0.028743  0.00554  -0.082731  -0.165591  0.002742  3.925963  0.004
C  C132  1  0.42604454  0.18253712  0.76985955  1  -0.028795  0.00554  -0.082783  -0.165877  0.002742  3.925916  0.004
C  C133  1  0.92511235  0.31110577  0.72930399  1  -0.02874  0.007221  -0.083798  -0.166698  0.003556  3.931814  0.006
C  C134  1  0.06957346  0.81079465  0.76756936  1  -0.086419  0.005951  -0.083251  -0.165131  0.002846  3.931508  0.005
C  C135  1  0.57311983  0.68900256  0.73084424  1  0.025302  0.006437  -0.084637  -0.167079  0.003454  3.935629  0.005
C  C136  1  0.48087616  0.78802680  0.25873300  1  -0.063714  -0.005085  0.010279  0.069701  -0.005747  4.02975  -0.003
C  C137  1  0.97636009  0.71252902  0.23958171  1  0.096  -0.011693  0.010504  0.06738  -0.012979  4.024434  -0.008
C  C138  1  0.01799595  0.21267607  0.25776717  1  -0.010674  -0.011171  0.011168  0.071204  -0.012413  4.026301  -0.007
C  C139  1  0.51836477  0.29519578  0.24124072  1  -0.00484  -0.010097  0.01113  0.068326  -0.011212  4.013208  -0.007
C  C140  1  0.51834804  0.20483185  0.74124504  1  -0.003608  -0.010096  0.010906  0.068612  -0.01121  4.013604  -0.007
C  C141  1  0.01800399  0.28734123  0.75774309  1  -0.007791  -0.011161  0.011086  0.07083  -0.012404  4.026567  -0.007
C  C142  1  0.97628076  0.78751149  0.73958573  1  0.096933  -0.01167  0.010597  0.067229  -0.012955  4.024279  -0.008
C  C143  1  0.48082371  0.71198101  0.75869971  1  -0.065239  -0.005099  0.010275  0.06952  -0.005762  4.02967  -0.003
C  C144  1  0.37717012  0.31439954  0.57657790  1  0.017182  0.004412  -0.090032  -0.191646  0.002085  3.96563  0.003
C  C145  1  0.87548901  0.17857981  0.92250633  1  -0.047933  0.004936  -0.088289  -0.191808  0.00239  3.959129  0.004
C  C146  1  0.12422194  0.68398572  0.57490521  1  -0.053902  0.004941  -0.08957  -0.192915  0.002361  3.962571  0.004
C  C147  1  0.62590229  0.80741848  0.93415437  1  0.013846  0.001901  -0.087166  -0.190904  0.000603  3.963377  0.001
C  C148  1  0.62583248  0.69261434  0.43401847  1  0.01617  0.001901  -0.087078  -0.19068  0.000603  3.96388  0.001
C  C149  1  0.12419143  0.81598607  0.07493115  1  -0.06383  0.004939  -0.089485  -0.192595  0.00236  3.962694  0.004
C  C150  1  0.87546221  0.32140997  0.42245128  1  -0.048925  0.00494  -0.088192  -0.191461  0.002391  3.95839  0.004
C  C151  1  0.37722448  0.18557675  0.07665782  1  0.014742  0.004419  -0.090106  -0.191758  0.002088  3.965476  0.003
C  C152  1  0.44660146  0.70270415  0.24062728  1  -0.025629  0.005633  -0.085263  -0.172612  0.002941  3.955714  0.004
C  C153  1  0.94323812  0.79790538  0.25826476  1  -0.142583  0.006045  -0.085788  -0.174887  0.002899  3.95439  0.005
C  C154  1  0.05128261  0.29805409  0.23948168  1  -0.04388  0.006886  -0.084737  -0.173285  0.003325  3.956634  0.005
C  C155  1  0.55261354  0.20965191  0.25916542  1  -0.039989  0.004627  -0.084456  -0.172742  0.002215  3.952315  0.004
C  C156  1  0.55261560  0.29036559  0.75919864  1  -0.040428  0.004629  -0.084227  -0.172537  0.002217  3.952421  0.004
C  C157  1  0.05127710  0.20196422  0.73944992  1  -0.048244  0.006886  -0.084588  -0.17318  0.003323  3.956752  0.005
C  C158  1  0.94317139  0.70212555  0.75827000  1  -0.142661  0.006037  -0.086051  -0.175159  0.002896  3.954993  0.005
C  C159  1  0.44654444  0.79730786  0.74060093  1  -0.025064  0.005638  -0.085356  -0.172678  0.002944  3.955706  0.004
C  C160  1  0.26860500  0.41678643  0.65677189  1  -0.002285  -0.000262  -0.161756  -0.203761  -0.000644  3.938652  0.0
C  C161  1  0.76612725  0.07191965  0.84512992  1  -0.021744  -0.000121  -0.161125  -0.203166  -0.000477  3.933367  0.0
C  C162  1  0.23255639  0.57970371  0.65616086  1  0.001611  -0.00022  -0.162046  -0.206068  -0.00061  3.939304  0.0
C  C163  1  0.73219831  0.90833673  0.84987298  1  -0.00364  -0.000174  -0.161067  -0.204904  -0.000458  3.937292  0.0
C  C164  1  0.73217069  0.59165893  0.34983320  1  -0.005203  -0.000174  -0.161205  -0.205383  -0.000458  3.937663  0.0
C  C165  1  0.23252913  0.92023974  0.15623059  1  0.002748  -0.00022  -0.161907  -0.205533  -0.00061  3.938415  0.0
C  C166  1  0.76613660  0.42807074  0.34506963  1  -0.011845  -0.000119  -0.161223  -0.203424  -0.000478  3.933783  0.0
C  C167  1  0.26864625  0.08315246  0.15683538  1  -0.001879  -0.000263  -0.161706  -0.203594  -0.000645  3.93803  0.0
C  C168  1  0.24989048  0.49808209  0.60201240  1  -0.018392  -0.001413  -0.156105  -0.119433  -0.001573  3.934045  -0.001
C  C169  1  0.75035068  0.99180959  0.90184427  1  0.014423  -0.00114  -0.155471  -0.121888  -0.001276  3.932561  -0.001
C  C170  1  0.75032620  0.50816920  0.40179568  1  0.005237  -0.001143  -0.155458  -0.121704  -0.001277  3.932784  -0.001
C  C171  1  0.24992141  0.00185716  0.10209815  1  -0.019661  -0.001413  -0.156548  -0.120606  -0.001573  3.934434  -0.001
C  C172  1  0.20780187  0.28209979  0.57976225  1  -0.017274  0.00487  -0.08857  -0.188507  0.002358  3.946416  0.004
C  C173  1  0.70536051  0.20778046  0.91906814  1  -0.045101  0.005048  -0.089439  -0.190649  0.002479  3.951612  0.004
C  C174  1  0.29438487  0.71292314  0.57924738  1  -0.155387  0.005124  -0.089979  -0.191081  0.002443  3.954334  0.004
C  C175  1  0.79412614  0.77336527  0.92678558  1  -0.049613  0.002222  -0.087756  -0.187049  0.000864  3.944805  0.002
C  C176  1  0.79408097  0.72661934  0.42676395  1  -0.049942  0.002222  -0.087929  -0.187268  0.000865  3.945203  0.002
C  C177  1  0.29434778  0.78702026  0.07931063  1  -0.151008  0.00512  -0.089933  -0.190628  0.002443  3.954027  0.004
C  C178  1  0.70533757  0.29222319  0.41900310  1  -0.045835  0.005051  -0.0896  -0.190484  0.00248  3.951221  0.004
C  C179  1  0.20784054  0.21783433  0.07982029  1  -0.013434  0.004879  -0.088916  -0.188613  0.002359  3.947288  0.004
C  C180  1  0.22480357  0.21055925  0.52798626  1  0.421664  -0.006992  0.043596  0.094833  -0.008047  3.954521  -0.005
C  C181  1  0.72298007  0.28128042  0.96867449  1  0.494494  -0.006086  0.04286  0.093056  -0.00703  3.962204  -0.004
C  C182  1  0.27767178  0.78492669  0.52754782  1  0.538514  -0.006723  0.042515  0.09362  -0.007667  3.961755  -0.004
C  C183  1  0.77808384  0.70118671  0.97801607  1  0.446247  -0.00624  0.046625  0.088069  -0.006992  3.927457  -0.004
C  C184  1  0.77802634  0.79880900  0.47796328  1  0.447641  -0.006239  0.046845  0.088734  -0.006993  3.927559  -0.004
C  C185  1  0.27764495  0.71504942  0.02757178  1  0.539965  -0.006727  0.042616  0.093708  -0.007669  3.962244  -0.004
C  C186  1  0.72293883  0.21872087  0.46861797  1  0.494199  -0.006084  0.043276  0.093329  -0.007031  3.961102  -0.004
C  C187  1  0.22482381  0.28938620  0.02805986  1  0.422965  -0.006994  0.043965  0.095029  -0.008044  3.955004  -0.005
C  C188  1  0.28488698  0.33636012  0.60500249  1  -0.037035  -0.010015  0.011136  0.171061  -0.01096  3.960169  -0.006
C  C189  1  0.78260996  0.15413187  0.89496956  1  -0.021187  -0.009072  0.012136  0.17348  -0.009947  3.954417  -0.006
C  C190  1  0.21666505  0.66025726  0.60403467  1  0.013074  -0.010122  0.011623  0.173777  -0.011089  3.956959  -0.007
C  C191  1  0.71727646  0.82873689  0.90336496  1  -0.004661  -0.007698  0.013306  0.174016  -0.008379  3.954696  -0.005
C  C192  1  0.71723390  0.67126263  0.40331397  1  -0.007869  -0.007699  0.013541  0.174193  -0.00838  3.954981  -0.005
C  C193  1  0.21663363  0.83969649  0.10408495  1  0.02262  -0.010124  0.01136  0.173189  -0.011091  3.956991  -0.007
C  C194  1  0.78259789  0.34586406  0.39490591  1  -0.022067  -0.009074  0.01203  0.173231  -0.00995  3.954791  -0.006
C  C195  1  0.28493219  0.16358613  0.10506361  1  -0.042898  -0.010026  0.011201  0.171382  -0.010966  3.959292  -0.006
N  N196  1  0.36032257  0.96657324  0.35457344  1  -0.192945  0.039912  -0.11217  -0.050482  0.022617  3.533404  0.039
N  N197  1  0.85682303  0.53178450  0.14303282  1  -0.189498  0.043495  -0.10818  -0.060839  0.025334  3.503048  0.042
N  N198  1  0.14159839  0.03431911  0.35365574  1  -0.184123  0.048826  -0.110471  -0.054052  0.027719  3.526895  0.046
N  N199  1  0.64209727  0.46934018  0.13956298  1  -0.204493  -0.007052  -0.11947  -0.007177  -0.007747  3.59242  -0.004
N  N200  1  0.64201982  0.03068609  0.63951869  1  -0.204366  -0.007029  -0.119256  -0.006495  -0.007722  3.591478  -0.004
N  N201  1  0.14160814  0.46568985  0.85363440  1  -0.183675  0.048831  -0.110379  -0.054002  0.027722  3.527161  0.046
N  N202  1  0.85673438  0.96822745  0.64301521  1  -0.188671  0.043488  -0.107564  -0.060124  0.025333  3.503311  0.042
N  N203  1  0.36030796  0.53344322  0.85459002  1  -0.195636  0.03999  -0.112228  -0.050838  0.022655  3.533408  0.039
N  N204  1  0.43867181  0.93655536  0.31646935  1  -0.636646  -0.000589  -0.21168  -0.257473  -0.00352  3.173164  -0.001
N  N205  1  0.93509770  0.56406001  0.18127114  1  -0.623941  -0.005036  -0.205832  -0.247285  -0.006959  3.186244  -0.004
N  N206  1  0.06240069  0.06446359  0.31514041  1  -0.634058  -0.000911  -0.2096  -0.253476  -0.004073  3.18185  -0.002
N  N207  1  0.56311933  0.44257825  0.17933269  1  -0.627008  -0.004109  -0.203653  -0.251168  -0.00554  3.155276  -0.004
N  N208  1  0.56305468  0.05745509  0.67930223  1  -0.627469  -0.004107  -0.203576  -0.251362  -0.005541  3.155128  -0.004
N  N209  1  0.06241923  0.43555497  0.81509478  1  -0.633263  -0.000912  -0.209748  -0.253724  -0.004074  3.182262  -0.002
N  N210  1  0.93499934  0.93596939  0.68126963  1  -0.62511  -0.005035  -0.206106  -0.247724  -0.006959  3.187611  -0.004
N  N211  1  0.43864521  0.56347250  0.81647529  1  -0.635151  -0.000553  -0.211536  -0.257141  -0.003486  3.17367  -0.001
N  N212  1  0.59248669  0.66755110  0.16827053  1  -1.222653  0.07681  -0.315622  -0.223661  0.04184  3.529685  0.067
N  N213  1  0.09080714  0.83117563  0.33333790  1  -1.230914  0.063059  -0.320787  -0.232582  0.03509  3.546307  0.055
N  N214  1  0.90506285  0.33036366  0.16274942  1  -1.225132  0.067249  -0.32538  -0.234866  0.037555  3.557385  0.056
N  N215  1  0.40803405  0.17415031  0.33382345  1  -1.220434  0.061391  -0.316815  -0.231872  0.03432  3.533394  0.054
N  N216  1  0.40805288  0.32584519  0.83389734  1  -1.220343  0.06135  -0.316764  -0.231841  0.034303  3.53309  0.054
N  N217  1  0.90503249  0.16965775  0.66274052  1  -1.226149  0.067224  -0.32531  -0.234882  0.037542  3.556965  0.056
N  N218  1  0.09076999  0.66887068  0.83329904  1  -1.229571  0.063026  -0.320834  -0.232315  0.035073  3.545262  0.055
N  N219  1  0.59239267  0.83243807  0.66818166  1  -1.2232  0.07681  -0.315866  -0.223622  0.041837  3.529535  0.067
N  N220  1  0.29631166  0.90054646  0.36301238  1  -0.207231  0.049151  -0.119361  -0.04802  0.029293  3.588333  0.045
N  N221  1  0.79063070  0.59624381  0.13462128  1  -0.20292  0.000895  -0.130287  -0.008615  -0.00037  3.664434  0.003
N  N222  1  0.20552410  0.10041318  0.36333421  1  -0.199211  0.046755  -0.121372  -0.046178  0.027975  3.599554  0.043
N  N223  1  0.70419868  0.40177049  0.13236443  1  -0.193915  0.048946  -0.114147  -0.050783  0.029302  3.579231  0.046
N  N224  1  0.70413816  0.09824922  0.63232968  1  -0.194384  0.04895  -0.114065  -0.051028  0.029305  3.579275  0.046
N  N225  1  0.20551585  0.39958663  0.86334383  1  -0.199752  0.04678  -0.121322  -0.045755  0.027982  3.599012  0.043
N  N226  1  0.79055121  0.90375945  0.63459243  1  -0.20285  0.000914  -0.130386  -0.008908  -0.000354  3.663891  0.003
N  N227  1  0.29627746  0.59945476  0.86300523  1  -0.205777  0.049179  -0.119049  -0.047544  0.02931  3.588443  0.045
N  N228  1  0.33200448  0.82697360  0.33153738  1  -0.641239  -0.00234  -0.208477  -0.258882  -0.004724  3.250257  -0.001
N  N229  1  0.82504704  0.67105792  0.16602375  1  -0.657365  -0.005172  -0.205269  -0.256631  -0.006501  3.235912  -0.004
N  N230  1  0.16886575  0.17431187  0.33219540  1  -0.652013  -0.002937  -0.208227  -0.257926  -0.005595  3.242721  -0.002
N  N231  1  0.66692352  0.33052985  0.16655589  1  -0.626464  -0.00542  -0.203355  -0.250917  -0.006999  3.247348  -0.004
N  N232  1  0.66688660  0.16948685  0.66654197  1  -0.625212  -0.005419  -0.203481  -0.250886  -0.006997  3.247802  -0.004
N  N233  1  0.16885572  0.32569209  0.83219868  1  -0.652953  -0.002929  -0.208159  -0.258257  -0.005589  3.242876  -0.002
N  N234  1  0.82497177  0.82895502  0.66601415  1  -0.658048  -0.005166  -0.205204  -0.256623  -0.006496  3.236145  -0.004
N  N235  1  0.33193993  0.67302799  0.83150520  1  -0.64186  -0.002335  -0.208922  -0.259121  -0.004722  3.250022  -0.001
N  N236  1  0.31363114  0.19081250  0.50001876  1  -1.210085  0.05339  -0.329031  -0.223442  0.029893  3.611025  0.048
N  N237  1  0.81237556  0.30344522  0.99579562  1  -1.23168  0.060328  -0.32785  -0.227365  0.033492  3.604538  0.054
N  N238  1  0.18865318  0.80664119  0.49911907  1  -1.234051  0.05854  -0.327354  -0.225807  0.032648  3.600061  0.052
N  N239  1  0.68972785  0.68198051  0.00804056  1  -1.175304  -0.002346  -0.327832  -0.165898  -0.002241  3.635672  0.0
N  N240  1  0.68965961  0.81803856  0.50794061  1  -1.17454  -0.002306  -0.328115  -0.166963  -0.002208  3.636287  0.0
N  N241  1  0.18863469  0.69336427  0.99910654  1  -1.234008  0.058533  -0.3274  -0.22571  0.032644  3.600385  0.052
N  N242  1  0.81233199  0.19653734  0.49575587  1  -1.2296  0.06031  -0.327964  -0.227674  0.033494  3.603794  0.054
N  N243  1  0.31364802  0.30915702  0.00009236  1  -1.208362  0.053444  -0.328911  -0.223107  0.029911  3.609872  0.048
N  N244  1  0.25081484  0.00062860  0.64816364  1  0.081106  0.190062  -0.194582  -0.367733  0.097546  2.458091  0.134
N  N245  1  0.75112004  0.49614967  0.84495838  1  0.101889  0.202111  -0.196965  -0.372218  0.104006  2.45272  0.142
N  N246  1  0.75119047  0.00382406  0.34492348  1  0.102518  0.202078  -0.197031  -0.372336  0.103984  2.452797  0.142
N  N247  1  0.25076414  0.49939253  0.14816352  1  0.080934  0.19003  -0.194515  -0.36776  0.097537  2.458369  0.134
N  N248  1  0.25159598  0.99956157  0.57542950  1  -0.44679  0.024005  0.093067  0.432375  0.003059  4.41611  0.003
N  N249  1  0.75392909  0.49414698  0.91777421  1  -0.439421  0.026739  0.091773  0.431831  0.004234  4.411772  0.004
N  N250  1  0.75393367  0.00584272  0.41774013  1  -0.44164  0.026778  0.091835  0.432068  0.004231  4.411756  0.004
N  N251  1  0.25155010  0.50044729  0.07542999  1  -0.446792  0.024002  0.093047  0.432637  0.003054  4.416105  0.003
N  N252  1  0.46405239  0.06587177  0.47917239  1  -0.192009  0.038738  -0.233905  -0.393151  0.019213  3.078141  0.029
N  N253  1  0.96627251  0.42957372  0.01739693  1  -0.159288  0.121612  -0.247636  -0.430811  0.068036  3.029678  0.092
N  N254  1  0.03800862  0.93461572  0.47988574  1  -0.14874  0.111732  -0.252275  -0.43437  0.063321  3.041573  0.085
N  N255  1  0.54676928  0.56420477  0.02064794  1  -0.172899  0.089366  -0.254511  -0.389299  0.046899  3.13902  0.064
N  N256  1  0.54671376  0.93582653  0.52057877  1  -0.177747  0.089466  -0.254697  -0.389726  0.046949  3.139886  0.064
N  N257  1  0.03798667  0.56539854  0.97984061  1  -0.148638  0.111697  -0.252443  -0.434631  0.063309  3.041719  0.085
N  N258  1  0.96620600  0.07041783  0.51738268  1  -0.159521  0.121581  -0.247816  -0.430967  0.068024  3.029838  0.092
N  N259  1  0.46402787  0.43419517  0.97925487  1  -0.191169  0.038774  -0.233674  -0.392916  0.019257  3.0775  0.029
N  N260  1  0.25243993  0.99846053  0.49990915  1  -0.271319  0.084014  -0.299276  -0.527171  0.051784  3.238758  0.079
N  N261  1  0.75576581  0.49326969  0.99323075  1  -0.298626  0.092315  -0.29775  -0.523712  0.056313  3.223981  0.083
N  N262  1  0.75570524  0.00673993  0.49319688  1  -0.297303  0.092293  -0.297731  -0.523865  0.056322  3.223993  0.083
N  N263  1  0.25240084  0.50153247  0.99990870  1  -0.270688  0.083981  -0.299293  -0.527465  0.051787  3.238979  0.079
N  N264  1  0.50698060  0.00228442  0.50061378  1  -0.225425  0.027215  0.102387  0.428907  0.008668  4.381104  0.018
N  N265  1  0.00228216  0.49742591  0.99875066  1  -0.350324  0.038168  0.095719  0.435161  0.013641  4.435548  0.019
N  N266  1  0.00225889  0.00257771  0.49876564  1  -0.349756  0.038131  0.095771  0.435013  0.01362  4.435418  0.019
N  N267  1  0.50699426  0.49776780  0.00068886  1  -0.231067  0.027084  0.102024  0.428275  0.008596  4.379924  0.017
