# generated using pymatgen
data_CuH8C6N2O7
_symmetry_space_group_name_H-M   'P 1'
_cell_length_a   7.31090839
_cell_length_b   8.15988212
_cell_length_c   9.64365008
_cell_angle_alpha   64.96792820
_cell_angle_beta   79.82661023
_cell_angle_gamma   65.31885968
_symmetry_Int_Tables_number   1
_chemical_formula_structural   CuH8C6N2O7
_chemical_formula_sum   'Cu2 H16 C12 N4 O14'
_cell_volume   473.64559430
_cell_formula_units_Z   2
loop_
 _symmetry_equiv_pos_site_id
 _symmetry_equiv_pos_as_xyz
  1  'x, y, z'
loop_
 _atom_site_type_symbol
 _atom_site_label
 _atom_site_symmetry_multiplicity
 _atom_site_fract_x
 _atom_site_fract_y
 _atom_site_fract_z
 _atom_site_occupancy
 _atom_site_hle17_ddec_charge
 _atom_site_hle17_ddec_spin_density
 _atom_site_hle17_ddec_sum_bond_order
 _atom_site_hle17_magmom
 _atom_site_hse06_10hf_ddec_charge
 _atom_site_hse06_10hf_ddec_spin_density
 _atom_site_hse06_10hf_ddec_sum_bond_order
 _atom_site_hse06_10hf_magmom
 _atom_site_hse06_ddec_charge
 _atom_site_hse06_ddec_spin_density
 _atom_site_hse06_ddec_sum_bond_order
 _atom_site_hse06_magmom
 _atom_site_pbe_cm5_charge
 _atom_site_pbe_ddec_charge
 _atom_site_pbe_ddec_spin_density
 _atom_site_pbe_ddec_sum_bond_order
 _atom_site_pbe_magmom
Cu  Cu0  1  0.44720949  0.96489723  0.25658155  1  0.953901  -0.714207  1.748242  -0.545  0.949038  -0.80562  2.139617  -0.667  1.03232  -0.866078  2.077381  -0.752  0.730188  0.890463  -0.756461  2.189623  -0.605
Cu  Cu1  1  0.94715453  0.22158338  0.74336985  1  0.955619  -0.711287  1.744928  -0.542  0.950639  -0.802905  2.136607  -0.665  1.034617  -0.864679  2.073559  -0.75  0.731035  0.892686  -0.756493  2.187347  -0.605
H  H2  1  0.35355506  0.26252992  0.97811297  1  0.448625  0.000178  0.845408  0.0  0.420908  -0.000482  0.902378  -0.001  0.433353  -0.000331  0.884791  0.0  0.292318  0.411689  -0.000557  0.915453  -0.001
H  H3  1  0.85356618  0.24076310  0.02185835  1  0.447364  0.00025  0.847127  0.001  0.420048  -0.000463  0.90363  -0.001  0.432491  -0.000331  0.88604  0.0  0.292106  0.410947  -0.00056  0.91654  -0.001
H  H4  1  0.16867068  0.21810680  0.09442615  1  0.426072  0.000892  0.874261  0.001  0.398474  0.000174  0.933211  0.0  0.410184  0.000326  0.91622  0.0  0.292202  0.389868  2e-05  0.945709  0.0
H  H5  1  0.66870237  0.31258095  0.90554016  1  0.424748  0.000906  0.876044  0.001  0.39704  0.000187  0.935108  0.0  0.40875  0.000334  0.918136  0.0  0.291448  0.388338  2.4e-05  0.947866  0.0
H  H6  1  0.49601968  0.82999084  0.05954937  1  0.431554  0.000455  0.86144  0.001  0.400809  -0.000257  0.929662  0.0  0.413927  -1.6e-05  0.911138  0.0  0.293445  0.390898  -0.000216  0.94378  0.0
H  H7  1  0.99592405  0.88962734  0.94044206  1  0.430305  0.000776  0.863524  0.002  0.400192  -4.7e-05  0.930616  0.0  0.413408  0.000127  0.911938  0.0  0.29335  0.390481  -0.000219  0.944361  0.0
H  H8  1  0.29517623  0.80528078  0.14655301  1  0.426019  0.000365  0.86936  0.001  0.395963  -0.000467  0.93538  -0.001  0.407745  -0.00029  0.91874  -0.001  0.294461  0.387364  -0.000582  0.947525  -0.001
H  H9  1  0.79507524  0.95186555  0.85338963  1  0.426707  0.000391  0.868673  0.001  0.396265  -0.000429  0.93485  -0.001  0.408099  -0.000266  0.918114  -0.001  0.294827  0.387901  -0.000586  0.946602  -0.001
H  H10  1  0.96351906  0.06537473  0.27497395  1  0.37776  9.6e-05  0.944964  0.0  0.329022  0.000179  1.042509  0.0  0.339702  0.000193  1.026816  0.0  0.278843  0.321248  0.000147  1.054004  0.0
H  H11  1  0.46350262  0.34022014  0.72510293  1  0.378694  4.9e-05  0.944231  0.0  0.329617  0.000169  1.04198  0.0  0.340229  0.000196  1.026352  0.0  0.278829  0.321992  0.000146  1.053094  0.0
H  H12  1  0.91532347  0.29243193  0.22272881  1  0.418578  0.000235  0.890761  0.0  0.387095  4.7e-05  0.954017  0.0  0.399267  3.4e-05  0.936519  0.0  0.288841  0.378544  1e-06  0.966358  0.0
H  H13  1  0.41531927  0.51506560  0.77727852  1  0.419609  0.000167  0.888957  0.0  0.388213  2.8e-05  0.952063  0.0  0.400407  2.8e-05  0.934519  0.0  0.288852  0.379605  1e-06  0.964473  0.0
H  H14  1  0.48895149  0.50850119  0.37680146  1  0.116724  -0.000565  0.954664  -0.001  0.121589  -0.000482  1.01934  -0.001  0.125377  -0.0003  1.016269  0.0  0.125028  0.118753  -0.00069  1.021739  -0.001
H  H15  1  0.98900789  0.88525480  0.62327976  1  0.115829  -0.00059  0.954486  -0.001  0.120674  -0.000522  1.01897  -0.001  0.124299  -0.000327  1.016057  0.0  0.124502  0.117519  -0.00069  1.02185  -0.001
H  H16  1  0.46642909  0.36541558  0.19508623  1  0.12457  -0.001388  0.899786  -0.002  0.134716  -0.001203  0.95007  -0.002  0.13823  -0.000846  0.946705  -0.001  0.139307  0.131436  -0.001595  0.953923  -0.002
H  H17  1  0.96618135  0.56053796  0.80496935  1  0.12467  -0.001459  0.900336  -0.002  0.134243  -0.00124  0.951065  -0.002  0.137753  -0.000865  0.947664  -0.001  0.13965  0.131417  -0.001593  0.954114  -0.002
C  C18  1  0.42595416  0.82363124  0.57568192  1  0.612638  0.006363  3.928873  0.005  0.563972  0.000548  4.239093  0.0  0.598847  0.00046  4.235267  0.0  0.209862  0.540276  0.000566  4.240474  0.0
C  C19  1  0.92596400  0.39948214  0.42430275  1  0.609256  0.006322  3.933076  0.005  0.560517  0.000575  4.242925  0.0  0.595338  0.000494  4.239171  0.0  0.20828  0.536914  0.000572  4.244188  0.0
C  C20  1  0.44251528  0.01748487  0.52640456  1  0.030199  0.011279  3.72933  0.007  0.028157  0.003946  3.981955  0.002  0.02838  0.00524  4.000818  0.003  0.114048  0.027307  0.002964  3.970519  0.001
C  C21  1  0.94239221  0.54409211  0.47357445  1  0.033299  0.011357  3.731667  0.007  0.031422  0.003921  3.983687  0.002  0.031698  0.005252  4.0025  0.003  0.114654  0.0303  0.002964  3.972136  0.001
C  C22  1  0.44668036  0.09994230  0.62629013  1  0.078288  -0.006266  3.680315  -0.007  0.069805  -0.002328  3.935016  -0.003  0.070433  -0.002374  3.949862  -0.003  0.135676  0.068464  -0.003015  3.925904  -0.003
C  C23  1  0.94664666  0.72639824  0.37371136  1  0.075135  -0.007056  3.680726  -0.008  0.065354  -0.002577  3.936974  -0.003  0.065964  -0.002449  3.951874  -0.003  0.135217  0.064454  -0.003017  3.927679  -0.003
C  C24  1  0.47547377  0.36707924  0.41981050  1  0.112585  -0.009481  3.605882  -0.011  0.079685  -0.004231  3.867849  -0.005  0.084212  -0.003736  3.878441  -0.005  0.069738  0.076497  -0.004768  3.861376  -0.006
C  C25  1  0.97552279  0.78685028  0.58027677  1  0.11457  -0.009558  3.602374  -0.011  0.081521  -0.004253  3.864174  -0.005  0.086153  -0.003744  3.874823  -0.005  0.069774  0.078312  -0.004766  3.858263  -0.006
C  C26  1  0.46626487  0.28825525  0.31871424  1  0.114626  0.012811  3.588111  0.008  0.083105  0.003509  3.855528  0.002  0.091442  0.00541  3.866317  0.003  0.069969  0.077025  0.002057  3.849134  0.001
C  C27  1  0.96613461  0.60699688  0.68133661  1  0.116427  0.012852  3.588697  0.008  0.084899  0.003492  3.855403  0.002  0.093162  0.005405  3.86631  0.003  0.071562  0.078497  0.002062  3.849156  0.001
C  C28  1  0.42199951  0.01067950  0.79837589  1  0.646234  0.00011  3.942996  0.0  0.593463  -0.000575  4.248484  -0.001  0.629256  -0.000254  4.238807  0.0  0.217931  0.569475  -0.000991  4.252384  -0.001
C  C29  1  0.92193627  0.80924291  0.20162636  1  0.646706  0.000327  3.944393  0.0  0.594599  -0.000509  4.25012  -0.001  0.630398  -0.000161  4.240527  0.0  0.216731  0.570371  -0.000988  4.254554  -0.001
N  N30  1  0.45258713  0.11316629  0.37428147  1  -0.265674  -0.075815  3.355909  -0.1  -0.235064  -0.052493  3.658529  -0.073  -0.259142  -0.041292  3.676548  -0.062  -0.324775  -0.219282  -0.059612  3.647325  -0.079
N  N31  1  0.95243518  0.48756517  0.62569683  1  -0.268597  -0.075973  3.357846  -0.1  -0.237307  -0.052671  3.659381  -0.074  -0.26164  -0.041432  3.677425  -0.063  -0.326045  -0.222105  -0.059598  3.649096  -0.079
N  N32  1  0.46549804  0.27359049  0.57157570  1  -0.265365  0.010683  3.10921  0.008  -0.218043  0.004644  3.364509  0.003  -0.225734  0.005276  3.376392  0.004  -0.27768  -0.212631  0.003667  3.357081  0.002
N  N33  1  0.96555470  0.84526368  0.42848044  1  -0.263411  0.009904  3.106084  0.007  -0.215877  0.004358  3.361323  0.003  -0.223703  0.005204  3.37321  0.004  -0.277271  -0.210957  0.003677  3.354355  0.002
O  O34  1  0.39517091  0.73643163  0.71402452  1  -0.528293  -0.016266  1.968438  -0.022  -0.480063  -0.006943  2.176311  -0.01  -0.5072  -0.002623  2.170038  -0.004  -0.275832  -0.460422  -0.012236  2.179894  -0.017
O  O35  1  0.89519569  0.45061980  0.28589322  1  -0.527335  -0.01721  1.968936  -0.023  -0.478403  -0.00756  2.175945  -0.011  -0.505558  -0.002952  2.169761  -0.005  -0.275419  -0.459254  -0.012257  2.1796  -0.017
O  O36  1  0.44515643  0.76305752  0.46802146  1  -0.593024  -0.080254  2.009155  -0.114  -0.579142  -0.048554  2.297205  -0.076  -0.619541  -0.034643  2.288628  -0.059  -0.324623  -0.551211  -0.057896  2.302787  -0.085
O  O37  1  0.94528918  0.23118698  0.53194106  1  -0.593485  -0.078365  2.00965  -0.111  -0.579106  -0.048089  2.297635  -0.075  -0.619334  -0.034544  2.288837  -0.059  -0.324365  -0.550627  -0.057943  2.30324  -0.085
O  O38  1  0.24527272  0.06611599  0.84853940  1  -0.614189  -0.005675  2.038437  -0.01  -0.576757  -0.002071  2.302641  -0.005  -0.609146  -0.000584  2.291281  -0.003  -0.315908  -0.551101  -0.004515  2.308362  -0.008
O  O39  1  0.74524196  0.91484638  0.15144598  1  -0.613048  -0.006234  2.039164  -0.01  -0.576044  -0.002236  2.303057  -0.005  -0.608541  -0.000641  2.2916  -0.003  -0.315887  -0.551062  -0.00454  2.30942  -0.008
O  O40  1  0.58050678  0.90064851  0.87887447  1  -0.605295  -0.001514  1.971188  -0.002  -0.539713  -0.000777  2.173769  -0.001  -0.566089  -0.000296  2.162674  0.0  -0.298264  -0.51936  -0.003082  2.180205  -0.004
O  O41  1  0.08046737  0.77963800  0.12113353  1  -0.602619  -0.004158  1.970882  -0.006  -0.539193  -0.001724  2.174092  -0.002  -0.565984  -0.000757  2.163179  -0.001  -0.297079  -0.519317  -0.003083  2.180816  -0.004
O  O42  1  0.30477076  0.22176550  0.08712778  1  -0.823213  -0.061808  1.930756  -0.086  -0.793765  -0.041881  2.144246  -0.063  -0.826728  -0.030386  2.106976  -0.05  -0.590482  -0.771035  -0.049815  2.171987  -0.07
O  O43  1  0.80478006  0.30907156  0.91280903  1  -0.822429  -0.061432  1.933527  -0.085  -0.792822  -0.041784  2.14656  -0.063  -0.825663  -0.030391  2.109193  -0.05  -0.589878  -0.769668  -0.049918  2.173933  -0.07
O  O44  1  0.43076688  0.79562551  0.16408950  1  -0.788429  -0.06972  1.963936  -0.095  -0.760532  -0.045017  2.189784  -0.066  -0.795193  -0.033469  2.153395  -0.053  -0.573501  -0.736448  -0.05243  2.21645  -0.072
O  O45  1  0.93065758  0.95984829  0.83587845  1  -0.789549  -0.06882  1.964828  -0.094  -0.760701  -0.045044  2.190239  -0.066  -0.795208  -0.033595  2.153381  -0.054  -0.573572  -0.736726  -0.052335  2.216946  -0.072
O  O46  1  0.95274979  0.18703249  0.18186149  1  -0.835434  -0.001009  1.938712  -0.002  -0.77325  -0.000179  2.123798  -0.001  -0.794629  0.000369  2.089007  0.0  -0.571037  -0.758162  -0.000912  2.148816  -0.002
O  O47  1  0.45279339  0.36878794  0.81817593  1  -0.83792  -0.000655  1.937009  -0.002  -0.77526  -0.000163  2.122369  -0.001  -0.79641  0.000303  2.087423  0.0  -0.571056  -0.759674  -0.000911  2.147372  -0.002
