# generated using pymatgen
data_ZnH28C32(NO2)2
_symmetry_space_group_name_H-M   'P 1'
_cell_length_a   9.35358663
_cell_length_b   10.06568543
_cell_length_c   15.30900000
_cell_angle_alpha   97.45978635
_cell_angle_beta   105.44121302
_cell_angle_gamma   103.76204096
_symmetry_Int_Tables_number   1
_chemical_formula_structural   ZnH28C32(NO2)2
_chemical_formula_sum   'Zn2 H56 C64 N4 O8'
_cell_volume   1320.40007566
_cell_formula_units_Z   2
loop_
 _symmetry_equiv_pos_site_id
 _symmetry_equiv_pos_as_xyz
  1  'x, y, z'
loop_
 _atom_site_type_symbol
 _atom_site_label
 _atom_site_symmetry_multiplicity
 _atom_site_fract_x
 _atom_site_fract_y
 _atom_site_fract_z
 _atom_site_occupancy
 _atom_site_hle17_bader_spin_density
 _atom_site_hle17_ddec_charge
 _atom_site_hle17_ddec_spin_density
 _atom_site_hle17_ddec_sum_bond_order
 _atom_site_hle17_magmom
 _atom_site_hse06_10hf_bader_spin_density
 _atom_site_hse06_10hf_ddec_charge
 _atom_site_hse06_10hf_ddec_spin_density
 _atom_site_hse06_10hf_ddec_sum_bond_order
 _atom_site_hse06_10hf_magmom
 _atom_site_hse06_bader_spin_density
 _atom_site_hse06_ddec_charge
 _atom_site_hse06_ddec_spin_density
 _atom_site_hse06_ddec_sum_bond_order
 _atom_site_hse06_magmom
 _atom_site_pbe_bader_charge
 _atom_site_pbe_bader_spin_density
 _atom_site_pbe_cm5_charge
 _atom_site_pbe_ddec_charge
 _atom_site_pbe_ddec_spin_density
 _atom_site_pbe_ddec_sum_bond_order
 _atom_site_pbe_magmom
Zn  Zn0  1  0.65478583  0.87917248  0.54115230  1  0  1.041433  0  1.831611  0  0  0.859547  0  2.288527  0  0  0.910553  0  2.231901  0  1.320545  0  0.684984  0.82081  0  2.330073  0
Zn  Zn1  1  0.34521630  0.12083175  0.45884573  1  0  1.041474  0  1.831532  0  0  0.859597  0  2.288438  0  0  0.910599  0  2.231814  0  1.320613  0  0.685006  0.82086  0  2.329983  0
H  H2  1  0.51906857  0.66969049  0.36536380  1  0  0.086523  0  0.944076  0  0  0.095537  0  1.006314  0  0  0.09814  0  1.003801  0  0.126775  0  0.118434  0.093606  0  1.00816  0
H  H3  1  0.48092747  0.33030851  0.63463540  1  0  0.086518  0  0.944122  0  0  0.095552  0  1.006336  0  0  0.098154  0  1.003825  0  0.126773  0  0.118463  0.093622  0  1.008184  0
H  H4  1  0.56691651  0.60250819  0.21489375  1  0  0.096133  0  0.956001  0  0  0.110176  0  1.011601  0  0  0.113512  0  1.010448  0  0.080324  0  0.102143  0.107776  0  1.012602  0
H  H5  1  0.43308253  0.39748976  0.78510585  1  0  0.096146  0  0.956002  0  0  0.110167  0  1.011626  0  0  0.113503  0  1.010474  0  0.080337  0  0.102159  0.107769  0  1.012626  0
H  H6  1  0.94166214  0.98763902  0.29605862  1  0  0.128343  0  0.96165  0  0  0.136797  0  1.023863  0  0  0.140659  0  1.021966  0  0.149107  0  0.112135  0.134051  0  1.025362  0
H  H7  1  0.05833657  0.01235789  0.70393758  1  0  0.128341  0  0.961654  0  0  0.136817  0  1.023853  0  0  0.140678  0  1.021956  0  0.149098  0  0.112116  0.134066  0  1.025354  0
H  H8  1  0.87871492  0.03555480  0.44072671  1  0  0.096242  0  0.931813  0  0  0.103524  0  0.995479  0  0  0.106297  0  0.993062  0  0.123309  0  0.121271  0.101357  0  0.997457  0
H  H9  1  0.12128576  0.96444838  0.55927099  1  0  0.096354  0  0.931798  0  0  0.103569  0  0.995529  0  0  0.106341  0  0.993114  0  0.123291  0  0.121297  0.101402  0  0.997508  0
H  H10  1  0.70646709  0.68211423  0.09800151  1  0  0.090415  0  0.95526  0  0  0.105976  0  1.011527  0  0  0.108442  0  1.011078  0  0.065628  0  0.100083  0.104264  0  1.011772  0
H  H11  1  0.29353129  0.31788163  0.90199584  1  0  0.090466  0  0.95525  0  0  0.106024  0  1.011513  0  0  0.108491  0  1.011062  0  0.065684  0  0.100105  0.104312  0  1.011758  0
H  H12  1  0.03838052  0.83394629  0.22116985  1  0  0.092905  0  0.945778  0  0  0.105813  0  1.00652  0  0  0.108001  0  1.005438  0  0.084372  0  0.106804  0.104464  0  1.007114  0
H  H13  1  0.96161774  0.16605272  0.77882972  1  0  0.092914  0  0.945773  0  0  0.105818  0  1.00652  0  0  0.108006  0  1.005438  0  0.084355  0  0.106808  0.104472  0  1.007112  0
H  H14  1  0.19673099  0.63735740  0.81341726  1  0  0.084865  0  0.951992  0  0  0.09867  0  1.010641  0  0  0.100352  0  1.010766  0  0.086784  0  0.103189  0.097507  0  1.010529  0
H  H15  1  0.80326772  0.36263952  0.18658285  1  0  0.084792  0  0.95201  0  0  0.098594  0  1.010669  0  0  0.100275  0  1.010796  0  0.086825  0  0.103174  0.097431  0  1.010553  0
H  H16  1  0.36828912  0.94013088  0.91890554  1  0  0.094845  0  0.941039  0  0  0.110372  0  0.995587  0  0  0.113416  0  0.994568  0  0.070932  0  0.101869  0.107885  0  0.997162  0
H  H17  1  0.63171070  0.05986603  0.08109344  1  0  0.094828  0  0.941011  0  0  0.110372  0  0.995545  0  0  0.113414  0  0.994528  0  0.070877  0  0.101884  0.107884  0  0.997121  0
H  H18  1  0.37770287  0.62909615  0.75102221  1  0  0.092251  0  0.97841  0  0  0.102413  0  1.042341  0  0  0.105407  0  1.041487  0  0.066057  0  0.102315  0.100082  0  1.043346  0
H  H19  1  0.62230061  0.37090180  0.24897746  1  0  0.092246  0  0.978406  0  0  0.102412  0  1.042342  0  0  0.105407  0  1.041486  0  0.066086  0  0.102305  0.10008  0  1.043349  0
H  H20  1  0.50537301  0.65678485  0.62783472  1  0  0.098256  0  0.947453  0  0  0.107469  0  1.006759  0  0  0.110309  0  1.004377  0  0.15378  0  0.121786  0.105323  0  1.008507  0
H  H21  1  0.49462525  0.34321415  0.37216354  1  0  0.098217  0  0.947458  0  0  0.107447  0  1.006749  0  0  0.110294  0  1.004357  0  0.153804  0  0.121791  0.105301  0  1.008495  0
H  H22  1  0.63459340  0.08733730  0.70505120  1  0  0.080565  0  0.952474  0  0  0.089037  0  1.018317  0  0  0.090866  0  1.016954  0  0.101021  0  0.116624  0.087616  0  1.019308  0
H  H23  1  0.36540453  0.91266066  0.29494757  1  0  0.08052  0  0.95257  0  0  0.089009  0  1.018393  0  0  0.090837  0  1.017033  0  0.100987  0  0.116619  0.087588  0  1.019385  0
H  H24  1  0.50988207  0.07931230  0.83014384  1  0  0.10039  0  0.960106  0  0  0.110775  0  1.02196  0  0  0.11349  0  1.022463  0  0.081991  0  0.103634  0.108752  0  1.021891  0
H  H25  1  0.49011708  0.92068252  0.16985421  1  0  0.100458  0  0.960024  0  0  0.110821  0  1.021905  0  0  0.113537  0  1.022408  0  0.081706  0  0.103641  0.108796  0  1.02184  0
H  H26  1  0.12171432  0.65232756  0.22320320  1  0  0.107658  0  0.976752  0  0  0.126042  0  1.040589  0  0  0.12665  0  1.04208  0  0.062867  0  0.088564  0.125856  0  1.038906  0
H  H27  1  0.87828250  0.34767040  0.77679605  1  0  0.107676  0  0.976743  0  0  0.126047  0  1.040592  0  0  0.126655  0  1.042083  0  0.062871  0  0.08856  0.12586  0  1.038909  0
H  H28  1  0.30703834  0.67879845  0.20716372  1  0  0.095077  0  0.968773  0  0  0.115322  0  1.035461  0  0  0.115594  0  1.036746  0  0.025739  0  0.085207  0.115003  0  1.034787  0
H  H29  1  0.69295959  0.32119951  0.79283570  1  0  0.095066  0  0.968779  0  0  0.115313  0  1.035465  0  0  0.115586  0  1.036749  0  0.025726  0  0.085213  0.114995  0  1.034791  0
H  H30  1  0.16070804  0.52015816  0.15368634  1  0  0.109753  0  0.94519  0  0  0.132737  0  1.003407  0  0  0.133681  0  1.004273  0  0.048689  0  0.092482  0.132299  0  1.002636  0
H  H31  1  0.83928768  0.47983979  0.84631403  1  0  0.109757  0  0.945143  0  0  0.132744  0  1.003357  0  0  0.133688  0  1.004223  0  0.04871  0  0.092487  0.132307  0  1.002586  0
H  H32  1  0.43157624  0.67803536  0.08637468  1  0  0.0912  0  0.976199  0  0  0.111174  0  1.044535  0  0  0.111983  0  1.044732  0  0.01015  0  0.084307  0.110688  0  1.043897  0
H  H33  1  0.56842103  0.32196051  0.91362577  1  0  0.091214  0  0.976211  0  0  0.111183  0  1.044541  0  0  0.111992  0  1.044737  0  0.010098  0  0.084303  0.110697  0  1.043903  0
H  H34  1  0.36346079  0.60237857  0.96652331  1  0  0.099297  0  0.967859  0  0  0.118601  0  1.030129  0  0  0.119957  0  1.0301  0  0.023041  0  0.084852  0.117651  0  1.03026  0
H  H35  1  0.63653981  0.39761729  0.03347702  1  0  0.099265  0  0.967955  0  0  0.118565  0  1.030227  0  0  0.119923  0  1.030195  0  0.023032  0  0.084799  0.117616  0  1.030357  0
H  H36  1  0.29529510  0.51103452  0.04626658  1  0  0.104721  0  0.951082  0  0  0.126727  0  1.011231  0  0  0.127784  0  1.011682  0  0.024506  0  0.090478  0.125483  0  1.011469  0
H  H37  1  0.70470106  0.48896134  0.95373303  1  0  0.104748  0  0.951096  0  0  0.126754  0  1.011234  0  0  0.12781  0  1.011684  0  0.024504  0  0.090471  0.125511  0  1.011471  0
H  H38  1  0.82117875  0.76882120  0.80131054  1  0  0.105146  0  0.948174  0  0  0.126195  0  1.008611  0  0  0.126925  0  1.009553  0  0.07392  0  0.088402  0.126208  0  1.006958  0
H  H39  1  0.17882173  0.23117780  0.19868873  1  0  0.105143  0  0.948186  0  0  0.126194  0  1.008619  0  0  0.126923  0  1.009562  0  0.073913  0  0.088405  0.126207  0  1.006967  0
H  H40  1  0.00008730  0.78872219  0.77852531  1  0  0.111003  0  0.978596  0  0  0.128987  0  1.042917  0  0  0.129956  0  1.043911  0  0.069012  0  0.088847  0.128274  0  1.042028  0
H  H41  1  0.99991428  0.21127682  0.22147414  1  0  0.11102  0  0.978584  0  0  0.129007  0  1.042895  0  0  0.129976  0  1.043889  0  0.069033  0  0.088862  0.128294  0  1.042005  0
H  H42  1  0.96299824  0.93199926  0.83904859  1  0  0.104544  0  0.956067  0  0  0.127226  0  1.017596  0  0  0.127924  0  1.018318  0  0.031867  0  0.089281  0.126519  0  1.017423  0
H  H43  1  0.03700223  0.06799974  0.16095069  1  0  0.104539  0  0.956076  0  0  0.127218  0  1.017611  0  0  0.127919  0  1.018331  0  0.031857  0  0.089278  0.126511  0  1.017441  0
H  H44  1  0.82261281  0.93695517  0.93799250  1  0  0.105974  0  0.964511  0  0  0.125923  0  1.027751  0  0  0.126714  0  1.029412  0  0.042255  0  0.08929  0.125321  0  1.026656  0
H  H45  1  0.17738656  0.06304384  0.06200660  1  0  0.106019  0  0.964486  0  0  0.125956  0  1.027731  0  0  0.126747  0  1.029393  0  0.042262  0  0.089288  0.125355  0  1.026635  0
H  H46  1  0.78534011  0.88874038  0.03889445  1  0  0.097516  0  0.984505  0  0  0.116737  0  1.048537  0  0  0.11775  0  1.049298  0  0.028873  0  0.083837  0.116243  0  1.048156  0
H  H47  1  0.21466148  0.11125862  0.96110436  1  0  0.097572  0  0.984471  0  0  0.116782  0  1.048504  0  0  0.117805  0  1.049256  0  0.028845  0  0.083868  0.116288  0  1.048123  0
H  H48  1  0.69731732  0.77164359  0.93024485  1  0  0.095591  0  0.951103  0  0  0.115946  0  1.014843  0  0  0.116654  0  1.015447  0  0.01011  0  0.084005  0.115337  0  1.014614  0
H  H49  1  0.30268238  0.22835646  0.06975504  1  0  0.09562  0  0.951101  0  0  0.115977  0  1.01483  0  0  0.116684  0  1.015435  0  0.010109  0  0.084004  0.115367  0  1.014601  0
H  H50  1  0.10174154  0.69888237  0.62659593  1  0  0.096078  0  0.948517  0  0  0.103509  0  1.014926  0  0  0.106899  0  1.01292  0  0.087837  0  0.101487  0.100887  0  1.016593  0
H  H51  1  0.89826169  0.30112186  0.37340881  1  0  0.096094  0  0.948512  0  0  0.103506  0  1.014937  0  0  0.106898  0  1.012932  0  0.087933  0  0.101459  0.100883  0  1.016607  0
H  H52  1  0.20914251  0.49282174  0.63445821  1  0  0.078071  0  0.97874  0  0  0.087941  0  1.042482  0  0  0.090183  0  1.042937  0  0.072429  0  0.093315  0.086196  0  1.042601  0
H  H53  1  0.79085995  0.50718353  0.36554584  1  0  0.078047  0  0.978762  0  0  0.087952  0  1.042461  0  0  0.090194  0  1.042917  0  0.072439  0  0.093319  0.086209  0  1.042577  0
H  H54  1  0.03077361  0.25437994  0.60659480  1  0  0.094018  0  0.985969  0  0  0.102018  0  1.05269  0  0  0.104423  0  1.052389  0  0.102405  0  0.099472  0.100513  0  1.05236  0
H  H55  1  0.96922995  0.74562533  0.39340878  1  0  0.094005  0  0.985933  0  0  0.101986  0  1.052684  0  0  0.10439  0  1.052385  0  0.102355  0  0.099484  0.100481  0  1.052354  0
H  H56  1  0.64148104  0.42183027  0.54983588  1  0  0.11593  0  0.960095  0  0  0.121056  0  1.031974  0  0  0.125562  0  1.027353  0  0.133709  0  0.106046  0.117744  0  1.035543  0
H  H57  1  0.35852019  0.57817814  0.45016693  1  0  0.115967  0  0.960109  0  0  0.121052  0  1.032037  0  0  0.125556  0  1.02742  0  0.133707  0  0.106048  0.117735  0  1.035609  0
C  C58  1  0.61074188  0.73651006  0.34606496  1  0  0.129599  0  3.722716  0  0  0.098963  0  3.973996  0  0  0.106405  0  3.992251  0  0.455053  0  0.042198  0.093935  0  3.961902  0
C  C59  1  0.38925893  0.26348999  0.65393315  1  0  0.129615  0  3.722679  0  0  0.098959  0  3.973967  0  0  0.106399  0  3.992221  0  0.455132  0  0.042179  0.09393  0  3.961871  0
C  C60  1  0.63796760  0.70049322  0.26260521  1  0  -0.199362  0  3.749002  0  0  -0.215126  0  3.998816  0  0  -0.223601  0  4.019382  0  -0.055473  0  -0.095228  -0.209522  0  3.985814  0
C  C61  1  0.36203243  0.29950787  0.73739352  1  0  -0.199379  0  3.748918  0  0  -0.215107  0  3.998756  0  0  -0.22358  0  4.01932  0  -0.055587  0  -0.095237  -0.209503  0  3.985755  0
C  C62  1  0.76116054  0.78777198  0.24208635  1  0  0.13426  0  3.829538  0  0  0.147263  0  4.065774  0  0  0.153291  0  4.087958  0  -0.056899  0  0.003391  0.143146  0  4.05115  0
C  C63  1  0.23883772  0.21222702  0.75791126  1  0  0.134408  0  3.829371  0  0  0.14738  0  4.065651  0  0  0.153407  0  4.087832  0  -0.056896  0  0.003503  0.143263  0  4.051029  0
C  C64  1  0.84655340  0.91240037  0.30694948  1  0  -0.158469  0  3.668562  0  0  -0.177776  0  3.917775  0  0  -0.185228  0  3.936334  0  -0.054164  0  -0.080067  -0.17342  0  3.905767  0
C  C65  1  0.15344453  0.08759759  0.69304799  1  0  -0.158571  0  3.668463  0  0  -0.17789  0  3.917702  0  0  -0.18534  0  3.936256  0  -0.054059  0  -0.080136  -0.173532  0  3.905694  0
C  C66  1  0.81140667  0.94083752  0.38882246  1  0  0.144707  0  3.668561  0  0  0.112468  0  3.922038  0  0  0.120553  0  3.938169  0  0.504823  0  0.054263  0.107333  0  3.911563  0
C  C67  1  0.18859269  0.05916148  0.61117532  1  0  0.144666  0  3.668585  0  0  0.112469  0  3.922095  0  0  0.120554  0  3.938225  0  0.504749  0  0.054284  0.107333  0  3.911619  0
C  C68  1  0.80075653  0.74727382  0.15842544  1  0  -0.144389  0  3.755365  0  0  -0.163137  0  4.003657  0  0  -0.167679  0  4.023135  0  -0.15873  0  -0.097463  -0.160077  0  3.990635  0
C  C69  1  0.19924218  0.25272310  0.84157402  1  0  -0.144526  0  3.755472  0  0  -0.16326  0  4.003767  0  0  -0.167802  0  4.023249  0  -0.158712  0  -0.097534  -0.160201  0  3.990747  0
C  C70  1  0.94784067  0.77994142  0.15580068  1  0  -0.06271  0  3.739541  0  0  -0.079228  0  3.989288  0  0  -0.077874  0  4.008272  0  0.026587  0  -0.075075  -0.080828  0  3.976402  0
C  C71  1  0.05216125  0.22005863  0.84419761  1  0  -0.062736  0  3.739626  0  0  -0.079255  0  3.989365  0  0  -0.07791  0  4.008344  0  0.026636  0  -0.075122  -0.080858  0  3.976481  0
C  C72  1  0.00232348  0.75083735  0.07566816  1  0  -0.028214  0  3.770283  0  0  -0.024179  0  4.015112  0  0  -0.02611  0  4.039929  0  -0.016649  0  -0.019173  -0.022127  0  3.997421  0
C  C73  1  0.99767445  0.24916061  0.92433061  1  0  -0.02832  0  3.77024  0  0  -0.024217  0  4.015107  0  0  -0.026119  0  4.039885  0  -0.016708  0  -0.019191  -0.02216  0  3.99741  0
C  C74  1  0.12709748  0.69119501  0.08727592  1  0  0.045583  0  3.710474  0  0  0.057404  0  3.958261  0  0  0.056528  0  3.983372  0  -0.026772  0  -0.015513  0.058125  0  3.940873  0
C  C75  1  0.87290045  0.30880295  0.91272415  1  0  0.045625  0  3.710432  0  0  0.057342  0  3.95836  0  0  0.056455  0  3.983466  0  -0.026732  0  -0.015488  0.058064  0  3.94097  0
C  C76  1  0.19748178  0.68015947  0.01734599  1  0  0.037703  0  3.728248  0  0  0.04949  0  3.974439  0  0  0.048215  0  3.999618  0  0.020288  0  -0.019024  0.050336  0  3.957164  0
C  C77  1  0.80251615  0.31983849  0.98265409  1  0  0.037771  0  3.72811  0  0  0.049588  0  3.974381  0  0  0.048313  0  3.999562  0  0.020353  0  -0.01899  0.050431  0  3.957113  0
C  C78  1  0.14390540  0.72973736  0.93640824  1  0  -0.024358  0  3.76153  0  0  -0.01743  0  4.001826  0  0  -0.018723  0  4.026427  0  -0.024267  0  -0.015824  -0.016004  0  3.984456  0
C  C79  1  0.85609265  0.27025746  0.06359029  1  0  -0.024304  0  3.761444  0  0  -0.017442  0  4.001858  0  0  -0.018734  0  4.026458  0  -0.024568  0  -0.015853  -0.016015  0  3.984488  0
C  C80  1  0.01167131  0.77813613  0.92094248  1  0  0.042776  0  3.724741  0  0  0.05389  0  3.971701  0  0  0.053232  0  3.995584  0  -0.0117  0  -0.014197  0.054319  0  3.955329  0
C  C81  1  0.98833283  0.22186392  0.07905813  1  0  0.042754  0  3.724696  0  0  0.053888  0  3.971726  0  0  0.05323  0  3.995611  0  -0.011443  0  -0.014195  0.054318  0  3.955355  0
C  C82  1  0.94049624  0.78980828  0.99099984  1  0  0.043984  0  3.69752  0  0  0.057  0  3.945015  0  0  0.056609  0  3.968939  0  -0.023886  0  -0.012416  0.057609  0  3.9288  0
C  C83  1  0.05950601  0.21019281  0.00900056  1  0  0.044098  0  3.697479  0  0  0.057048  0  3.945063  0  0  0.056648  0  3.968984  0  -0.023912  0  -0.012418  0.057655  0  3.928847  0
C  C84  1  0.22937972  0.73187193  0.86727333  1  0  -0.04514  0  3.70743  0  0  -0.058401  0  3.95304  0  0  -0.057921  0  3.973396  0  -0.111047  0  -0.066042  -0.059114  0  3.939021  0
C  C85  1  0.77062043  0.26812603  0.13272515  1  0  -0.04503  0  3.707433  0  0  -0.058262  0  3.953071  0  0  -0.05778  0  3.973424  0  -0.111109  0  -0.066016  -0.058972  0  3.939048  0
C  C86  1  0.34139174  0.84436300  0.86723154  1  0  -0.136748  0  3.729965  0  0  -0.156952  0  3.976308  0  0  -0.162198  0  3.996346  0  -0.01131  0  -0.089943  -0.153679  0  3.963375  0
C  C87  1  0.65860918  0.15563392  0.13276763  1  0  -0.136857  0  3.730082  0  0  -0.157098  0  3.97641  0  0  -0.162345  0  3.996445  0  -0.011268  0  -0.089968  -0.153824  0  3.963476  0
C  C88  1  0.42637714  0.85248730  0.79958595  1  0  0.147413  0  3.8082  0  0  0.161992  0  4.038514  0  0  0.168864  0  4.060259  0  -0.019869  0  0.009589  0.157679  0  4.023517  0
C  C89  1  0.57362568  0.14750857  0.20041409  1  0  0.147538  0  3.80815  0  0  0.162186  0  4.038354  0  0  0.169065  0  4.060086  0  -0.019899  0  0.009636  0.157871  0  4.023358  0
C  C90  1  0.43113150  0.73324131  0.74260221  1  0  -0.179092  0  3.727879  0  0  -0.194223  0  3.973419  0  0  -0.203136  0  3.994958  0  -0.032697  0  -0.0871  -0.188605  0  3.958682  0
C  C91  1  0.56886898  0.26675769  0.25739641  1  0  -0.179137  0  3.727797  0  0  -0.19429  0  3.973314  0  0  -0.203205  0  3.994854  0  -0.032672  0  -0.087117  -0.188671  0  3.958579  0
C  C92  1  0.50258528  0.74720692  0.67440626  1  0  0.126054  0  3.701134  0  0  0.096461  0  3.948243  0  0  0.103269  0  3.967272  0  0.458373  0  0.046278  0.091908  0  3.935116  0
C  C93  1  0.49741376  0.25279104  0.32559269  1  0  0.126127  0  3.701073  0  0  0.096519  0  3.948205  0  0  0.10332  0  3.967234  0  0.458412  0  0.046316  0.091967  0  3.935076  0
C  C94  1  0.57603667  0.98783764  0.71766357  1  0  0.142388  0  3.692017  0  0  0.110676  0  3.944679  0  0  0.118879  0  3.962651  0  0.482437  0  0.050403  0.105274  0  3.932384  0
C  C95  1  0.42395982  0.01215928  0.28233553  1  0  0.142391  0  3.692121  0  0  0.110683  0  3.94477  0  0  0.118887  0  3.962741  0  0.482461  0  0.050403  0.10528  0  3.932475  0
C  C96  1  0.50580703  0.98240819  0.78715509  1  0  -0.168828  0  3.695253  0  0  -0.185263  0  3.941624  0  0  -0.194263  0  3.963487  0  -0.031938  0  -0.083283  -0.179253  0  3.926638  0
C  C97  1  0.49418946  0.01758872  0.21284205  1  0  -0.168916  0  3.695157  0  0  -0.185355  0  3.941507  0  0  -0.194357  0  3.963368  0  -0.031771  0  -0.083306  -0.179342  0  3.92652  0
C  C98  1  0.18191837  0.63420468  0.17242835  1  0  -0.322841  0  3.724063  0  0  -0.398373  0  3.956907  0  0  -0.400496  0  3.967837  0  -0.094639  0  -0.241914  -0.396606  0  3.948686  0
C  C99  1  0.81808211  0.36579432  0.82757157  1  0  -0.32287  0  3.724039  0  0  -0.39836  0  3.956926  0  0  -0.400483  0  3.967855  0  -0.094634  0  -0.241921  -0.396593  0  3.948705  0
C  C100  1  0.32868159  0.61466329  0.02933214  1  0  -0.320181  0  3.753667  0  0  -0.397976  0  3.990832  0  0  -0.399748  0  4.001003  0  -0.032063  0  -0.24184  -0.39622  0  3.983516  0
C  C101  1  0.67131712  0.38533363  0.97066863  1  0  -0.320205  0  3.753792  0  0  -0.397974  0  3.990914  0  0  -0.399748  0  4.001086  0  -0.031917  0  -0.241766  -0.396218  0  3.983598  0
C  C102  1  0.94653407  0.81847331  0.83053716  1  0  -0.322734  0  3.731938  0  0  -0.399506  0  3.966935  0  0  -0.40153  0  3.97779  0  -0.122139  0  -0.243958  -0.398103  0  3.958972  0
C  C103  1  0.05346674  0.18152673  0.16946356  1  0  -0.322776  0  3.731985  0  0  -0.399535  0  3.966984  0  0  -0.401562  0  3.977837  0  -0.122187  0  -0.243987  -0.398135  0  3.959021  0
C  C104  1  0.80504063  0.85017294  0.97418746  1  0  -0.327249  0  3.75535  0  0  -0.405553  0  3.993195  0  0  -0.407892  0  4.004314  0  -0.034784  0  -0.246991  -0.403853  0  3.985823  0
C  C105  1  0.19496017  0.14982711  0.02581195  1  0  -0.327425  0  3.755364  0  0  -0.405679  0  3.99322  0  0  -0.40803  0  4.004339  0  -0.034775  0  -0.247004  -0.403978  0  3.985849  0
C  C106  1  0.86572422  0.57220722  0.58862612  1  0  -0.068205  0  3.77614  0  0  -0.038517  0  4.00171  0  0  -0.048127  0  4.025137  0  -0.06753  0  -0.020698  -0.032636  0  3.986546  0
C  C107  1  0.13427824  0.42779805  0.41137727  1  0  -0.068238  0  3.776027  0  0  -0.038533  0  4.001576  0  0  -0.048144  0  4.025003  0  -0.067245  0  -0.020764  -0.032653  0  3.986411  0
C  C108  1  0.02618165  0.59306259  0.61417630  1  0  -0.056779  0  3.73291  0  0  -0.083897  0  3.983595  0  0  -0.081131  0  4.002263  0  0.058332  0  -0.079917  -0.08453  0  3.970092  0
C  C109  1  0.97382003  0.40694373  0.38582706  1  0  -0.056743  0  3.732716  0  0  -0.083843  0  3.983391  0  0  -0.081079  0  4.00206  0  0.058108  0  -0.079809  -0.084475  0  3.96989  0
C  C110  1  0.08553923  0.47884987  0.61966567  1  0  -0.090651  0  3.799399  0  0  -0.101425  0  4.056462  0  0  -0.106758  0  4.078742  0  -0.13741  0  -0.097802  -0.098033  0  4.040772  0
C  C111  1  0.91446323  0.52115541  0.38033838  1  0  -0.090641  0  3.799467  0  0  -0.101447  0  4.056543  0  0  -0.106779  0  4.078826  0  -0.137152  0  -0.097811  -0.098055  0  4.040851  0
C  C112  1  0.98635989  0.34462012  0.60299360  1  0  -0.051423  0  3.723052  0  0  -0.080646  0  3.972787  0  0  -0.07744  0  3.991574  0  0.015756  0  -0.08369  -0.081759  0  3.959091  0
C  C113  1  0.01364224  0.65538411  0.39701096  1  0  -0.051365  0  3.72319  0  0  -0.080587  0  3.972974  0  0  -0.077374  0  3.991743  0  0.015702  0  -0.083703  -0.081699  0  3.95928  0
C  C114  1  0.82625212  0.32357554  0.57992337  1  0  -0.088842  0  3.784789  0  0  -0.058873  0  4.013885  0  0  -0.069307  0  4.037313  0  -0.07334  0  -0.025799  -0.052471  0  3.999025  0
C  C115  1  0.17374812  0.67642973  0.42008032  1  0  -0.088931  0  3.784832  0  0  -0.058976  0  4.013933  0  0  -0.069408  0  4.03736  0  -0.073354  0  -0.025801  -0.052578  0  3.999074  0
C  C116  1  0.76614751  0.43747363  0.57123317  1  0  -0.071554  0  3.690221  0  0  -0.107394  0  3.932312  0  0  -0.10427  0  3.950648  0  -0.098026  0  -0.078721  -0.109989  0  3.921505  0
C  C117  1  0.23385495  0.56253165  0.42877088  1  0  -0.071605  0  3.690098  0  0  -0.10741  0  3.93219  0  0  -0.104287  0  3.950525  0  -0.098079  0  -0.078731  -0.109999  0  3.921388  0
C  C118  1  0.80044318  0.69275151  0.57620375  1  0  0.61446  0  3.949141  0  0  0.567008  0  4.237007  0  0  0.600607  0  4.23162  0  1.563998  0  0.189035  0.544229  0  4.239585  0
C  C119  1  0.19955849  0.30725481  0.42379634  1  0  0.614521  0  3.94882  0  0  0.567043  0  4.236719  0  0  0.60064  0  4.231332  0  1.563953  0  0.189056  0.544264  0  4.239298  0
C  C120  1  0.71982666  0.17991170  0.56476072  1  0  0.65925  0  3.904132  0  0  0.60636  0  4.1965  0  0  0.641987  0  4.187172  0  1.542579  0  0.21131  0.582109  0  4.202145  0
C  C121  1  0.28017358  0.82009358  0.43524036  1  0  0.659347  0  3.904074  0  0  0.606477  0  4.196412  0  0  0.642102  0  4.187084  0  1.542517  0  0.211315  0.582229  0  4.202058  0
N  N122  1  0.69657988  0.85421209  0.40893625  1  0  -0.319894  0  3.267371  0  0  -0.241682  0  3.527825  0  0  -0.260887  0  3.545662  0  -1.236298  0  -0.321174  -0.229036  0  3.515648  0
N  N123  1  0.30341682  0.14578900  0.59106259  1  0  -0.31995  0  3.267459  0  0  -0.241728  0  3.527908  0  0  -0.260934  0  3.545747  0  -1.236366  0  -0.321206  -0.229078  0  3.515725  0
N  N124  1  0.57328808  0.87288795  0.66091167  1  0  -0.313262  0  3.240751  0  0  -0.236641  0  3.504752  0  0  -0.255742  0  3.521051  0  -1.235209  0  -0.314605  -0.223357  0  3.493768  0
N  N125  1  0.42671018  0.12711105  0.33908724  1  0  -0.313248  0  3.240812  0  0  -0.236662  0  3.504861  0  0  -0.255763  0  3.521162  0  -1.235213  0  -0.314634  -0.223376  0  3.493875  0
O  O126  1  0.65375827  0.66532415  0.53727467  1  0  -0.64719  0  2.018966  0  0  -0.585317  0  2.271457  0  0  -0.613643  0  2.26088  0  -1.18141  0  -0.326632  -0.564378  0  2.277349  0
O  O127  1  0.34624497  0.33468008  0.46272550  1  0  -0.647185  0  2.018811  0  0  -0.585314  0  2.271332  0  0  -0.613633  0  2.260744  0  -1.181478  0  -0.326626  -0.564374  0  2.277222  0
O  O128  1  0.88884698  0.81663353  0.60285622  1  0  -0.623  0  1.947236  0  0  -0.569438  0  2.185593  0  0  -0.594255  0  2.176757  0  -1.181822  0  -0.31915  -0.550902  0  2.191925  0
O  O129  1  0.11115503  0.18337383  0.39714271  1  0  -0.623047  0  1.947062  0  0  -0.569471  0  2.185427  0  0  -0.594287  0  2.176591  0  -1.181964  0  -0.319178  -0.550935  0  2.19176  0
O  O130  1  0.57581205  0.16334322  0.54169948  1  0  -0.655986  0  2.146013  0  0  -0.597141  0  2.433567  0  0  -0.623692  0  2.418744  0  -1.185137  0  -0.321605  -0.577937  0  2.442441  0
O  O131  1  0.42418996  0.83666414  0.45829945  1  0  -0.656024  0  2.145955  0  0  -0.597153  0  2.43345  0  0  -0.623705  0  2.418629  0  -1.185152  0  -0.321556  -0.577937  0  2.442296  0
O  O132  1  0.78362343  0.08196639  0.57975718  1  0  -0.635812  0  2.068346  0  0  -0.567115  0  2.341493  0  0  -0.594858  0  2.326881  0  -1.171035  0  -0.316775  -0.547275  0  2.351881  0
O  O133  1  0.21637759  0.91803783  0.42024329  1  0  -0.635864  0  2.068326  0  0  -0.567182  0  2.341495  0  0  -0.594923  0  2.326883  0  -1.171016  0  -0.31683  -0.547344  0  2.351885  0
