# generated using pymatgen
data_CuH15C14N3O4
_symmetry_space_group_name_H-M   'P 1'
_cell_length_a   7.01195889
_cell_length_b   10.96657155
_cell_length_c   25.69678548
_cell_angle_alpha   89.99648881
_cell_angle_beta   100.30325187
_cell_angle_gamma   89.99071843
_symmetry_Int_Tables_number   1
_chemical_formula_structural   CuH15C14N3O4
_chemical_formula_sum   'Cu4 H60 C56 N12 O16'
_cell_volume   1944.14613015
_cell_formula_units_Z   4
loop_
 _symmetry_equiv_pos_site_id
 _symmetry_equiv_pos_as_xyz
  1  'x, y, z'
loop_
 _atom_site_type_symbol
 _atom_site_label
 _atom_site_symmetry_multiplicity
 _atom_site_fract_x
 _atom_site_fract_y
 _atom_site_fract_z
 _atom_site_occupancy
 _atom_site_pbe_bader_charge
 _atom_site_pbe_bader_spin_density
 _atom_site_pbe_cm5_charge
 _atom_site_pbe_ddec_charge
 _atom_site_pbe_ddec_spin_density
 _atom_site_pbe_ddec_sum_bond_order
 _atom_site_pbe_magmom
Cu  Cu0  1  0.75588903  0.22902559  0.27360445  1  1.054168  0.566123  0.758397  0.758394  0.743364  2.307064  0.564
Cu  Cu1  1  0.24418491  0.72897592  0.22641123  1  1.053779  -0.566144  0.758601  0.758576  -0.788573  2.306936  -0.564
Cu  Cu2  1  0.24416015  0.77098148  0.72640889  1  1.053969  0.566217  0.758566  0.758727  0.743487  2.306609  0.565
Cu  Cu3  1  0.75569710  0.27105669  0.77356743  1  1.053653  0.566271  0.758554  0.75836  0.743591  2.307453  0.565
H  H4  1  0.73431005  0.50263801  0.25350325  1  0.184408  0.002866  0.118565  0.098229  0.001365  1.043044  0.002
H  H5  1  0.26563703  0.00256292  0.24649401  1  0.185034  -0.002865  0.118481  0.09819  -0.001449  1.043044  -0.002
H  H6  1  0.26570116  0.49735903  0.74650730  1  0.18453  0.00285  0.118484  0.098079  0.001355  1.043238  0.002
H  H7  1  0.73428348  0.99744143  0.75348980  1  0.185318  0.002849  0.118376  0.097946  0.001355  1.043141  0.002
H  H8  1  0.79707410  0.63776051  0.17946102  1  0.128948  0.001418  0.114673  0.131138  0.000752  1.006085  0.001
H  H9  1  0.20289933  0.13769535  0.32053437  1  0.130002  -0.001417  0.114674  0.131274  -0.000795  1.005734  -0.001
H  H10  1  0.20294681  0.36223197  0.82054789  1  0.128783  0.001353  0.114678  0.131138  0.000701  1.005999  0.001
H  H11  1  0.79707089  0.86231720  0.67945340  1  0.129957  0.001352  0.114663  0.13126  0.000701  1.00571  0.001
H  H12  1  0.89332744  0.54090483  0.10014657  1  0.077867  0.0  0.110868  0.103761  -8e-06  0.98284  0.0
H  H13  1  0.10668684  0.04084235  0.39985500  1  0.078417  4e-06  0.110958  0.103982  5e-06  0.982453  0.0
H  H14  1  0.10669934  0.45908583  0.89986293  1  0.077549  -3e-06  0.110912  0.103861  -1.2e-05  0.982813  0.0
H  H15  1  0.89333713  0.95917657  0.60014192  1  0.078285  2e-06  0.110984  0.104008  -8e-06  0.982442  0.0
H  H16  1  0.92717463  0.31188251  0.09758035  1  0.056149  0.002069  0.109159  0.115902  0.001055  0.990329  0.001
H  H17  1  0.07281306  0.81183534  0.40243010  1  0.081997  -0.002052  0.10918  0.115976  -0.001117  0.990241  -0.001
H  H18  1  0.07282519  0.68809903  0.90243061  1  0.056393  0.002101  0.109098  0.115892  0.001075  0.990471  0.001
H  H19  1  0.92721767  0.18818268  0.59757133  1  0.056363  0.002101  0.109125  0.115862  0.001075  0.990113  0.001
H  H20  1  0.79254597  0.10969424  0.14011911  1  0.075795  0.003089  0.116304  0.107321  0.001624  0.951758  0.001
H  H21  1  0.20746621  0.60962101  0.35989213  1  0.075383  -0.003092  0.116357  0.107403  -0.001722  0.951587  -0.001
H  H22  1  0.20744131  0.89030736  0.85988714  1  0.075642  0.003129  0.116295  0.107269  0.001642  0.951712  0.001
H  H23  1  0.79258192  0.39040430  0.64010363  1  0.075742  0.003131  0.116331  0.107373  0.001642  0.951788  0.001
H  H24  1  0.02479594  0.13061219  0.18010294  1  0.083834  0.000344  0.116204  0.116571  0.000171  0.972626  0.0
H  H25  1  0.97520612  0.63057485  0.31990707  1  0.084004  -0.000343  0.116037  0.116392  -0.00018  0.972822  0.0
H  H26  1  0.97519160  0.86938121  0.81990449  1  0.083917  0.000342  0.116187  0.116488  0.000135  0.972748  0.0
H  H27  1  0.02481444  0.36942037  0.68010027  1  0.084311  0.00034  0.116122  0.116492  0.000132  0.97287  0.0
H  H28  1  0.77620594  0.93025464  0.19269316  1  0.159638  0.009648  0.123015  0.109378  0.005119  0.991514  0.007
H  H29  1  0.22376185  0.43018441  0.30731479  1  0.158426  -0.009654  0.123161  0.109707  -0.005421  0.991079  -0.007
H  H30  1  0.22374333  0.06974423  0.80731654  1  0.159414  0.00969  0.123058  0.109488  0.005198  0.991263  0.007
H  H31  1  0.77630460  0.56985913  0.69268586  1  0.158073  0.009695  0.123124  0.109749  0.005195  0.991052  0.007
H  H32  1  0.52816069  0.04533735  0.40284831  1  0.077017  7.5e-05  0.102886  0.070496  7.3e-05  0.985341  0.0
H  H33  1  0.47177704  0.54525855  0.09715152  1  0.077666  -7e-05  0.103025  0.070698  -7.6e-05  0.985046  0.0
H  H34  1  0.47179155  0.95468431  0.59716188  1  0.077453  4.6e-05  0.102959  0.070648  3.8e-05  0.985345  0.0
H  H35  1  0.52831989  0.45476858  0.90285051  1  0.078475  4.3e-05  0.103099  0.07093  3.5e-05  0.985087  0.0
H  H36  1  0.78262930  0.02589086  0.42088242  1  0.052389  0.000104  0.101842  0.063945  7.5e-05  0.979397  0.0
H  H37  1  0.21730550  0.52586792  0.07912678  1  0.052107  -9.6e-05  0.101932  0.064028  -7.8e-05  0.9795  0.0
H  H38  1  0.21732566  0.97413171  0.57912707  1  0.051521  7.9e-05  0.101862  0.063935  5.7e-05  0.979281  0.0
H  H39  1  0.78278699  0.47417016  0.92087471  1  0.052276  8.6e-05  0.101967  0.064145  6.2e-05  0.979203  0.0
H  H40  1  0.47666912  0.82839039  0.43074937  1  0.021043  1.3e-05  0.08836  0.122704  4e-06  1.023907  0.0
H  H41  1  0.52326211  0.32829036  0.06925798  1  0.021783  -1.3e-05  0.088434  0.122972  -7e-06  1.023527  0.0
H  H42  1  0.52329066  0.17163036  0.56925599  1  0.021126  0.00012  0.088442  0.122869  6e-05  1.023876  0.0
H  H43  1  0.47679150  0.67172401  0.93074303  1  0.021859  0.00012  0.088448  0.122978  6e-05  1.023784  0.0
H  H44  1  0.60913391  0.91284724  0.48457889  1  0.029704  0.00022  0.09168  0.123226  9.7e-05  1.007213  0.0
H  H45  1  0.39078266  0.41279698  0.01543100  1  0.029941  -0.000223  0.091792  0.123329  -0.000111  1.0073  0.0
H  H46  1  0.39082026  0.08717443  0.51542707  1  0.030214  0.000227  0.091771  0.123424  0.000101  1.007221  0.0
H  H47  1  0.60928713  0.58722650  0.98457170  1  0.029926  0.000221  0.091766  0.123496  9.6e-05  1.00718  0.0
H  H48  1  0.73166055  0.80823626  0.44891161  1  0.031492  -1.4e-05  0.091613  0.125312  -2e-05  0.997036  0.0
H  H49  1  0.26826655  0.30820766  0.05110508  1  0.031324  1.3e-05  0.091579  0.125295  1.5e-05  0.997299  0.0
H  H50  1  0.26829678  0.19178358  0.55109563  1  0.031278  0.00013  0.091529  0.125105  6.3e-05  0.997155  0.0
H  H51  1  0.73178198  0.69183041  0.94889889  1  0.030438  0.000131  0.091611  0.125434  6.4e-05  0.997459  0.0
H  H52  1  0.80050715  0.40940133  0.43224172  1  0.06834  -8.6e-05  0.096488  0.147495  -0.000112  0.988326  0.0
H  H53  1  0.19980420  0.90964646  0.06781378  1  0.072484  0.000173  0.096648  0.147833  0.00015  0.987478  0.0
H  H54  1  0.19981302  0.59038688  0.56778863  1  0.071624  -0.000105  0.096571  0.147741  -0.00014  0.987828  0.0
H  H55  1  0.79991360  0.09021018  0.93213692  1  0.072975  -0.000139  0.096593  0.147771  -0.000158  0.987489  0.0
H  H56  1  0.76803290  0.53590864  0.38861777  1  0.053455  3.8e-05  0.093739  0.147845  1.9e-05  0.998379  0.0
H  H57  1  0.23219296  0.03604056  0.11148779  1  0.052526  -3.7e-05  0.094326  0.148393  -3.3e-05  0.997453  0.0
H  H58  1  0.23233483  0.46399627  0.61147768  1  0.053463  0.000167  0.094318  0.148497  8.8e-05  0.997294  0.0
H  H59  1  0.76750444  0.96389724  0.88841663  1  0.053797  0.000166  0.094192  0.148256  9e-05  0.997904  0.0
H  H60  1  0.00826596  0.49267965  0.42143614  1  0.047423  0.002417  0.087077  0.131923  0.001164  1.01846  0.001
H  H61  1  0.99200106  0.99290788  0.07862875  1  0.047589  -0.002376  0.087142  0.132093  -0.001211  1.01878  -0.001
H  H62  1  0.99209214  0.50712314  0.57862897  1  0.048603  0.002754  0.087118  0.132144  0.001373  1.018596  0.001
H  H63  1  0.00770814  0.00697885  0.92128347  1  0.006447  0.002775  0.087078  0.132038  0.001343  1.018983  0.001
C  C64  1  0.77822463  0.46503897  0.21826843  1  0.464452  -0.001459  0.049213  0.10052  -9.4e-05  3.920591  -0.002
C  C65  1  0.22171469  0.96496877  0.28172826  1  0.463055  0.001463  0.049343  0.100622  -0.000207  3.920525  0.002
C  C66  1  0.22178624  0.53495989  0.78174055  1  0.464727  -0.001614  0.049166  0.100423  -0.00024  3.920071  -0.002
C  C67  1  0.77822388  0.03504195  0.71825926  1  0.462565  -0.001615  0.049372  0.100834  -0.000244  3.92047  -0.002
C  C68  1  0.81071634  0.53913977  0.17687050  1  -0.016401  0.007404  -0.078298  -0.120697  0.005105  3.93283  0.006
C  C69  1  0.18923383  0.03907760  0.32312432  1  -0.016324  -0.007402  -0.078426  -0.120797  -0.00541  3.932721  -0.006
C  C70  1  0.18930032  0.46085272  0.82313867  1  -0.016519  0.007388  -0.07825  -0.120499  0.005031  3.932261  0.006
C  C71  1  0.81073249  0.96093585  0.67686527  1  -0.015747  0.007385  -0.078359  -0.120722  0.00503  3.93256  0.006
C  C72  1  0.86449551  0.48413328  0.13271569  1  -0.056162  -0.004402  -0.065057  -0.020464  -0.00309  3.978936  -0.003
C  C73  1  0.13548385  0.98407328  0.36728296  1  -0.056085  0.004403  -0.065023  -0.020612  0.00292  3.978486  0.003
C  C74  1  0.13551672  0.51585738  0.86729294  1  -0.055585  -0.004224  -0.064944  -0.020483  -0.003003  3.978948  -0.003
C  C75  1  0.86451518  0.01594474  0.63271159  1  -0.055822  -0.004223  -0.065076  -0.020722  -0.003001  3.978131  -0.003
C  C76  1  0.88309109  0.35769220  0.13118273  1  0.005827  0.005183  -0.086479  -0.18914  0.00379  3.976258  0.004
C  C77  1  0.11687722  0.85763496  0.36882214  1  -0.020368  -0.005201  -0.086631  -0.189287  -0.004017  3.97602  -0.004
C  C78  1  0.11691416  0.64229846  0.86882684  1  0.004946  0.004992  -0.086439  -0.189056  0.003653  3.976119  0.004
C  C79  1  0.88312830  0.14238123  0.63117574  1  0.004758  0.00499  -0.086546  -0.189149  0.003653  3.975583  0.004
C  C80  1  0.84808050  0.28859193  0.17409870  1  0.494186  -0.000173  0.125869  0.24363  0.00056  3.939421  0.0
C  C81  1  0.15188081  0.78853160  0.32590673  1  0.493862  0.000169  0.125674  0.243115  -0.000892  3.939535  0.0
C  C82  1  0.15191888  0.71140420  0.82591029  1  0.494817  -0.000245  0.125811  0.243284  0.000512  3.938871  0.0
C  C83  1  0.84810130  0.21148277  0.67408922  1  0.493857  -0.000241  0.125795  0.243404  0.00051  3.939788  0.0
C  C84  1  0.86903035  0.15214793  0.17688296  1  0.317346  0.005523  -0.052316  -0.106747  0.004466  3.957196  0.003
C  C85  1  0.13096906  0.65208903  0.32312801  1  0.318203  -0.005521  -0.052077  -0.106581  -0.004805  3.957134  -0.003
C  C86  1  0.13096136  0.84785185  0.82312383  1  0.318278  0.005539  -0.052338  -0.106656  0.00447  3.957236  0.003
C  C87  1  0.86904233  0.34792899  0.67687046  1  0.317406  0.005543  -0.052126  -0.106836  0.004468  3.957729  0.003
C  C88  1  0.75895551  0.99019817  0.22585245  1  0.581816  -0.002885  0.073791  0.14032  -0.001465  3.967832  -0.003
C  C89  1  0.24102110  0.49013341  0.27415582  1  0.581717  0.002893  0.073502  0.139659  0.001048  3.96804  0.003
C  C90  1  0.24099748  0.00980981  0.77415464  1  0.581276  -0.00297  0.073774  0.140201  -0.001506  3.968166  -0.003
C  C91  1  0.75900840  0.50990649  0.72584011  1  0.581658  -0.002985  0.073286  0.139376  -0.001509  3.968157  -0.003
C  C92  1  0.70183771  0.93291717  0.27010752  1  0.160728  0.002554  -0.056606  -0.260609  0.001494  4.154194  0.003
C  C93  1  0.29808968  0.43284351  0.22989714  1  0.162157  -0.00255  -0.056802  -0.260829  -0.001643  4.154097  -0.003
C  C94  1  0.29808524  0.06711088  0.72990015  1  0.161102  0.002605  -0.056785  -0.260685  0.001478  4.154633  0.003
C  C95  1  0.70194000  0.56719548  0.77009958  1  0.162241  0.002597  -0.056748  -0.261106  0.001472  4.154522  0.003
C  C96  1  0.68806121  0.99508340  0.31811762  1  1.361584  -0.001343  0.214934  0.498289  -7.1e-05  4.162503  -0.002
C  C97  1  0.31191085  0.49502790  0.18189048  1  1.361272  0.001341  0.215026  0.498577  -0.000194  4.162515  0.002
C  C98  1  0.31191663  0.00494647  0.68189145  1  1.362103  -0.001465  0.214928  0.498288  -0.000206  4.162479  -0.002
C  C99  1  0.68810001  0.50500835  0.81810562  1  1.362204  -0.001464  0.214705  0.49818  -0.000206  4.162704  -0.002
C  C100  1  0.64515621  0.97728083  0.40782691  1  0.384644  0.000437  -0.067671  0.089529  0.000464  3.894888  0.0
C  C101  1  0.35478433  0.47722682  0.09218066  1  0.384627  -0.000435  -0.067791  0.089395  -0.0005  3.894966  0.0
C  C102  1  0.35479858  0.02274357  0.59218180  1  0.385067  0.000394  -0.067738  0.089503  0.00042  3.894767  0.0
C  C103  1  0.64530545  0.52280670  0.90782153  1  0.382469  0.000393  -0.067934  0.089028  0.000421  3.894988  0.0
C  C104  1  0.61400635  0.87557668  0.44515159  1  -0.032122  4.7e-05  -0.24528  -0.393912  1.6e-05  3.977533  0.0
C  C105  1  0.38592748  0.37551644  0.05486064  1  -0.03272  -4.7e-05  -0.245562  -0.394426  -2.6e-05  3.977746  0.0
C  C106  1  0.38595379  0.12444498  0.55485535  1  -0.032168  0.000122  -0.245387  -0.394105  8.1e-05  3.97759  0.0
C  C107  1  0.61413670  0.62451161  0.94514266  1  -0.031521  0.000121  -0.245593  -0.394778  7.9e-05  3.978191  0.0
C  C108  1  0.66740729  0.80662401  0.26816101  1  0.832557  0.000392  0.171599  0.279519  0.000546  4.127975  0.0
C  C109  1  0.33253194  0.30654086  0.23184321  1  0.832569  -0.00039  0.171483  0.279429  -0.000586  4.128217  0.0
C  C110  1  0.33253185  0.19340404  0.73184836  1  0.832033  -0.000992  0.17144  0.279359  -0.000799  4.128391  -0.001
C  C111  1  0.66750729  0.69349721  0.76815772  1  0.832591  -0.000987  0.171671  0.279925  -0.000796  4.127825  -0.001
C  C112  1  0.88253494  0.37324090  0.35741278  1  1.556327  -0.00134  0.190163  0.666069  -0.000418  4.165288  -0.003
C  C113  1  0.11768275  0.87332755  0.14262585  1  1.555223  0.001341  0.189628  0.665063  0.000122  4.166583  0.003
C  C114  1  0.11772238  0.62672513  0.64259993  1  1.556106  -0.00092  0.189761  0.665615  -9.4e-05  4.166143  -0.003
C  C115  1  0.88201301  0.12666222  0.85732920  1  1.555653  -0.000934  0.189912  0.665213  -9.5e-05  4.166926  -0.003
C  C116  1  0.86502299  0.45956015  0.40261818  1  -0.114535  0.007441  -0.247819  -0.513688  0.005583  3.931023  0.005
C  C117  1  0.13523538  0.95973228  0.09744856  1  -0.11827  -0.007408  -0.248594  -0.514682  -0.00587  3.929781  -0.005
C  C118  1  0.13531835  0.54030100  0.59743624  1  -0.119112  0.007634  -0.248397  -0.514741  0.005746  3.929793  0.005
C  C119  1  0.86446816  0.04018545  0.90248335  1  -0.078582  0.007544  -0.248441  -0.514433  0.005703  3.929925  0.005
N  N120  1  0.79780732  0.34307967  0.21667595  1  -1.244064  0.104583  -0.345734  -0.278692  0.070606  3.607595  0.091
N  N121  1  0.20214259  0.84301593  0.28332762  1  -1.244295  -0.104584  -0.345705  -0.278627  -0.074914  3.607775  -0.091
N  N122  1  0.20219803  0.65691829  0.78333401  1  -1.244494  0.104524  -0.345663  -0.278577  0.070536  3.60735  0.091
N  N123  1  0.79779939  0.15699662  0.71666234  1  -1.244187  0.104515  -0.345787  -0.278876  0.070531  3.608064  0.091
N  N124  1  0.79832366  0.10599827  0.22298200  1  -1.176127  0.097787  -0.402752  -0.301275  0.065167  3.627071  0.082
N  N125  1  0.20168543  0.60594549  0.27702916  1  -1.175695  -0.097799  -0.402746  -0.300881  -0.069116  3.626947  -0.082
N  N126  1  0.20165196  0.89400607  0.77702349  1  -1.176478  0.097634  -0.402864  -0.301303  0.065061  3.627146  0.082
N  N127  1  0.79830610  0.39408803  0.72296398  1  -1.175197  0.097611  -0.402554  -0.300321  0.065048  3.62645  0.082
N  N128  1  0.63631318  0.70141736  0.26743217  1  -1.233487  0.000965  -0.332813  -0.43339  0.000539  2.876876  0.0
N  N129  1  0.36362074  0.20132988  0.23257131  1  -1.23466  -0.000963  -0.332636  -0.433289  -0.000596  2.877129  0.0
N  N130  1  0.36366577  0.29860248  0.73257537  1  -1.233167  -0.000693  -0.332607  -0.4332  -0.00044  2.877172  0.0
N  N131  1  0.63641419  0.79870819  0.76743610  1  -1.235047  -0.000698  -0.332752  -0.433521  -0.000443  2.876755  0.0
O  O132  1  0.71114879  0.10736716  0.32725398  1  -1.124957  0.073378  -0.297981  -0.482969  0.049048  2.430422  0.067
O  O133  1  0.28887711  0.60732404  0.17275733  1  -1.12424  -0.073357  -0.297896  -0.482916  -0.052059  2.430752  -0.067
O  O134  1  0.28890100  0.89265724  0.67276211  1  -1.124975  0.073287  -0.29783  -0.482794  0.04899  2.430525  0.067
O  O135  1  0.71107781  0.39270948  0.82723267  1  -1.124392  0.073268  -0.297628  -0.482632  0.048984  2.431064  0.067
O  O136  1  0.64967026  0.92076614  0.35712084  1  -1.055474  0.009935  -0.168411  -0.234822  0.00651  2.523923  0.009
O  O137  1  0.35029538  0.42071165  0.14288904  1  -1.056128  -0.00993  -0.168436  -0.234983  -0.006914  2.524035  -0.009
O  O138  1  0.35027694  0.07926464  0.64288606  1  -1.056024  0.009825  -0.168437  -0.234987  0.006454  2.524046  0.009
O  O139  1  0.64978463  0.57932642  0.85711438  1  -1.055729  0.00982  -0.168331  -0.234782  0.006452  2.523904  0.009
O  O140  1  0.72228457  0.35694202  0.32399024  1  -1.114617  0.106759  -0.347599  -0.546516  0.069503  2.263236  0.095
O  O141  1  0.27792351  0.85690243  0.17603881  1  -1.114775  -0.106752  -0.34759  -0.546364  -0.073752  2.263696  -0.095
O  O142  1  0.27790794  0.64306504  0.67604102  1  -1.114807  0.107637  -0.34775  -0.546676  0.070062  2.263769  0.096
O  O143  1  0.72177553  0.14315299  0.82392454  1  -1.114217  0.107676  -0.347621  -0.546312  0.070084  2.264511  0.096
O  O144  1  0.04039064  0.32266500  0.35430586  1  -1.193168  0.000538  -0.351555  -0.608563  -3.3e-05  2.083742  0.001
O  O145  1  0.95979748  0.82280804  0.14572430  1  -1.191623  -0.000534  -0.351137  -0.607763  -0.00012  2.084093  -0.001
O  O146  1  0.95985633  0.67734481  0.64566050  1  -1.192618  0.002399  -0.351287  -0.608204  0.001163  2.083771  0.002
O  O147  1  0.03991639  0.17717169  0.85424109  1  -1.192835  0.002389  -0.351288  -0.607879  0.001161  2.084231  0.002
