# generated using pymatgen
data_NiH12C12(NCl)2
_symmetry_space_group_name_H-M   'P 1'
_cell_length_a   5.22390354
_cell_length_b   8.82040448
_cell_length_c   13.68415828
_cell_angle_alpha   88.11392251
_cell_angle_beta   82.32223679
_cell_angle_gamma   83.30069642
_symmetry_Int_Tables_number   1
_chemical_formula_structural   NiH12C12(NCl)2
_chemical_formula_sum   'Ni2 H24 C24 N4 Cl4'
_cell_volume   620.50885408
_cell_formula_units_Z   2
loop_
 _symmetry_equiv_pos_site_id
 _symmetry_equiv_pos_as_xyz
  1  'x, y, z'
loop_
 _atom_site_type_symbol
 _atom_site_label
 _atom_site_symmetry_multiplicity
 _atom_site_fract_x
 _atom_site_fract_y
 _atom_site_fract_z
 _atom_site_occupancy
 _atom_site_hle17_ddec_charge
 _atom_site_hle17_ddec_spin_density
 _atom_site_hle17_ddec_sum_bond_order
 _atom_site_hle17_magmom
 _atom_site_hse06_10hf_ddec_charge
 _atom_site_hse06_10hf_ddec_spin_density
 _atom_site_hse06_10hf_ddec_sum_bond_order
 _atom_site_hse06_10hf_magmom
 _atom_site_hse06_ddec_charge
 _atom_site_hse06_ddec_spin_density
 _atom_site_hse06_ddec_sum_bond_order
 _atom_site_hse06_magmom
 _atom_site_pbe_cm5_charge
 _atom_site_pbe_ddec_charge
 _atom_site_pbe_ddec_spin_density
 _atom_site_pbe_ddec_sum_bond_order
 _atom_site_pbe_magmom
Ni  Ni0  1  0.90934385  0.53654782  0.74054605  1  0.666596  1.72491  2.249077  1.422  0.657513  1.792867  2.703981  1.552  0.761145  1.865368  2.620965  1.665  0.536411  0.58424  1.732252  2.765588  1.461
Ni  Ni1  1  0.09065002  0.46344934  0.25945111  1  0.666513  1.724887  2.249318  1.422  0.657424  1.79285  2.704224  1.552  0.760991  1.865322  2.621219  1.665  0.536382  0.584159  1.732229  2.765826  1.461
H  H2  1  0.48985819  0.53363472  0.61562558  1  0.071227  0.001116  0.971233  0.002  0.074695  0.000971  1.047456  0.002  0.075382  0.000575  1.046845  0.001  0.106482  0.074185  0.001345  1.047942  0.002
H  H3  1  0.51012474  0.46637047  0.38436898  1  0.071303  0.001118  0.971211  0.002  0.074796  0.000973  1.047395  0.002  0.075483  0.000575  1.046784  0.001  0.10651  0.074288  0.001346  1.047878  0.002
H  H4  1  0.28224601  0.33823006  0.53733979  1  0.115031  0.000288  0.965526  0.0  0.121308  0.000423  1.032816  0.001  0.124589  0.000228  1.032212  0.0  0.097612  0.118946  0.000656  1.033502  0.001
H  H5  1  0.71774981  0.66176821  0.46265214  1  0.11508  0.000287  0.965666  0.0  0.12135  0.000423  1.03295  0.001  0.124635  0.000228  1.032344  0.0  0.097653  0.118989  0.000656  1.033637  0.001
H  H6  1  0.78632344  0.99186241  0.67064071  1  0.108007  0.000226  0.970981  0.001  0.115045  0.000247  1.037453  0.001  0.118286  8.1e-05  1.036378  0.001  0.095971  0.111691  0.000719  1.040085  0.001
H  H7  1  0.21365415  0.00814856  0.32936492  1  0.107999  0.000226  0.970799  0.001  0.115097  0.000247  1.037216  0.001  0.11833  8.1e-05  1.036168  0.001  0.095959  0.111743  0.000719  1.039848  0.001
H  H8  1  0.97270376  0.20388980  0.74639533  1  0.073697  0.001186  0.978368  0.002  0.078875  0.001084  1.048545  0.001  0.080661  0.000721  1.046925  0.001  0.104205  0.077451  0.001536  1.049974  0.002
H  H9  1  0.02729522  0.79611876  0.25361597  1  0.073694  0.001184  0.978564  0.002  0.078866  0.001082  1.048718  0.001  0.080653  0.00072  1.047092  0.001  0.104231  0.077443  0.001534  1.050147  0.002
H  H10  1  0.21624562  0.06913355  0.52697394  1  0.086055  7e-06  0.944994  0.0  0.102264  1e-06  1.007634  0.0  0.10383  -2.1e-05  1.007494  0.0  0.08975  0.100574  5.7e-05  1.00879  0.0
H  H11  1  0.78374762  0.93086703  0.47302390  1  0.08607  6e-06  0.944989  0.0  0.102256  1e-06  1.007646  0.0  0.103821  -2.1e-05  1.007504  0.0  0.089764  0.100566  5.7e-05  1.008802  0.0
H  H12  1  0.38456364  0.92630866  0.59642601  1  0.082051  7.6e-05  0.946808  0.0  0.099354  0.000235  1.009572  0.0  0.100691  0.000138  1.009102  0.0  0.089348  0.09805  0.000376  1.01015  0.0
H  H13  1  0.61543625  0.07369759  0.40357361  1  0.081934  7.6e-05  0.946816  0.0  0.099272  0.000235  1.009548  0.0  0.100604  0.000138  1.00908  0.0  0.089339  0.097972  0.000376  1.010125  0.0
H  H14  1  0.44010577  0.74210125  0.70773277  1  0.071099  0.000979  0.980195  0.002  0.074392  0.000859  1.057288  0.002  0.076087  0.000475  1.055148  0.001  0.105348  0.073445  0.001235  1.058359  0.002
H  H15  1  0.55988266  0.25790281  0.29227326  1  0.071357  0.000978  0.980273  0.002  0.074617  0.000857  1.057382  0.002  0.076314  0.000474  1.055241  0.001  0.105486  0.073671  0.001233  1.058455  0.002
H  H16  1  0.07921746  0.89219998  0.80986255  1  0.109362  0.000421  0.94163  0.0  0.121648  0.000432  0.998405  0.001  0.124168  0.000268  0.998887  0.0  0.106961  0.120154  0.000625  0.997953  0.001
H  H17  1  0.92078081  0.10780287  0.19014380  1  0.109325  0.00042  0.941606  0.0  0.121643  0.000432  0.998339  0.001  0.12413  0.000268  0.998862  0.0  0.106963  0.120151  0.000625  0.997883  0.001
H  H18  1  0.42708063  0.71899577  0.06691932  1  0.11694  0.001151  0.952299  0.001  0.124478  0.001012  1.016091  0.001  0.12769  0.000661  1.015024  0.0  0.102938  0.122183  0.00137  1.017156  0.001
H  H19  1  0.57294176  0.28100236  0.93308311  1  0.116938  0.00115  0.952393  0.001  0.124471  0.001012  1.016177  0.001  0.127683  0.000661  1.015111  0.0  0.102961  0.122178  0.00137  1.017242  0.001
H  H20  1  0.77386247  0.57394140  0.95369618  1  0.081884  0.001397  0.98158  0.002  0.085085  0.001209  1.05467  0.002  0.087099  0.000765  1.052805  0.001  0.102512  0.083546  0.001659  1.056148  0.002
H  H21  1  0.22614870  0.42605677  0.04629799  1  0.081912  0.001397  0.981651  0.002  0.085062  0.001209  1.054771  0.002  0.087073  0.000765  1.052899  0.001  0.102518  0.083522  0.001658  1.056246  0.002
H  H22  1  0.82836356  0.86874350  0.01272449  1  0.085533  -0.000546  0.951551  0.0  0.103896  -0.000194  1.010392  0.0  0.104813  -0.000203  1.011013  0.0  0.091691  0.102875  -0.000215  1.010797  0.0
H  H23  1  0.17164765  0.13125017  0.98728732  1  0.085581  -0.000547  0.951517  0.0  0.104015  -0.000194  1.010275  0.0  0.104929  -0.000203  1.010887  0.0  0.091749  0.103001  -0.000215  1.010679  0.0
H  H24  1  0.05606589  0.89957471  0.09101179  1  0.075969  2.6e-05  0.950631  0.0  0.093142  7.1e-05  1.012153  0.0  0.094713  3.6e-05  1.011054  0.0  0.090849  0.091709  9.9e-05  1.013415  0.0
H  H25  1  0.94395404  0.10042572  0.90899363  1  0.075987  2.5e-05  0.95061  0.0  0.093131  7.1e-05  1.012182  0.0  0.094696  3.6e-05  1.011077  0.0  0.090836  0.091702  9.9e-05  1.013449  0.0
C  C26  1  0.55038452  0.41268731  0.62685749  1  0.133885  -0.016378  3.704556  -0.012  0.100788  -0.002582  3.971754  -0.002  0.110382  -0.00424  3.993594  -0.003  0.045235  0.093947  -0.001531  3.9583  -0.001
C  C27  1  0.44960728  0.58731325  0.37312872  1  0.133702  -0.016388  3.70515  -0.012  0.100595  -0.00258  3.972311  -0.002  0.110183  -0.004238  3.994153  -0.003  0.045149  0.093767  -0.00153  3.958857  -0.001
C  C28  1  0.43476248  0.30278576  0.58332122  1  -0.166673  0.012863  3.683703  0.015  -0.186561  0.005458  3.934737  0.006  -0.196612  0.004422  3.956395  0.005  -0.085196  -0.180391  0.006354  3.920855  0.007
C  C29  1  0.56524463  0.69720331  0.41666967  1  -0.166528  0.012881  3.683621  0.015  -0.186421  0.005461  3.934615  0.006  -0.196473  0.004424  3.956277  0.005  -0.085139  -0.180253  0.006356  3.920737  0.007
C  C30  1  0.51693016  0.14790031  0.59770694  1  0.168153  -0.015517  3.70078  -0.011  0.186529  -0.003055  3.931793  -0.002  0.193724  -0.003563  3.952086  -0.002  0.016156  0.181689  -0.003183  3.917797  -0.002
C  C31  1  0.48305451  0.85210602  0.40228752  1  0.167967  -0.01553  3.701103  -0.011  0.186347  -0.003054  3.932099  -0.002  0.193539  -0.003563  3.952389  -0.002  0.016122  0.181508  -0.003183  3.918107  -0.002
C  C32  1  0.71305795  0.11111695  0.65797023  1  -0.173224  0.01095  3.699442  0.013  -0.187475  0.003903  3.938025  0.005  -0.19586  0.003191  3.95744  0.004  -0.088564  -0.181799  0.00468  3.926671  0.006
C  C33  1  0.28695525  0.88888922  0.34203391  1  -0.173219  0.010957  3.699453  0.013  -0.187529  0.003902  3.93805  0.005  -0.195916  0.00319  3.957459  0.004  -0.088588  -0.181849  0.004679  3.926698  0.006
C  C34  1  0.81893825  0.22692261  0.69950555  1  0.120113  -0.013295  3.707228  -0.009  0.094214  -0.000468  3.960666  0.0  0.104332  -0.001997  3.980594  -0.001  0.038544  0.086588  0.000978  3.947786  0.001
C  C35  1  0.18104801  0.77308599  0.30048733  1  0.120163  -0.01332  3.706805  -0.009  0.09427  -0.00047  3.960217  0.0  0.104391  -0.001998  3.980129  -0.001  0.038512  0.086654  0.000977  3.947344  0.001
C  C36  1  0.40844297  0.02607879  0.54716987  1  -0.152771  4.1e-05  3.667546  0.001  -0.195408  0.000254  3.912394  0.001  -0.197387  3.1e-05  3.923243  0.0  -0.156879  -0.193857  0.000545  3.905287  0.001
C  C37  1  0.59155673  0.97391832  0.45282630  1  -0.152569  4.3e-05  3.667389  0.001  -0.195184  0.000254  3.91217  0.001  -0.197155  3.1e-05  3.923022  0.0  -0.156877  -0.193629  0.000545  3.905061  0.001
C  C38  1  0.43107286  0.74078446  0.78763834  1  0.115998  -0.015762  3.738898  -0.011  0.082521  -0.002361  4.006896  -0.002  0.091338  -0.003832  4.029601  -0.003  0.038941  0.076383  -0.001201  3.992114  -0.001
C  C39  1  0.56891691  0.25919908  0.21237538  1  0.115554  -0.015799  3.738984  -0.011  0.082042  -0.002361  4.007023  -0.002  0.09086  -0.003833  4.029709  -0.003  0.038593  0.075901  -0.001202  3.992249  -0.001
C  C40  1  0.23032009  0.82546235  0.84582743  1  -0.168672  0.011962  3.699723  0.014  -0.187502  0.004862  3.94938  0.005  -0.197983  0.00409  3.972675  0.005  -0.086026  -0.18047  0.005849  3.93458  0.006
C  C41  1  0.76967097  0.17453826  0.15417636  1  -0.168504  0.011981  3.700002  0.014  -0.187319  0.004861  3.949669  0.005  -0.197774  0.00409  3.972975  0.005  -0.085909  -0.180291  0.005848  3.934866  0.006
C  C42  1  0.22364768  0.82267078  0.94864697  1  0.168336  -0.016101  3.697507  -0.011  0.185284  -0.003517  3.930871  -0.002  0.192704  -0.003833  3.951022  -0.002  0.016449  0.179946  -0.003475  3.917209  -0.002
C  C43  1  0.77638671  0.17732499  0.05135497  1  0.168265  -0.016142  3.697478  -0.011  0.185137  -0.003519  3.930956  -0.002  0.192547  -0.003837  3.951093  -0.002  0.016386  0.179802  -0.003479  3.917301  -0.002
C  C44  1  0.42185578  0.72917128  0.98755232  1  -0.165093  0.0113  3.692031  0.014  -0.180974  0.004201  3.93362  0.005  -0.189033  0.003416  3.951561  0.004  -0.083584  -0.175803  0.005191  3.922392  0.006
C  C45  1  0.57815110  0.27082808  0.01244713  1  -0.164977  0.011325  3.691761  0.014  -0.180838  0.004201  3.933348  0.005  -0.188901  0.003417  3.951299  0.004  -0.083567  -0.175671  0.005192  3.922123  0.006
C  C46  1  0.61667217  0.64672130  0.92507831  1  0.133343  -0.013026  3.683414  -0.009  0.105419  -0.000136  3.93831  0.0  0.116305  -0.001781  3.957154  -0.001  0.044713  0.097745  0.001258  3.926062  0.001
C  C47  1  0.38331943  0.35327814  0.07491744  1  0.133218  -0.01306  3.683529  -0.009  0.105336  -0.000135  3.938394  0.0  0.11623  -0.001781  3.957233  -0.001  0.044625  0.097662  0.001258  3.926133  0.001
C  C48  1  0.01436179  0.91499996  0.01463810  1  -0.154506  -0.000131  3.705445  0.001  -0.196311  -0.000122  3.948122  0.0  -0.19781  -0.000217  3.958433  0.0  -0.159363  -0.195006  3.1e-05  3.940763  0.0
C  C49  1  0.98565583  0.08499137  0.98536835  1  -0.154566  -0.000128  3.705576  0.001  -0.196399  -0.000122  3.948282  0.0  -0.197846  -0.000217  3.958551  0.0  -0.159387  -0.195123  3.1e-05  3.940944  0.0
N  N50  1  0.74071855  0.37617883  0.68376560  1  -0.281413  0.082153  3.376681  0.123  -0.239067  0.050669  3.678463  0.078  -0.27771  0.036948  3.704693  0.061  -0.33968  -0.212693  0.060911  3.662546  0.089
N  N51  1  0.25928325  0.62381713  0.31623123  1  -0.281435  0.082161  3.377011  0.123  -0.239094  0.050671  3.678779  0.078  -0.277721  0.036951  3.705002  0.061  -0.339655  -0.212753  0.060913  3.662897  0.089
N  N52  1  0.62358571  0.65342692  0.82620123  1  -0.283915  0.080064  3.386833  0.12  -0.239472  0.049292  3.687327  0.076  -0.278354  0.03603  3.714146  0.059  -0.341158  -0.212638  0.06009  3.669481  0.088
N  N53  1  0.37641073  0.34657706  0.17379787  1  -0.283748  0.080099  3.386626  0.12  -0.239245  0.0493  3.687042  0.076  -0.278109  0.036041  3.713838  0.059  -0.34096  -0.212408  0.060101  3.669187  0.088
Cl  Cl54  1  0.98054919  0.70064086  0.61497494  1  -0.525376  0.075818  0.947702  0.102  -0.499891  0.048543  1.22205  0.063  -0.531789  0.032234  1.196423  0.043  -0.292662  -0.474798  0.061392  1.241558  0.076
Cl  Cl55  1  0.01944489  0.29936542  0.38502494  1  -0.525354  0.075811  0.947791  0.102  -0.499869  0.04854  1.222144  0.063  -0.531735  0.032234  1.196497  0.043  -0.292663  -0.474781  0.061387  1.241662  0.076
Cl  Cl56  1  0.13963235  0.40516234  0.84657967  1  -0.511658  0.073856  1.013982  0.099  -0.493818  0.045845  1.305952  0.059  -0.525445  0.030023  1.283087  0.04  -0.287004  -0.467916  0.060404  1.323014  0.075
Cl  Cl57  1  0.86036798  0.59483021  0.15342022  1  -0.511637  0.073866  1.014042  0.099  -0.493803  0.045853  1.306027  0.059  -0.525418  0.03003  1.283164  0.04  -0.286994  -0.4679  0.060414  1.323083  0.075
