# generated using pymatgen
data_AlH7C11O5F3
_symmetry_space_group_name_H-M   'P 1'
_cell_length_a   6.61274312
_cell_length_b   11.09010586
_cell_length_c   10.97743791
_cell_angle_alpha   84.78875317
_cell_angle_beta   72.46448507
_cell_angle_gamma   74.58955151
_symmetry_Int_Tables_number   1
_chemical_formula_structural   AlH7C11O5F3
_chemical_formula_sum   'Al2 H14 C22 O10 F6'
_cell_volume   739.98221192
_cell_formula_units_Z   2
loop_
 _symmetry_equiv_pos_site_id
 _symmetry_equiv_pos_as_xyz
  1  'x, y, z'
loop_
 _atom_site_type_symbol
 _atom_site_label
 _atom_site_symmetry_multiplicity
 _atom_site_fract_x
 _atom_site_fract_y
 _atom_site_fract_z
 _atom_site_occupancy
 _atom_site_pbe_bader_charge
 _atom_site_pbe_bader_spin_density
 _atom_site_pbe_cm5_charge
 _atom_site_pbe_ddec_charge
 _atom_site_pbe_ddec_spin_density
 _atom_site_pbe_ddec_sum_bond_order
 _atom_site_pbe_magmom
Al  Al0  1  0.01658895  0.49570443  0.48783035  1  2.501771  0  0.39747  1.64937  0  2.56294  0
Al  Al1  1  0.51502370  0.50064881  0.48647023  1  2.490108  0  0.40019  1.649868  0  2.560162  0
H  H2  1  0.15751875  0.57708293  0.63170343  1  0.64713  0  0.348837  0.429701  0  0.863943  0
H  H3  1  0.87055594  0.36083573  0.39385873  1  0.624737  0  0.358488  0.440934  0  0.838047  0
H  H4  1  0.59579652  0.30568971  0.10532033  1  0.033113  0  0.089168  0.086161  0  0.98653  0
H  H5  1  0.77954253  0.39849725  0.09973775  1  0.033402  0  0.094696  0.094707  0  0.987398  0
H  H6  1  0.88417598  0.39375573  0.87658465  1  0.057787  0  0.092548  0.095319  0  0.990545  0
H  H7  1  0.69863342  0.30243738  0.88382570  1  0.029904  0  0.082666  0.080007  0  1.024429  0
H  H8  1  0.76780558  0.62460797  0.87306755  1  0.038486  0  0.086022  0.082121  0  1.020043  0
H  H9  1  0.49855434  0.70457427  0.87180202  1  0.015465  0  0.083166  0.076271  0  0.995656  0
H  H10  1  0.65516439  0.63235293  0.09581078  1  0.04228  0  0.09501  0.097567  0  0.989265  0
H  H11  1  0.38503046  0.70792410  0.09392420  1  0.03571  0  0.092291  0.091202  0  0.972858  0
H  H12  1  0.20614357  0.41166417  0.10476221  1  0.032609  0  0.090788  0.088965  0  0.989392  0
H  H13  1  0.11392566  0.57520794  0.10554017  1  0.037957  0  0.093768  0.093345  0  0.978056  0
H  H14  1  0.22309279  0.58101366  0.88232406  1  0.023894  0  0.087177  0.083712  0  0.987996  0
H  H15  1  0.29961239  0.41675964  0.88236735  1  0.047785  0  0.086188  0.085782  0  1.02398  0
C  C16  1  0.64053582  0.49813392  0.71954193  1  1.562071  0  0.273361  0.643325  0  4.011194  0
C  C17  1  0.68658788  0.72365118  0.47559166  1  1.644726  0  0.26885  0.652719  0  4.120902  0
C  C18  1  0.38452130  0.50466384  0.25881297  1  1.537812  0  0.279976  0.645839  0  4.01426  0
C  C19  1  0.35112165  0.27022743  0.50626455  1  1.653449  0  0.265033  0.657127  0  4.134601  0
C  C20  1  0.42352060  0.12897276  0.51151121  1  0.107156  0  -0.01327  -0.149092  0  3.949906  0
C  C21  1  0.51782933  0.06234493  0.60676287  1  0.032287  0  -0.007281  -0.015985  0  4.019141  0
C  C22  1  0.42059061  0.06247918  0.41252053  1  0.506969  0  0.101075  0.165574  0  4.074979  0
C  C23  1  0.50085481  0.12207631  0.71949640  1  0.529119  0  0.091853  0.127718  0  4.072563  0
C  C24  1  0.60002610  0.06155781  0.80975738  1  0.588848  0  0.085998  0.075153  0  4.154396  0
C  C25  1  0.61454774  0.86490855  0.48851860  1  0.065793  0  -0.009572  -0.143319  0  3.909531  0
C  C26  1  0.50926396  0.93189740  0.40335959  1  0.552301  0  0.103946  0.167592  0  4.078088  0
C  C27  1  0.62727086  0.93095604  0.59130096  1  0.070702  0  -0.005083  -0.014127  0  3.996426  0
C  C28  1  0.73591399  0.87437037  0.68339928  1  0.596085  0  0.093364  0.125566  0  4.081258  0
C  C29  1  0.72532952  0.93731644  0.78880408  1  0.543928  0  0.084542  0.076007  0  4.157804  0
C  C30  1  0.64367600  0.39192943  0.06476871  1  -0.027443  0  -0.15489  -0.169486  0  3.840655  0
C  C31  1  0.71271758  0.38941108  0.91694837  1  -0.054744  0  -0.158303  -0.167698  0  3.842659  0
C  C32  1  0.56627467  0.50229897  0.86472999  1  0.052551  0  -0.015397  0.013591  0  3.806766  0
C  C33  1  0.59526750  0.62239003  0.91116411  1  -0.02668  0  -0.1624  -0.176334  0  3.867365  0
C  C34  1  0.52142346  0.62565836  0.05915059  1  -0.036108  0  -0.157344  -0.172858  0  3.851344  0
C  C35  1  0.44787247  0.50604535  0.11399840  1  0.082008  0  -0.014848  0.01441  0  3.814738  0
C  C36  1  0.25633746  0.49748420  0.06619243  1  -0.07154  0  -0.163651  -0.176321  0  3.881624  0
C  C37  1  0.32449888  0.49887457  0.91870804  1  -0.00862  0  -0.166516  -0.179273  0  3.885822  0
O  O38  1  0.83411533  0.50900855  0.66230150  1  -1.274428  0  -0.240032  -0.612799  0  2.378291  0
O  O39  1  0.52941471  0.67221225  0.49506524  1  -1.231082  0  -0.225331  -0.568676  0  2.32308  0
O  O40  1  0.51895466  0.52471755  0.31212534  1  -1.270753  0  -0.234853  -0.590588  0  2.330212  0
O  O41  1  0.14988211  0.31951047  0.51984121  1  -1.240033  0  -0.232348  -0.578917  0  2.31975  0
O  O42  1  0.20280793  0.47980376  0.31845923  1  -1.275538  0  -0.232445  -0.596554  0  2.387066  0
O  O43  1  0.50537440  0.32466502  0.48268333  1  -1.254239  0  -0.232651  -0.588406  0  2.322495  0
O  O44  1  0.50516156  0.48438284  0.66374942  1  -1.264218  0  -0.238062  -0.601191  0  2.387725  0
O  O45  1  0.88816064  0.66973910  0.44853459  1  -1.235896  0  -0.227235  -0.560818  0  2.322832  0
O  O46  1  0.21335455  0.55046867  0.54348052  1  -1.434965  0  -0.449489  -0.999476  0  2.226999  0
O  O47  1  0.81608251  0.44138214  0.43524679  1  -1.417722  0  -0.446855  -0.997656  0  2.213724  0
F  F48  1  0.49113877  0.87401491  0.30554134  1  -0.613338  0  -0.079618  -0.09933  0  1.363021  0
F  F49  1  0.33747514  0.12145852  0.31806840  1  -0.618026  0  -0.087857  -0.109987  0  1.349657  0
F  F50  1  0.85532765  0.75474496  0.67217318  1  -0.626867  0  -0.05502  -0.07615  0  1.509975  0
F  F51  1  0.83121337  0.87980461  0.87386191  1  -0.606274  0  -0.081865  -0.086121  0  1.368009  0
F  F52  1  0.57615535  0.11812670  0.91864744  1  -0.613189  0  -0.072573  -0.081747  0  1.39917  0
F  F53  1  0.37571083  0.24032489  0.74379185  1  -0.616243  0  -0.061679  -0.076745  0  1.43362  0
