# generated using pymatgen
data_La2CuH16C32(N2O13)2
_symmetry_space_group_name_H-M   'P 1'
_cell_length_a   9.92915264
_cell_length_b   10.46708913
_cell_length_c   11.07614626
_cell_angle_alpha   69.97871180
_cell_angle_beta   84.45648987
_cell_angle_gamma   70.50028202
_symmetry_Int_Tables_number   1
_chemical_formula_structural   La2CuH16C32(N2O13)2
_chemical_formula_sum   'La2 Cu1 H16 C32 N4 O26'
_cell_volume   1019.32947930
_cell_formula_units_Z   1
loop_
 _symmetry_equiv_pos_site_id
 _symmetry_equiv_pos_as_xyz
  1  'x, y, z'
loop_
 _atom_site_type_symbol
 _atom_site_label
 _atom_site_symmetry_multiplicity
 _atom_site_fract_x
 _atom_site_fract_y
 _atom_site_fract_z
 _atom_site_occupancy
 _atom_site_hle17_ddec_charge
 _atom_site_hle17_ddec_spin_density
 _atom_site_hle17_ddec_sum_bond_order
 _atom_site_hle17_magmom
 _atom_site_hse06_10hf_ddec_charge
 _atom_site_hse06_10hf_ddec_spin_density
 _atom_site_hse06_10hf_ddec_sum_bond_order
 _atom_site_hse06_10hf_magmom
 _atom_site_hse06_ddec_charge
 _atom_site_hse06_ddec_spin_density
 _atom_site_hse06_ddec_sum_bond_order
 _atom_site_hse06_magmom
 _atom_site_pbe_cm5_charge
 _atom_site_pbe_ddec_charge
 _atom_site_pbe_ddec_spin_density
 _atom_site_pbe_ddec_sum_bond_order
 _atom_site_pbe_magmom
La  La0  1  0.40241837  0.90859040  0.41001996  1  2.125719  0.002977  1.782407  0.001  2.007976  0.000596  2.300601  0.0  2.109062  0.000633  2.201547  0.0  1.420143  1.932089  0.00028  2.37084  0.0
La  La1  1  0.59757763  0.09140839  0.58998151  1  2.125672  0.002943  1.78244  0.001  2.007881  0.000604  2.300694  0.0  2.10898  0.000634  2.201629  0.0  1.420104  1.932002  0.000283  2.37091  0.0
Cu  Cu2  1  0.50000002  0.49999941  0.49999830  1  1.11361  -0.709252  1.631851  -0.541  1.128112  -0.811677  2.021754  -0.679  1.2171  -0.874632  1.960766  -0.77  0.774059  1.067347  -0.760074  2.066928  -0.612
H  H3  1  0.91587183  0.85153580  0.48461357  1  0.129849  -0.000118  0.924243  0.0  0.136252  -0.000102  0.988891  0.0  0.141029  -5e-05  0.984622  0.0  0.12623  0.132655  -0.000117  0.9923  0.0
H  H4  1  0.08412619  0.14846298  0.51538773  1  0.129851  -0.000119  0.92425  0.0  0.136237  -0.000102  0.988912  0.0  0.141013  -5.1e-05  0.984646  0.0  0.126229  0.132643  -0.000117  0.992319  0.0
H  H5  1  0.81547657  0.45925725  0.66965961  1  0.125338  6.5e-05  0.946387  0.0  0.130422  7.6e-05  1.014656  0.0  0.134296  6.6e-05  1.011034  0.0  0.118832  0.127389  7.2e-05  1.017548  0.0
H  H6  1  0.18453091  0.54073722  0.33034044  1  0.125406  6.6e-05  0.946283  0.0  0.130464  7.6e-05  1.014566  0.0  0.134328  6.6e-05  1.010968  0.0  0.118845  0.127433  7.2e-05  1.017456  0.0
H  H7  1  0.25206619  0.45176677  0.65068972  1  0.130332  0.000286  0.955236  0.0  0.128736  0.000214  1.033296  0.0  0.13375  0.000244  1.027765  0.0  0.119753  0.125117  0.00016  1.037237  0.0
H  H8  1  0.74793790  0.54823522  0.34930824  1  0.130248  0.000288  0.95525  0.0  0.12871  0.000214  1.033313  0.0  0.133726  0.000245  1.027778  0.0  0.119715  0.125088  0.00016  1.037256  0.0
H  H9  1  0.46145553  0.85702536  0.98059239  1  0.13572  0.000112  0.906466  0.0  0.144076  1.2e-05  0.964795  0.0  0.148716  1.1e-05  0.960287  0.0  0.1283  0.140436  4e-06  0.968469  0.0
H  H10  1  0.53854080  0.14297556  0.01941018  1  0.135705  0.000112  0.906472  0.0  0.144088  1.2e-05  0.96478  0.0  0.148745  1.2e-05  0.960249  0.0  0.128287  0.140447  5e-06  0.968453  0.0
H  H11  1  0.35212775  0.47969555  0.20451622  1  0.127082  -2.5e-05  0.951282  0.0  0.132168  -6e-05  1.01777  0.0  0.135824  -2.5e-05  1.01442  0.0  0.119754  0.129394  -9e-05  1.020389  0.0
H  H12  1  0.64787262  0.52030541  0.79547968  1  0.127179  -2.1e-05  0.951212  0.0  0.132232  -6.1e-05  1.017729  0.0  0.135887  -2.4e-05  1.014383  0.0  0.119765  0.129458  -8.9e-05  1.020347  0.0
H  H13  1  0.28112793  0.65041722  0.79368398  1  0.135085  6.5e-05  0.935231  0.0  0.138808  -4.7e-05  1.002265  0.0  0.143203  -1.9e-05  0.998064  0.0  0.120325  0.135511  -2.7e-05  1.005492  0.0
H  H14  1  0.71887244  0.34958692  0.20631542  1  0.13505  6.8e-05  0.93524  0.0  0.138791  -4.7e-05  1.002262  0.0  0.143187  -1.8e-05  0.99806  0.0  0.120319  0.135492  -2.7e-05  1.005489  0.0
H  H15  1  0.10860946  0.08440395  0.25633363  1  0.44844  -1.5e-05  0.799455  0.0  0.434862  -3e-05  0.841744  0.0  0.443416  -1.6e-05  0.829689  0.0  0.340397  0.428626  -2.5e-05  0.850572  0.0
H  H16  1  0.89138992  0.91559375  0.74366971  1  0.448456  -1.5e-05  0.799415  0.0  0.434871  -3e-05  0.841731  0.0  0.443424  -1.5e-05  0.829677  0.0  0.340406  0.428636  -2.5e-05  0.850558  0.0
H  H17  1  0.19958537  0.18752179  0.18385893  1  0.441375  -1e-06  0.843456  0.0  0.410216  2e-06  0.905389  0.0  0.42209  2e-06  0.887793  0.0  0.310188  0.401743  2e-06  0.917969  0.0
H  H18  1  0.80041400  0.81247914  0.81614158  1  0.441337  0.0  0.843512  0.0  0.410197  2e-06  0.905416  0.0  0.422068  2e-06  0.887825  0.0  0.310182  0.401726  2e-06  0.917994  0.0
C  C19  1  0.09475148  0.66025488  0.56052642  1  -0.065001  3.3e-05  3.723373  0.0  -0.038865  0.000274  3.958984  0.0  -0.050178  0.000251  3.98063  0.0  -0.010156  -0.031963  0.000234  3.945186  0.0
C  C20  1  0.90524891  0.33974280  0.43947683  1  -0.065176  4.1e-05  3.723426  0.0  -0.038943  0.000276  3.958954  0.0  -0.050259  0.00025  3.980605  0.0  -0.010168  -0.03204  0.000235  3.945152  0.0
C  C21  1  0.94873206  0.73686596  0.53786830  1  -0.037341  0.000697  3.637597  0.0  -0.08506  0.000222  3.896405  0.0  -0.078785  0.00027  3.911451  0.0  -0.057172  -0.089919  0.000196  3.887685  0.0
C  C22  1  0.05127001  0.26313282  0.46213175  1  -0.037264  0.000689  3.637638  0.0  -0.085007  0.000217  3.896354  0.0  -0.078733  0.000273  3.9114  0.0  -0.057153  -0.089868  0.000196  3.887637  0.0
C  C23  1  0.84786295  0.66524621  0.57545762  1  -0.054019  -0.000282  3.74288  0.0  -0.02918  -4.4e-05  3.980851  0.0  -0.040145  -6.4e-05  4.00308  0.0  -0.00663  -0.022502  -3.8e-05  3.966516  0.0
C  C24  1  0.15214048  0.33475149  0.42454175  1  -0.054044  -0.000273  3.743003  0.0  -0.029086  -4e-05  3.980799  0.0  -0.040048  -6.2e-05  4.003023  0.0  -0.006618  -0.022407  -3.8e-05  3.966468  0.0
C  C25  1  0.89169171  0.51793622  0.64283735  1  -0.076357  0.000563  3.686665  0.0  -0.117965  0.000246  3.94533  0.0  -0.113275  0.00026  3.962644  0.0  -0.063767  -0.119396  0.000269  3.932952  0.0
C  C26  1  0.10831238  0.48206257  0.35715982  1  -0.076403  0.000552  3.686698  0.0  -0.117984  0.000239  3.94534  0.0  -0.113293  0.000255  3.962649  0.0  -0.063743  -0.119416  0.000269  3.932965  0.0
C  C27  1  0.03586594  0.44600192  0.67338151  1  0.066235  -0.000216  3.695214  0.0  0.059197  -2.6e-05  3.9424  0.0  0.053713  -4.3e-05  3.965841  0.0  0.078506  0.062188  -2.7e-05  3.926423  0.0
C  C28  1  0.96413782  0.55399471  0.32661817  1  0.066205  -0.000212  3.695153  0.0  0.059086  -3e-05  3.942459  0.0  0.053596  -5.1e-05  3.965906  0.0  0.078458  0.062079  -2.7e-05  3.926479  0.0
C  C29  1  0.13960817  0.51345936  0.63078765  1  -0.055266  0.000829  3.64083  0.001  -0.095718  0.000469  3.899787  0.0  -0.090111  0.000508  3.914739  0.0  -0.058729  -0.097867  0.000487  3.889054  0.0
C  C30  1  0.86039424  0.48653832  0.36921452  1  -0.055036  0.000809  3.640629  0.001  -0.095591  0.000469  3.899592  0.0  -0.089981  0.000508  3.914546  0.0  -0.058674  -0.097736  0.000487  3.888852  0.0
C  C31  1  0.19723822  0.73986474  0.50070514  1  0.671211  0.000694  3.866424  -0.001  0.632488  -0.002246  4.150457  -0.004  0.671052  -0.00223  4.143169  -0.004  0.221563  0.605412  -0.002006  4.154423  -0.004
C  C32  1  0.80276080  0.26013727  0.49929415  1  0.671207  0.000691  3.86654  -0.001  0.632465  -0.002248  4.150558  -0.004  0.671027  -0.002235  4.143273  -0.004  0.221537  0.605383  -0.002005  4.154525  -0.004
C  C33  1  0.69532611  0.74390967  0.53455084  1  0.687273  7.8e-05  3.873998  0.0  0.644669  4.8e-05  4.158695  0.0  0.681241  2.9e-05  4.152116  0.0  0.22259  0.619741  4.1e-05  4.162006  0.0
C  C34  1  0.30467529  0.25608481  0.46545153  1  0.687005  7.7e-05  3.874137  0.0  0.644311  4.6e-05  4.158952  0.0  0.680877  2.5e-05  4.152378  0.0  0.222402  0.619384  4.1e-05  4.16226  0.0
C  C35  1  0.37600836  0.76189108  0.87441254  1  -0.052391  4.6e-05  3.697541  0.0  -0.027196  -1.1e-05  3.936854  0.0  -0.037965  0.000228  3.958641  0.0  -0.002638  -0.020643  -0.000334  3.922552  0.0
C  C36  1  0.62398627  0.23811201  0.12558769  1  -0.052189  4.9e-05  3.697461  0.0  -0.027125  -1.2e-05  3.936938  0.0  -0.037893  0.000229  3.958732  0.0  -0.002629  -0.020572  -0.000334  3.922628  0.0
C  C37  1  0.41737873  0.77250173  0.98723992  1  -0.01424  -0.002228  3.602261  -0.002  -0.062633  -0.001608  3.857823  -0.002  -0.056672  -0.001066  3.87337  -0.001  -0.048778  -0.065888  -0.001884  3.847338  -0.002
C  C38  1  0.58261793  0.22750136  0.01275923  1  -0.014341  -0.002228  3.602265  -0.002  -0.062727  -0.001609  3.857874  -0.002  -0.056782  -0.00107  3.873417  -0.001  -0.048783  -0.065982  -0.001884  3.84739  -0.002
C  C39  1  0.40767470  0.67165352  0.10637289  1  -0.051803  -0.009041  3.717393  -0.01  -0.026797  -0.004338  3.953992  -0.005  -0.038895  -0.002541  3.97714  -0.003  -0.005616  -0.018961  -0.005773  3.938481  -0.007
C  C40  1  0.59232636  0.32834848  0.89362622  1  -0.051756  -0.009044  3.717306  -0.01  -0.026752  -0.004334  3.953893  -0.005  -0.038845  -0.002538  3.977045  -0.003  -0.005631  -0.018915  -0.005774  3.938381  -0.007
C  C41  1  0.35334857  0.56234456  0.11325905  1  -0.076326  -0.000903  3.684904  -0.001  -0.117415  -0.000344  3.945573  0.0  -0.112634  -0.000272  3.963318  0.0  -0.064957  -0.120654  -0.000586  3.933751  0.0
C  C42  1  0.64665012  0.43765852  0.88674083  1  -0.07644  -0.000908  3.684955  -0.001  -0.117501  -0.000348  3.945637  0.0  -0.112727  -0.000273  3.963389  0.0  -0.064962  -0.120741  -0.000586  3.933816  0.0
C  C43  1  0.30174321  0.56084674  0.00156652  1  0.064065  0.001405  3.717946  0.001  0.050414  0.000407  3.974929  0.0  0.04354  0.000445  3.999864  0.0  0.076459  0.054961  0.000335  3.957929  0.0
C  C44  1  0.69825515  0.43915418  0.99843497  1  0.064064  0.0014  3.717871  0.001  0.050457  0.000409  3.974877  0.0  0.043581  0.000445  3.999814  0.0  0.076449  0.055003  0.000335  3.957877  0.0
C  C45  1  0.31384106  0.65790706  0.88125706  1  -0.070172  -0.002931  3.651073  -0.003  -0.109978  -0.001228  3.906749  -0.001  -0.104847  -0.000828  3.922654  -0.001  -0.061936  -0.113163  -0.001265  3.89607  -0.001
C  C46  1  0.68615628  0.34209386  0.11874452  1  -0.070161  -0.002936  3.651028  -0.003  -0.109938  -0.001228  3.906736  -0.001  -0.104807  -0.000833  3.922636  -0.001  -0.061894  -0.11312  -0.001265  3.896054  -0.001
C  C47  1  0.40783472  0.85542479  0.74485233  1  0.700499  -8.9e-05  3.868053  0.0  0.6536  -6.7e-05  4.164951  0.0  0.691011  -4.1e-05  4.156494  0.0  0.236847  0.627981  -9.6e-05  4.169897  0.0
C  C48  1  0.59215856  0.14458256  0.25515027  1  0.700599  -8.8e-05  3.86789  0.0  0.653765  -6.6e-05  4.164745  0.0  0.691175  -3.4e-05  4.156286  0.0  0.236936  0.628149  -9.6e-05  4.169675  0.0
C  C49  1  0.45506170  0.67509517  0.22972610  1  0.682901  0.006203  3.859819  0.006  0.64284  0.00041  4.15317  0.001  0.68289  0.00057  4.144616  0.001  0.232892  0.615126  -0.000135  4.15876  0.001
C  C50  1  0.54493599  0.32490147  0.77027590  1  0.68294  0.006205  3.859682  0.006  0.642927  0.000412  4.152976  0.001  0.682973  0.000571  4.144427  0.001  0.232976  0.615215  -0.000135  4.158568  0.001
N  N51  1  0.07986774  0.29083440  0.74685489  1  0.468352  1.3e-05  3.95824  0.0  0.523853  1.4e-05  4.216552  0.0  0.54415  0.0  4.225594  0.0  0.056524  0.510284  -3e-06  4.210222  0.0
N  N52  1  0.92014108  0.70916544  0.25314245  1  0.468428  1.5e-05  3.958388  0.0  0.523974  1.3e-05  4.216626  0.0  0.544275  0.0  4.225666  0.0  0.05666  0.5104  -3e-06  4.210296  0.0
N  N53  1  0.23668600  0.45086937  0.01198485  1  0.474779  -6e-06  3.936608  0.0  0.534746  1.6e-05  4.189225  0.0  0.55634  1.6e-05  4.198235  0.0  0.063001  0.520208  1.5e-05  4.183552  0.0
N  N54  1  0.76330627  0.54913483  0.98801161  1  0.474787  -1e-06  3.936733  0.0  0.534594  1.3e-05  4.189573  0.0  0.556189  1.4e-05  4.198582  0.0  0.062952  0.52006  1.5e-05  4.183901  0.0
O  O55  1  0.33061766  0.67275311  0.48993564  1  -0.70851  -0.044724  2.19059  -0.063  -0.672336  -0.033436  2.483264  -0.051  -0.716266  -0.024461  2.472375  -0.041  -0.367357  -0.641286  -0.040004  2.492193  -0.058
O  O56  1  0.66938340  0.32724568  0.51006359  1  -0.708498  -0.044727  2.190653  -0.063  -0.672329  -0.033437  2.483342  -0.051  -0.716258  -0.02446  2.472455  -0.041  -0.36735  -0.641276  -0.040008  2.492268  -0.058
O  O57  1  0.15198048  0.87557045  0.45745168  1  -0.621193  -0.015663  1.913416  -0.02  -0.585209  -0.007423  2.143643  -0.01  -0.617129  -0.00331  2.135423  -0.005  -0.342062  -0.560615  -0.013036  2.148033  -0.018
O  O58  1  0.84802226  0.12443256  0.54255239  1  -0.621168  -0.015664  1.913445  -0.02  -0.585197  -0.007425  2.14369  -0.01  -0.617117  -0.003308  2.135472  -0.005  -0.34205  -0.560601  -0.013039  2.148079  -0.018
O  O59  1  0.64568011  0.87840606  0.51959360  1  -0.755367  -0.000117  2.114308  0.0  -0.702219  -4e-06  2.374394  0.0  -0.740248  8e-06  2.368025  0.0  -0.405499  -0.67393  -4.6e-05  2.37675  0.0
O  O60  1  0.35431725  0.12158842  0.48041092  1  -0.755179  -0.000115  2.114211  0.0  -0.702007  -2e-06  2.374319  0.0  -0.74003  1.3e-05  2.367957  0.0  -0.405395  -0.673718  -4.6e-05  2.376669  0.0
O  O61  1  0.61993681  0.67859808  0.51049459  1  -0.66942  0.001158  2.018792  0.0  -0.642353  0.001152  2.291434  0.0  -0.672574  0.001369  2.279429  0.0  -0.342662  -0.621152  0.00088  2.3009  0.0
O  O62  1  0.38006390  0.32140183  0.48949980  1  -0.669316  0.001158  2.01877  0.0  -0.642226  0.001155  2.291435  0.0  -0.67246  0.00137  2.279467  0.0  -0.342606  -0.621025  0.00088  2.3009  0.0
O  O63  1  0.98374233  0.23720546  0.79100699  1  -0.350953  -1.1e-05  1.714269  0.0  -0.348183  0.0  1.889702  0.0  -0.359555  -6e-06  1.886517  0.0  -0.141304  -0.340406  -3e-06  1.892053  0.0
O  O64  1  0.01626751  0.76279432  0.20899660  1  -0.351005  -1.4e-05  1.714351  0.0  -0.348232  2e-06  1.889741  0.0  -0.359602  -4e-06  1.886555  0.0  -0.141321  -0.340453  -3e-06  1.892091  0.0
O  O65  1  0.20935590  0.22313801  0.75861227  1  -0.323051  -7.1e-05  1.750168  0.0  -0.319952  -4.8e-05  1.936718  0.0  -0.331208  -4.7e-05  1.933537  0.0  -0.110208  -0.312044  -5.4e-05  1.938802  0.0
O  O66  1  0.79065021  0.77685763  0.24137759  1  -0.323101  -6.7e-05  1.750309  0.0  -0.320013  -4.8e-05  1.936836  0.0  -0.331271  -4.4e-05  1.933654  0.0  -0.110328  -0.312105  -5.4e-05  1.938922  0.0
O  O67  1  0.36714833  0.84086358  0.64672127  1  -0.676719  -0.000688  2.017362  -0.001  -0.633057  -0.000209  2.266158  0.0  -0.666584  -5e-05  2.258311  0.0  -0.370624  -0.608952  -0.0003  2.270996  0.0
O  O68  1  0.63285476  0.15913517  0.35328141  1  -0.676792  -0.000689  2.017361  -0.001  -0.633128  -0.000207  2.266123  0.0  -0.66666  -5.2e-05  2.258284  0.0  -0.37067  -0.609029  -0.0003  2.270959  0.0
O  O69  1  0.47811919  0.93726269  0.74471178  1  -0.679723  0.000138  1.988761  0.0  -0.639896  0.000106  2.242476  0.0  -0.674362  9e-05  2.232803  0.0  -0.387661  -0.614737  5.5e-05  2.248122  0.0
O  O70  1  0.52186733  0.06275004  0.25529150  1  -0.679814  0.00014  1.988662  0.0  -0.640029  9.8e-05  2.242383  0.0  -0.674493  8.8e-05  2.232708  0.0  -0.387723  -0.61487  5.5e-05  2.248025  0.0
O  O71  1  0.44831062  0.79306824  0.24012652  1  -0.653078  -0.001527  1.980917  -0.003  -0.613209  -0.000946  2.223613  -0.002  -0.646276  -0.000228  2.212496  -0.001  -0.361702  -0.589985  -0.001592  2.231113  -0.003
O  O72  1  0.55169213  0.20692840  0.75987325  1  -0.653111  -0.001525  1.980774  -0.003  -0.613258  -0.000947  2.223459  -0.002  -0.646326  -0.000228  2.212344  -0.001  -0.361762  -0.590038  -0.001592  2.230961  -0.003
O  O73  1  0.49823587  0.55035193  0.31584035  1  -0.605281  -0.082508  2.089212  -0.114  -0.589756  -0.046346  2.386024  -0.071  -0.633187  -0.032562  2.375529  -0.054  -0.317012  -0.560496  -0.055694  2.394284  -0.08
O  O74  1  0.50176723  0.44964363  0.68415973  1  -0.605338  -0.082511  2.089317  -0.114  -0.589824  -0.046345  2.3861  -0.071  -0.633255  -0.032561  2.375606  -0.054  -0.317047  -0.560562  -0.055693  2.394355  -0.08
O  O75  1  0.23872885  0.35962198  0.12061542  1  -0.375941  0.000101  1.817247  0.0  -0.358495  -2.4e-05  2.011456  0.0  -0.374281  -1.1e-05  2.007702  0.0  -0.120593  -0.348328  -0.0  2.014798  0.0
O  O76  1  0.76126106  0.64038010  0.87938101  1  -0.375875  9.5e-05  1.817143  0.0  -0.358441  -2.3e-05  2.011475  0.0  -0.374223  -9e-06  2.00772  0.0  -0.120587  -0.348275  -0.0  2.01482  0.0
O  O77  1  0.18256984  0.45362956  0.91473961  1  -0.330223  0.00032  1.762369  0.0  -0.330422  0.000148  1.952826  0.0  -0.341812  0.000172  1.949739  0.0  -0.12307  -0.32323  0.000113  1.955769  0.0
O  O78  1  0.81742242  0.54637467  0.08525413  1  -0.33027  0.000324  1.762666  0.0  -0.330371  0.000151  1.953161  0.0  -0.341758  0.000174  1.950071  0.0  -0.123031  -0.32318  0.000113  1.956108  0.0
O  O79  1  0.20405245  0.09248984  0.24534435  1  -0.868684  3.5e-05  1.822585  0.0  -0.823456  1.6e-05  1.992681  0.0  -0.846848  1.2e-05  1.958985  0.0  -0.609165  -0.806392  2.9e-05  2.016509  0.0
O  O80  1  0.79594659  0.90750895  0.75465686  1  -0.868671  3.3e-05  1.822607  0.0  -0.823429  1.6e-05  1.992681  0.0  -0.84682  1.2e-05  1.958991  0.0  -0.609162  -0.80637  3e-05  2.016505  0.0
