# generated using pymatgen
data_Zn3H24C34(NO7)2
_symmetry_space_group_name_H-M   'P 1'
_cell_length_a   11.59530586
_cell_length_b   12.12397390
_cell_length_c   33.23694721
_cell_angle_alpha   89.99998155
_cell_angle_beta   89.99991231
_cell_angle_gamma   117.04834572
_symmetry_Int_Tables_number   1
_chemical_formula_structural   Zn3H24C34(NO7)2
_chemical_formula_sum   'Zn12 H96 C136 N8 O56'
_cell_volume   4161.42718922
_cell_formula_units_Z   4
loop_
 _symmetry_equiv_pos_site_id
 _symmetry_equiv_pos_as_xyz
  1  'x, y, z'
loop_
 _atom_site_type_symbol
 _atom_site_label
 _atom_site_symmetry_multiplicity
 _atom_site_fract_x
 _atom_site_fract_y
 _atom_site_fract_z
 _atom_site_occupancy
 _atom_site_pbe_bader_charge
 _atom_site_pbe_bader_spin_density
 _atom_site_pbe_cm5_charge
 _atom_site_pbe_ddec_charge
 _atom_site_pbe_ddec_spin_density
 _atom_site_pbe_ddec_sum_bond_order
 _atom_site_pbe_magmom
Zn  Zn0  1  0.25713079  0.27234231  0.85850536  1  1.376286  0  0.676446  0.966104  0  2.298333  0
Zn  Zn1  1  0.52137309  0.23128307  0.86972924  1  1.308912  0  0.671147  0.953583  0  2.376408  0
Zn  Zn2  1  0.24042342  0.97958611  0.85374225  1  1.345721  0  0.667175  0.994017  0  2.187095  0
Zn  Zn3  1  0.74286650  0.22765904  0.35850474  1  1.376228  0  0.676361  0.965979  0  2.298497  0
Zn  Zn4  1  0.47862451  0.26871176  0.36972786  1  1.309107  0  0.671154  0.953678  0  2.376501  0
Zn  Zn5  1  0.75956984  0.52041272  0.35374134  1  1.345727  0  0.667222  0.994093  0  2.186974  0
Zn  Zn6  1  0.74286837  0.72765862  0.14149440  1  1.37627  0  0.676396  0.965976  0  2.298466  0
Zn  Zn7  1  0.47862819  0.76871323  0.13027172  1  1.309062  0  0.6711  0.953526  0  2.376564  0
Zn  Zn8  1  0.75957486  0.02041297  0.14625872  1  1.345767  0  0.667205  0.994045  0  2.186921  0
Zn  Zn9  1  0.25713266  0.77234189  0.64149472  1  1.376325  0  0.676402  0.966025  0  2.298362  0
Zn  Zn10  1  0.52137378  0.73128732  0.63027220  1  1.309128  0  0.671117  0.953564  0  2.376584  0
Zn  Zn11  1  0.24042716  0.47958728  0.64625902  1  1.345724  0  0.66721  0.994066  0  2.187024  0
H  H12  1  0.99135270  0.21817731  0.89598394  1  0.102793  0  0.120387  0.091347  0  0.997218  0
H  H13  1  0.85064318  0.32452967  0.90207689  1  0.108449  0  0.116841  0.131768  0  0.990809  0
H  H14  1  0.18133333  0.66142568  0.86275394  1  0.157398  0  0.115736  0.134091  0  1.019162  0
H  H15  1  0.30312358  0.53667592  0.85636554  1  0.130276  0  0.12336  0.100452  0  0.999339  0
H  H16  1  0.80404220  0.47373133  0.93587332  1  0.117929  0  0.122803  0.131579  0  0.98346  0
H  H17  1  0.68689991  0.60237268  0.93520089  1  0.132508  0  0.131566  0.104061  0  1.021626  0
H  H18  1  0.90019575  0.80617798  0.83659460  1  0.203537  0  0.138811  0.122678  0  1.007468  0
H  H19  1  0.03007214  0.69268082  0.83490876  1  0.166046  0  0.123127  0.142864  0  1.021731  0
H  H20  1  0.36671127  0.16824974  0.81159910  1  0.619645  0  0.313302  0.403244  0  0.889784  0
H  H21  1  0.53100277  0.61651813  0.89189431  1  0.165237  0  0.110199  0.125323  0  1.034327  0
H  H22  1  0.41152299  0.74569932  0.89266336  1  0.099959  0  0.107907  0.108048  0  1.015376  0
H  H23  1  0.76860397  0.07476163  0.87601105  1  0.113812  0  0.108117  0.110706  0  1.01629  0
H  H24  1  0.89173033  0.95005289  0.87833128  1  0.129352  0  0.112037  0.123186  0  1.013457  0
H  H25  1  0.82976711  0.33519230  0.80211043  1  0.097767  0  0.10182  0.107616  0  1.017798  0
H  H26  1  0.99169563  0.38545521  0.74565003  1  0.089421  0  0.103884  0.11031  0  1.011483  0
H  H27  1  0.91237409  0.68321732  0.70848326  1  0.096601  0  0.102175  0.105125  0  1.014753  0
H  H28  1  0.74580628  0.62888873  0.76375162  1  0.106145  0  0.104403  0.109528  0  1.003132  0
H  H29  1  0.60425035  0.36265631  0.98902687  1  0.07762  0  0.108409  0.116604  0  0.992663  0
H  H30  1  0.35510372  0.51277567  0.94684105  1  0.094451  0  0.106033  0.110698  0  1.00909  0
H  H31  1  0.00895486  0.82741189  0.96193396  1  0.08454  0  0.096506  0.098948  0  1.018036  0
H  H32  1  0.11151658  0.21347080  0.97232482  1  0.079301  0  0.09895  0.102544  0  1.016727  0
H  H33  1  0.22189816  0.75378545  0.76728938  1  0.054096  0  0.10422  0.014341  0  0.96833  0
H  H34  1  0.45526145  0.44398661  0.81681314  1  0.642148  0  0.286708  0.393451  0  0.944876  0
H  H35  1  0.33639455  0.41585873  0.78551517  1  0.657843  0  0.283159  0.388519  0  0.946728  0
H  H36  1  0.00864868  0.28182391  0.39598310  1  0.102701  0  0.120436  0.091403  0  0.997082  0
H  H37  1  0.14935686  0.17547060  0.40207659  1  0.108752  0  0.116832  0.131776  0  0.990821  0
H  H38  1  0.81866807  0.83857406  0.36275447  1  0.157494  0  0.115715  0.134076  0  1.019179  0
H  H39  1  0.69687917  0.96332476  0.35636552  1  0.13031  0  0.123323  0.10044  0  0.999385  0
H  H40  1  0.19596281  0.02626882  0.43587241  1  0.118042  0  0.122774  0.131528  0  0.98357  0
H  H41  1  0.31310364  0.89762680  0.43519958  1  0.132406  0  0.131577  0.10403  0  1.021622  0
H  H42  1  0.09980453  0.69382277  0.33659432  1  0.203528  0  0.138825  0.122719  0  1.007402  0
H  H43  1  0.96992815  0.80731994  0.33490952  1  0.166036  0  0.123118  0.142892  0  1.021689  0
H  H44  1  0.63328499  0.33174900  0.31159823  1  0.619622  0  0.313283  0.403213  0  0.88986  0
H  H45  1  0.46899888  0.88348058  0.39189412  1  0.165279  0  0.110206  0.125355  0  1.03425  0
H  H46  1  0.58847647  0.75429660  0.39266372  1  0.09995  0  0.10787  0.108006  0  1.015472  0
H  H47  1  0.23139578  0.42523596  0.37601038  1  0.113778  0  0.108114  0.110663  0  1.016269  0
H  H48  1  0.10827098  0.54994679  0.37833011  1  0.129367  0  0.112027  0.123157  0  1.013451  0
H  H49  1  0.17023310  0.16480740  0.30210922  1  0.098067  0  0.101836  0.107658  0  1.017777  0
H  H50  1  0.00830232  0.11454284  0.24564951  1  0.089118  0  0.103885  0.1103  0  1.011506  0
H  H51  1  0.08762827  0.81678481  0.20848267  1  0.096579  0  0.102212  0.105189  0  1.014807  0
H  H52  1  0.25419575  0.87111320  0.26375034  1  0.106146  0  0.104416  0.10953  0  1.003161  0
H  H53  1  0.39574613  0.13734273  0.48902675  1  0.077592  0  0.108427  0.116664  0  0.992611  0
H  H54  1  0.64489115  0.98722562  0.44684015  1  0.094473  0  0.10599  0.110681  0  1.00912  0
H  H55  1  0.99104899  0.67259028  0.46193262  1  0.084517  0  0.096511  0.098936  0  1.018127  0
H  H56  1  0.88848694  0.28653200  0.47232411  1  0.079346  0  0.098969  0.102607  0  1.016706  0
H  H57  1  0.77809069  0.74619425  0.26728573  1  0.054276  0  0.104226  0.014379  0  0.96831  0
H  H58  1  0.54473871  0.05601674  0.31681445  1  0.642159  0  0.286711  0.393485  0  0.944842  0
H  H59  1  0.66360755  0.08414658  0.28551641  1  0.657894  0  0.283187  0.388591  0  0.946646  0
H  H60  1  0.00864992  0.78182362  0.10401672  1  0.102701  0  0.120428  0.091365  0  0.997109  0
H  H61  1  0.14935900  0.67547034  0.09792468  1  0.108722  0  0.116862  0.131803  0  0.990789  0
H  H62  1  0.81866885  0.33857433  0.13724612  1  0.15741  0  0.115726  0.134079  0  1.019204  0
H  H63  1  0.69687946  0.46332409  0.14363392  1  0.130318  0  0.123334  0.100437  0  0.999407  0
H  H64  1  0.19596603  0.52627053  0.06412735  1  0.118366  0  0.122825  0.131592  0  0.98345  0
H  H65  1  0.31310353  0.39762455  0.06479917  1  0.132439  0  0.13158  0.103991  0  1.021682  0
H  H66  1  0.09980684  0.19382110  0.16340546  1  0.203518  0  0.138837  0.122766  0  1.007412  0
H  H67  1  0.96993481  0.30732197  0.16509160  1  0.165995  0  0.123114  0.142836  0  1.021755  0
H  H68  1  0.63328786  0.83174749  0.18840126  1  0.619653  0  0.313291  0.403206  0  0.889813  0
H  H69  1  0.46899460  0.38347540  0.10810395  1  0.165358  0  0.110246  0.125358  0  1.034195  0
H  H70  1  0.58847524  0.25429420  0.10733369  1  0.099962  0  0.107884  0.108001  0  1.015431  0
H  H71  1  0.23139428  0.92523375  0.12398991  1  0.113869  0  0.108109  0.110659  0  1.016268  0
H  H72  1  0.10826792  0.04994249  0.12166969  1  0.129322  0  0.112029  0.123139  0  1.013482  0
H  H73  1  0.17023464  0.66480863  0.19788933  1  0.097745  0  0.101854  0.107666  0  1.01776  0
H  H74  1  0.00830310  0.61454480  0.25434913  1  0.089228  0  0.103874  0.110291  0  1.011478  0
H  H75  1  0.08762770  0.31678732  0.29151771  1  0.096749  0  0.10222  0.10516  0  1.014735  0
H  H76  1  0.25419680  0.37111498  0.23625025  1  0.106164  0  0.104416  0.10954  0  1.003147  0
H  H77  1  0.39574839  0.63734555  0.01097379  1  0.077575  0  0.108458  0.116685  0  0.992618  0
H  H78  1  0.64489157  0.48722619  0.05315871  1  0.094514  0  0.105994  0.110699  0  1.00921  0
H  H79  1  0.99105123  0.17259090  0.03806670  1  0.084438  0  0.096519  0.098964  0  1.018068  0
H  H80  1  0.88848864  0.78653199  0.02767555  1  0.079327  0  0.098951  0.102603  0  1.016714  0
H  H81  1  0.77809270  0.24620345  0.23271339  1  0.054169  0  0.104248  0.014413  0  0.96845  0
H  H82  1  0.54473770  0.55601247  0.18318602  1  0.642118  0  0.286703  0.393432  0  0.944903  0
H  H83  1  0.66360504  0.58414127  0.21448369  1  0.657899  0  0.283213  0.388596  0  0.946621  0
H  H84  1  0.99134962  0.71817702  0.60401696  1  0.102723  0  0.12043  0.091359  0  0.997179  0
H  H85  1  0.85064230  0.82453033  0.59792317  1  0.108445  0  0.116858  0.13179  0  0.990776  0
H  H86  1  0.18133151  0.16142595  0.63724649  1  0.157392  0  0.11572  0.134068  0  1.019186  0
H  H87  1  0.30311781  0.03667339  0.64363574  1  0.130222  0  0.123348  0.100439  0  0.999378  0
H  H88  1  0.80403852  0.97373303  0.56412765  1  0.118082  0  0.122779  0.131556  0  0.983552  0
H  H89  1  0.68689597  0.10237506  0.56479988  1  0.132383  0  0.131564  0.104004  0  1.021651  0
H  H90  1  0.90019856  0.30618279  0.66340423  1  0.203514  0  0.138804  0.122721  0  1.007441  0
H  H91  1  0.03007364  0.19268470  0.66508964  1  0.166053  0  0.123145  0.142912  0  1.021682  0
H  H92  1  0.36671243  0.66825008  0.68840123  1  0.619637  0  0.313304  0.403235  0  0.889787  0
H  H93  1  0.53100113  0.11651850  0.60810594  1  0.165258  0  0.110203  0.125329  0  1.034323  0
H  H94  1  0.41152050  0.24569970  0.60733634  1  0.099908  0  0.107903  0.108069  0  1.01533  0
H  H95  1  0.76859904  0.57476127  0.62399028  1  0.113791  0  0.108115  0.110687  0  1.01635  0
H  H96  1  0.89172602  0.45005322  0.62167025  1  0.129409  0  0.112013  0.123128  0  1.013487  0
H  H97  1  0.82976867  0.83519539  0.69789024  1  0.097818  0  0.101852  0.107674  0  1.017759  0
H  H98  1  0.99169945  0.88545994  0.75434965  1  0.089118  0  0.103888  0.110271  0  1.011563  0
H  H99  1  0.91237263  0.18321797  0.79151709  1  0.096567  0  0.102206  0.105205  0  1.014721  0
H  H100  1  0.74580299  0.12888866  0.73624942  1  0.106116  0  0.10442  0.109557  0  1.003085  0
H  H101  1  0.60425171  0.86265542  0.51097271  1  0.077596  0  0.108469  0.116706  0  0.992569  0
H  H102  1  0.35510669  0.01277253  0.55315931  1  0.094478  0  0.10598  0.110651  0  1.009204  0
H  H103  1  0.00895234  0.32741158  0.53806564  1  0.084421  0  0.096508  0.09895  0  1.018038  0
H  H104  1  0.11151655  0.71347078  0.52767414  1  0.079306  0  0.09894  0.102519  0  1.016718  0
H  H105  1  0.22191282  0.25381039  0.73271584  1  0.054266  0  0.104236  0.014392  0  0.968356  0
H  H106  1  0.45525787  0.94398419  0.68318621  1  0.642168  0  0.286741  0.393494  0  0.944818  0
H  H107  1  0.33639116  0.91585157  0.71448395  1  0.657913  0  0.283206  0.388576  0  0.946662  0
C  C108  1  0.02887957  0.31654659  0.88928050  1  0.532615  0  0.055431  0.100789  0  3.943163  0
C  C109  1  0.95204802  0.37690227  0.89339947  1  -0.023276  0  -0.07459  -0.17029  0  3.920728  0
C  C110  1  0.00545166  0.50320115  0.88372373  1  -0.047455  0  0.013186  0.097341  0  3.982032  0
C  C111  1  0.13493526  0.56340283  0.87083322  1  -0.074111  0  -0.073121  -0.16424  0  3.898619  0
C  C112  1  0.20389737  0.49541744  0.86753386  1  0.514318  0  0.056178  0.103318  0  3.925815  0
C  C113  1  0.92865884  0.57201485  0.88526033  1  0.036771  0  0.036586  0.131443  0  3.928355  0
C  C114  1  0.82898722  0.54624988  0.91336131  1  0.024394  0  -0.061791  -0.148262  0  3.921253  0
C  C115  1  0.76169841  0.61521884  0.91334839  1  0.414333  0  0.072724  0.061481  0  3.832143  0
C  C116  1  0.88302961  0.73245109  0.85801053  1  0.360287  0  0.083344  0.082093  0  3.7927  0
C  C117  1  0.95414418  0.66734406  0.85748039  1  0.056863  0  -0.055825  -0.1354  0  3.881348  0
C  C118  1  0.71737957  0.77766567  0.88597373  1  0.096842  0  0.093739  0.151222  0  3.983238  0
C  C119  1  0.58284791  0.71739071  0.89013210  1  0.022577  0  -0.081704  -0.156597  0  3.951223  0
C  C120  1  0.51656221  0.78873976  0.88978490  1  -0.106301  0  -0.072732  -0.066078  0  3.941836  0
C  C121  1  0.58348439  0.91720946  0.88474290  1  0.033232  0  -0.005808  -0.017724  0  3.927842  0
C  C122  1  0.71854986  0.97493583  0.88034113  1  0.029544  0  -0.074354  -0.066426  0  3.95498  0
C  C123  1  0.78655890  0.90584557  0.88115046  1  0.004883  0  -0.082826  -0.1609  0  3.978693  0
C  C124  1  0.51278618  0.99484101  0.88227879  1  1.568503  0  0.215344  0.591401  0  4.197897  0
C  C125  1  0.67894638  0.44412724  0.81814954  1  1.546516  0  0.204391  0.572651  0  4.241103  0
C  C126  1  0.77925061  0.47901704  0.78577350  1  -0.068319  0  -0.023167  -0.041117  0  3.989139  0
C  C127  1  0.84845151  0.41040561  0.78111120  1  -0.095602  0  -0.089176  -0.096791  0  3.982366  0
C  C128  1  0.93717601  0.43780576  0.74999099  1  0.003841  0  -0.088413  -0.103623  0  3.986613  0
C  C129  1  0.95890288  0.53585572  0.72384026  1  -0.062087  0  -0.019724  -0.035642  0  3.992634  0
C  C130  1  0.89203089  0.60643238  0.72900561  1  -0.031034  0  -0.085918  -0.097817  0  3.979045  0
C  C131  1  0.80118404  0.57724204  0.75961585  1  -0.032692  0  -0.085605  -0.096976  0  3.981531  0
C  C132  1  0.05579983  0.56630976  0.69075804  1  1.578794  0  0.210596  0.588634  0  4.21103  0
C  C133  1  0.46115539  0.36515559  0.92575215  1  1.588562  0  0.209059  0.573981  0  4.22052  0
C  C134  1  0.47835141  0.43215800  0.96463026  1  -0.057243  0  -0.017169  -0.033467  0  3.982098  0
C  C135  1  0.55982787  0.42354295  0.99432370  1  -0.000497  0  -0.084545  -0.101538  0  3.979916  0
C  C136  1  0.41814510  0.50834698  0.97042713  1  -0.0666  0  -0.084092  -0.097891  0  3.984543  0
C  C137  1  0.13844519  0.04918161  0.92357816  1  1.58003  0  0.213944  0.591786  0  4.18023  0
C  C138  1  0.06680973  0.02283768  0.96312153  1  -0.043557  0  -0.018138  -0.030008  0  3.953804  0
C  C139  1  0.00406068  0.90235497  0.97876884  1  -0.102774  0  -0.090203  -0.098819  0  3.988342  0
C  C140  1  0.06207043  0.12020520  0.98476100  1  0.022605  0  -0.089865  -0.100615  0  3.982737  0
C  C141  1  0.24850576  0.84423965  0.78237830  1  1.571252  0  0.139723  0.488202  0  4.25424  0
C  C142  1  0.97112141  0.18345373  0.38927826  1  0.532773  0  0.055355  0.100734  0  3.943108  0
C  C143  1  0.04795338  0.12309896  0.39339832  1  -0.023583  0  -0.074572  -0.170334  0  3.920707  0
C  C144  1  0.99455094  0.99680128  0.38372295  1  -0.047509  0  0.013155  0.097339  0  3.982026  0
C  C145  1  0.86506784  0.93659873  0.37083251  1  -0.074081  0  -0.073106  -0.164269  0  3.898659  0
C  C146  1  0.79610591  0.00458388  0.36753204  1  0.514228  0  0.056214  0.103317  0  3.925828  0
C  C147  1  0.07134243  0.92798480  0.38525974  1  0.036794  0  0.036612  0.131425  0  3.928438  0
C  C148  1  0.17101692  0.95375245  0.41336036  1  0.02433  0  -0.061754  -0.148172  0  3.921227  0
C  C149  1  0.23830700  0.88478071  0.41334741  1  0.414444  0  0.072642  0.061459  0  3.832158  0
C  C150  1  0.11697224  0.76754773  0.35800994  1  0.359851  0  0.083327  0.082153  0  3.792584  0
C  C151  1  0.04585467  0.83265569  0.35748042  1  0.056861  0  -0.055788  -0.135423  0  3.881287  0
C  C152  1  0.28262169  0.72233398  0.38597276  1  0.096831  0  0.09369  0.151092  0  3.983316  0
C  C153  1  0.41715287  0.78260615  0.39013194  1  0.022608  0  -0.081672  -0.156582  0  3.951146  0
C  C154  1  0.48343771  0.71125710  0.38978503  1  -0.106246  0  -0.072674  -0.065996  0  3.941803  0
C  C155  1  0.41651251  0.58278464  0.38474187  1  0.033135  0  -0.005876  -0.017853  0  3.927808  0
C  C156  1  0.28145013  0.52506292  0.38034048  1  0.029556  0  -0.074309  -0.066325  0  3.954844  0
C  C157  1  0.21344195  0.59415317  0.38114953  1  0.004875  0  -0.082811  -0.160807  0  3.97863  0
C  C158  1  0.48721381  0.50515773  0.38227653  1  1.568371  0  0.215354  0.591562  0  4.197737  0
C  C159  1  0.32105806  0.05587426  0.31814646  1  1.545784  0  0.204278  0.572475  0  4.241229  0
C  C160  1  0.22075189  0.02098550  0.28577167  1  -0.068161  0  -0.023124  -0.040947  0  3.989153  0
C  C161  1  0.15155188  0.08959694  0.28111001  1  -0.095803  0  -0.089233  -0.096908  0  3.982373  0
C  C162  1  0.06282495  0.06219320  0.24999015  1  0.003983  0  -0.088399  -0.103628  0  3.986582  0
C  C163  1  0.04109979  0.96414358  0.22383908  1  -0.061942  0  -0.01972  -0.035601  0  3.99266  0
C  C164  1  0.10797177  0.89356875  0.22900440  1  -0.03108  0  -0.08595  -0.097903  0  3.979175  0
C  C165  1  0.19882062  0.92276177  0.25961459  1  -0.032278  0  -0.085621  -0.097003  0  3.981568  0
C  C166  1  0.94420521  0.93369058  0.19075668  1  1.578758  0  0.210529  0.588545  0  4.211246  0
C  C167  1  0.53883367  0.13483812  0.42575014  1  1.588942  0  0.209103  0.574138  0  4.220212  0
C  C168  1  0.52164086  0.06783557  0.46462947  1  -0.057331  0  -0.017142  -0.033414  0  3.982103  0
C  C169  1  0.44016554  0.07645329  0.49432386  1  -0.000395  0  -0.08461  -0.101686  0  3.980008  0
C  C170  1  0.58184919  0.99165330  0.47042476  1  -0.066514  0  -0.084085  -0.097899  0  3.984685  0
C  C171  1  0.86156298  0.45082507  0.42357655  1  1.580031  0  0.213921  0.591896  0  4.179893  0
C  C172  1  0.93319731  0.47716701  0.46312018  1  -0.043464  0  -0.018101  -0.029892  0  3.953673  0
C  C173  1  0.99594653  0.59764899  0.47876720  1  -0.102805  0  -0.09019  -0.098856  0  3.988555  0
C  C174  1  0.93793605  0.37979848  0.48476026  1  0.022163  0  -0.089923  -0.100802  0  3.982762  0
C  C175  1  0.75148309  0.65574925  0.28237678  1  1.570454  0  0.139614  0.488035  0  4.254384  0
C  C176  1  0.97112174  0.68345341  0.11072136  1  0.532736  0  0.055394  0.100779  0  3.942893  0
C  C177  1  0.04795590  0.62309959  0.10660210  1  -0.023555  0  -0.074594  -0.170313  0  3.920501  0
C  C178  1  0.99455313  0.49680071  0.11627753  1  -0.047497  0  0.013156  0.097324  0  3.981921  0
C  C179  1  0.86506866  0.43659903  0.12916775  1  -0.07411  0  -0.073077  -0.164228  0  3.89869  0
C  C180  1  0.79610522  0.50458165  0.13246710  1  0.513983  0  0.056166  0.103299  0  3.925872  0
C  C181  1  0.07134550  0.42798608  0.11474034  1  0.037086  0  0.036571  0.131397  0  3.928392  0
C  C182  1  0.17101712  0.45375105  0.08663965  1  0.02397  0  -0.061784  -0.148235  0  3.921244  0
C  C183  1  0.23830547  0.38477931  0.08665137  1  0.414392  0  0.072704  0.061584  0  3.83214  0
C  C184  1  0.11697254  0.26754706  0.14198953  1  0.359777  0  0.083311  0.082078  0  3.792514  0
C  C185  1  0.04585886  0.33265595  0.14251998  1  0.056486  0  -0.055815  -0.135394  0  3.881277  0
C  C186  1  0.28262040  0.22232970  0.11402422  1  0.096824  0  0.093724  0.151107  0  3.983241  0
C  C187  1  0.41714816  0.28260189  0.10986466  1  0.022715  0  -0.081748  -0.156584  0  3.951145  0
C  C188  1  0.48343473  0.21125469  0.11021155  1  -0.10633  0  -0.07269  -0.065996  0  3.941812  0
C  C189  1  0.41650907  0.08278129  0.11525506  1  0.032575  0  -0.005904  -0.017837  0  3.927775  0
C  C190  1  0.28144753  0.02505955  0.11965803  1  0.02965  0  -0.074337  -0.066364  0  3.954926  0
C  C191  1  0.21343933  0.09414796  0.11884870  1  0.004861  0  -0.082794  -0.160778  0  3.978614  0
C  C192  1  0.48721598  0.00515715  0.11772037  1  1.568783  0  0.215416  0.59155  0  4.197928  0
C  C193  1  0.32105750  0.55587092  0.18185172  1  1.546041  0  0.204346  0.572661  0  4.241038  0
C  C194  1  0.22075072  0.52098482  0.21422717  1  -0.068362  0  -0.023109  -0.040964  0  3.989163  0
C  C195  1  0.15154982  0.58959625  0.21888886  1  -0.095582  0  -0.089221  -0.096931  0  3.982428  0
C  C196  1  0.06282488  0.56219518  0.25000817  1  0.003969  0  -0.088343  -0.10345  0  3.986497  0
C  C197  1  0.04109714  0.46414521  0.27615920  1  -0.06207  0  -0.019823  -0.035843  0  3.992695  0
C  C198  1  0.10797088  0.39357041  0.27099475  1  -0.03117  0  -0.085919  -0.097776  0  3.97909  0
C  C199  1  0.19881904  0.42276168  0.24038512  1  -0.032274  0  -0.085657  -0.097062  0  3.981578  0
C  C200  1  0.94419891  0.43369210  0.30924172  1  1.578771  0  0.210608  0.588698  0  4.211208  0
C  C201  1  0.53883418  0.63483423  0.07425002  1  1.589146  0  0.209072  0.573984  0  4.220249  0
C  C202  1  0.52164033  0.56783275  0.03537010  1  -0.057071  0  -0.01716  -0.033346  0  3.982215  0
C  C203  1  0.44016308  0.57645520  0.00567757  1  -0.000324  0  -0.084633  -0.10167  0  3.97999  0
C  C204  1  0.58184803  0.49165395  0.02957624  1  -0.066741  0  -0.084083  -0.097966  0  3.984804  0
C  C205  1  0.86156697  0.95082488  0.07642310  1  1.579558  0  0.213849  0.591751  0  4.180017  0
C  C206  1  0.93320068  0.97716696  0.03688004  1  -0.04305  0  -0.01818  -0.029999  0  3.953753  0
C  C207  1  0.99595017  0.09765060  0.02123183  1  -0.103217  0  -0.090189  -0.098827  0  3.988471  0
C  C208  1  0.93793912  0.87979943  0.01523997  1  0.022206  0  -0.089842  -0.100748  0  3.982606  0
C  C209  1  0.75148689  0.15575665  0.21762267  1  1.570603  0  0.139632  0.488052  0  4.254382  0
C  C210  1  0.02887603  0.81654721  0.61072150  1  0.532732  0  0.055342  0.10072  0  3.94318  0
C  C211  1  0.95204665  0.87690197  0.60660144  1  -0.023298  0  -0.074586  -0.170284  0  3.920718  0
C  C212  1  0.00544997  0.00320150  0.61627681  1  -0.047687  0  0.013149  0.097273  0  3.981973  0
C  C213  1  0.13493175  0.06340128  0.62916815  1  -0.073942  0  -0.073085  -0.164213  0  3.898691  0
C  C214  1  0.20389282  0.99541612  0.63246802  1  0.514453  0  0.056214  0.103361  0  3.925952  0
C  C215  1  0.92865676  0.07201798  0.61474002  1  0.037103  0  0.036629  0.131509  0  3.928458  0
C  C216  1  0.82898355  0.04624941  0.58663909  1  0.02428  0  -0.061736  -0.14821  0  3.921176  0
C  C217  1  0.76169433  0.11522115  0.58665205  1  0.414464  0  0.072671  0.06151  0  3.832105  0
C  C218  1  0.88303083  0.23245598  0.64198922  1  0.359733  0  0.08334  0.082088  0  3.792544  0
C  C219  1  0.95414712  0.16734895  0.64251843  1  0.056675  0  -0.055849  -0.135516  0  3.881385  0
C  C220  1  0.71737617  0.27766603  0.61402701  1  0.096864  0  0.093675  0.151043  0  3.983369  0
C  C221  1  0.58284584  0.21739201  0.60986782  1  0.022516  0  -0.081651  -0.156495  0  3.951218  0
C  C222  1  0.51656014  0.28874105  0.61021503  1  -0.106194  0  -0.072769  -0.066142  0  3.941769  0
C  C223  1  0.58348490  0.41721259  0.61525789  1  0.033139  0  -0.005838  -0.017837  0  3.927959  0
C  C224  1  0.71854687  0.47493709  0.61965958  1  0.029509  0  -0.074305  -0.066398  0  3.955018  0
C  C225  1  0.78655591  0.40584683  0.61885023  1  0.004873  0  -0.082795  -0.160713  0  3.978538  0
C  C226  1  0.51278404  0.49484042  0.61772353  1  1.568538  0  0.215355  0.591512  0  4.197708  0
C  C227  1  0.67894285  0.94412853  0.68185270  1  1.546029  0  0.204381  0.572747  0  4.240949  0
C  C228  1  0.77925075  0.97901729  0.71422749  1  -0.068355  0  -0.023133  -0.041036  0  3.989082  0
C  C229  1  0.84845206  0.91040677  0.71888945  1  -0.095595  0  -0.089175  -0.096814  0  3.982314  0
C  C230  1  0.93717726  0.93781051  0.75000841  1  0.004151  0  -0.088421  -0.103589  0  3.986659  0
C  C231  1  0.95890328  0.03586013  0.77615948  1  -0.062102  0  -0.019724  -0.035648  0  3.992698  0
C  C232  1  0.89203130  0.10643496  0.77099506  1  -0.031101  0  -0.085901  -0.0978  0  3.979104  0
C  C233  1  0.80118331  0.07724195  0.74038487  1  -0.03229  0  -0.085701  -0.097168  0  3.981574  0
C  C234  1  0.05579830  0.06631406  0.80924247  1  1.578858  0  0.210499  0.588471  0  4.211319  0
C  C235  1  0.46116161  0.86516189  0.57424932  1  1.589343  0  0.209041  0.573891  0  4.220485  0
C  C236  1  0.47835524  0.93216073  0.53536999  1  -0.057457  0  -0.017138  -0.03335  0  3.982163  0
C  C237  1  0.55983100  0.92354394  0.50567560  1  -0.000355  0  -0.084642  -0.101739  0  3.979969  0
C  C238  1  0.41814735  0.00834393  0.52957440  1  -0.06651  0  -0.084058  -0.097838  0  3.984764  0
C  C239  1  0.13844140  0.54917957  0.57642200  1  1.580009  0  0.213963  0.591815  0  4.180169  0
C  C240  1  0.06680793  0.52283763  0.53687868  1  -0.043607  0  -0.01812  -0.029983  0  3.953712  0
C  C241  1  0.00405697  0.40235380  0.52123076  1  -0.102703  0  -0.090209  -0.098865  0  3.988444  0
C  C242  1  0.06206787  0.62020338  0.51523830  1  0.022206  0  -0.089877  -0.100591  0  3.98265  0
C  C243  1  0.24851652  0.34425261  0.71762509  1  1.570696  0  0.139585  0.487973  0  4.254319  0
N  N244  1  0.15203619  0.37413928  0.87636352  1  -1.232928  0  -0.30796  -0.214868  0  3.491181  0
N  N245  1  0.78874433  0.70668906  0.88585096  1  -1.265376  0  -0.185911  0.072948  0  3.762982  0
N  N246  1  0.84796792  0.12586386  0.37636135  1  -1.232971  0  -0.307909  -0.214759  0  3.491182  0
N  N247  1  0.21125824  0.79331152  0.38585001  1  -1.264939  0  -0.185836  0.072968  0  3.763156  0
N  N248  1  0.84796859  0.62586258  0.12363715  1  -1.23257  0  -0.307942  -0.214815  0  3.491027  0
N  N249  1  0.21125739  0.29330817  0.11414790  1  -1.26468  0  -0.185839  0.072947  0  3.762972  0
N  N250  1  0.15203169  0.87413800  0.62363871  1  -1.232905  0  -0.307954  -0.214831  0  3.491116  0
N  N251  1  0.78874137  0.20669034  0.61414884  1  -1.264953  0  -0.185832  0.073028  0  3.762986  0
O  O252  1  0.39087010  0.94324762  0.88369231  1  -1.129439  0  -0.312104  -0.559045  0  2.260942  0
O  O253  1  0.58777460  0.11126776  0.87823633  1  -1.185792  0  -0.327719  -0.558118  0  2.344084  0
O  O254  1  0.66708507  0.35044224  0.83949748  1  -1.18652  0  -0.340659  -0.589209  0  2.405809  0
O  O255  1  0.61601092  0.50456698  0.82255730  1  -1.169962  0  -0.323194  -0.560312  0  2.190413  0
O  O256  1  0.08080221  0.48011705  0.67855475  1  -1.189286  0  -0.318659  -0.58456  0  2.34532  0
O  O257  1  0.10400653  0.67715167  0.67777788  1  -1.184893  0  -0.322931  -0.569858  0  2.373338  0
O  O258  1  0.40797473  0.39302123  0.89694747  1  -1.186569  0  -0.308423  -0.56418  0  2.381397  0
O  O259  1  0.50765922  0.28750021  0.92408652  1  -1.167203  0  -0.320753  -0.546788  0  2.319259  0
O  O260  1  0.18461094  0.15932055  0.91062148  1  -1.192594  0  -0.315238  -0.573467  0  2.355091  0
O  O261  1  0.14631645  0.95819706  0.90632291  1  -1.167889  0  -0.323122  -0.560536  0  2.300671  0
O  O262  1  0.35443632  0.16102117  0.84068541  1  -1.230106  0  -0.552458  -0.86974  0  2.334811  0
O  O263  1  0.21692822  0.83414889  0.81984384  1  -1.184062  0  -0.330549  -0.538825  0  2.403166  0
O  O264  1  0.30367473  0.94199420  0.76242277  1  -1.175563  0  -0.326931  -0.511765  0  2.165148  0
O  O265  1  0.35926906  0.40352746  0.81376866  1  -1.284582  0  -0.584075  -0.78651  0  2.125643  0
O  O266  1  0.60912641  0.55674927  0.38368938  1  -1.129555  0  -0.31212  -0.559096  0  2.261007  0
O  O267  1  0.41222167  0.38872797  0.37823346  1  -1.185707  0  -0.327691  -0.558203  0  2.343812  0
O  O268  1  0.33291628  0.14956381  0.33949468  1  -1.186421  0  -0.340646  -0.589311  0  2.405907  0
O  O269  1  0.38399251  0.99543845  0.32255534  1  -1.169859  0  -0.323111  -0.560129  0  2.190486  0
O  O270  1  0.91920045  0.01987938  0.17855376  1  -1.18922  0  -0.318598  -0.584463  0  2.345393  0
O  O271  1  0.89600291  0.82284872  0.17777567  1  -1.184982  0  -0.32294  -0.569878  0  2.373439  0
O  O272  1  0.59201151  0.10697535  0.39694544  1  -1.187121  0  -0.308392  -0.56424  0  2.381325  0
O  O273  1  0.49232513  0.21249628  0.42408604  1  -1.166951  0  -0.320815  -0.546884  0  2.319062  0
O  O274  1  0.81539687  0.34068525  0.41061961  1  -1.192623  0  -0.315208  -0.573523  0  2.355006  0
O  O275  1  0.85368862  0.54180715  0.40632136  1  -1.167968  0  -0.32312  -0.560593  0  2.300531  0
O  O276  1  0.64555844  0.33897469  0.34068483  1  -1.230114  0  -0.552503  -0.869766  0  2.334934  0
O  O277  1  0.78305827  0.66584266  0.31984020  1  -1.183852  0  -0.330472  -0.538716  0  2.403515  0
O  O278  1  0.69631503  0.55798736  0.26242280  1  -1.175218  0  -0.326924  -0.511768  0  2.164808  0
O  O279  1  0.64073284  0.09647590  0.31376901  1  -1.284616  0  -0.584089  -0.786591  0  2.125571  0
O  O280  1  0.60912514  0.05674869  0.11630715  1  -1.129588  0  -0.312097  -0.559069  0  2.261132  0
O  O281  1  0.41222147  0.88872484  0.12176403  1  -1.185777  0  -0.327747  -0.558189  0  2.343832  0
O  O282  1  0.33291931  0.64956239  0.16050439  1  -1.18638  0  -0.340645  -0.589295  0  2.405767  0
O  O283  1  0.38398735  0.49543025  0.17744246  1  -1.169954  0  -0.323187  -0.560268  0  2.190398  0
O  O284  1  0.91919263  0.51988203  0.32144351  1  -1.189315  0  -0.318641  -0.58458  0  2.345447  0
O  O285  1  0.89599869  0.32285112  0.32222338  1  -1.184769  0  -0.32295  -0.569904  0  2.373447  0
O  O286  1  0.59201532  0.60697322  0.10305410  1  -1.18694  0  -0.308384  -0.564202  0  2.381462  0
O  O287  1  0.49232825  0.71249609  0.07591444  1  -1.167342  0  -0.320808  -0.546816  0  2.318959  0
O  O288  1  0.81539990  0.84068316  0.08937978  1  -1.19263  0  -0.315181  -0.573428  0  2.354922  0
O  O289  1  0.85369092  0.04180480  0.09367805  1  -1.167895  0  -0.32307  -0.560531  0  2.300644  0
O  O290  1  0.64556237  0.83897513  0.15931495  1  -1.230157  0  -0.552457  -0.869651  0  2.334794  0
O  O291  1  0.78306269  0.16584556  0.18015923  1  -1.183947  0  -0.33046  -0.538717  0  2.403303  0
O  O292  1  0.69631526  0.05799469  0.23757849  1  -1.175129  0  -0.326966  -0.511802  0  2.164865  0
O  O293  1  0.64073095  0.59647162  0.18623080  1  -1.284566  0  -0.58411  -0.786518  0  2.125584  0
O  O294  1  0.39086885  0.44324889  0.61631008  1  -1.12944  0  -0.312118  -0.559073  0  2.260886  0
O  O295  1  0.58777618  0.61127019  0.62176750  1  -1.185938  0  -0.327682  -0.558141  0  2.343916  0
O  O296  1  0.66708028  0.85043528  0.66050568  1  -1.186376  0  -0.34067  -0.589344  0  2.405752  0
O  O297  1  0.61601188  0.00456804  0.67744322  1  -1.169908  0  -0.323167  -0.56029  0  2.190422  0
O  O298  1  0.08080044  0.98012155  0.82144600  1  -1.189148  0  -0.318589  -0.584422  0  2.345375  0
O  O299  1  0.10400015  0.17715314  0.82222409  1  -1.185094  0  -0.322949  -0.569871  0  2.373465  0
O  O300  1  0.40798250  0.89302743  0.60305342  1  -1.186929  0  -0.308378  -0.56416  0  2.381391  0
O  O301  1  0.50766754  0.78750187  0.57591493  1  -1.167592  0  -0.320776  -0.546737  0  2.319087  0
O  O302  1  0.18460664  0.65931939  0.58937835  1  -1.192569  0  -0.315267  -0.573486  0  2.354996  0
O  O303  1  0.14631361  0.45819841  0.59367780  1  -1.167853  0  -0.323091  -0.560502  0  2.300673  0
O  O304  1  0.35443812  0.66102439  0.65931493  1  -1.23013  0  -0.552487  -0.869758  0  2.334881  0
O  O305  1  0.21693875  0.33415920  0.68016197  1  -1.183915  0  -0.330475  -0.538706  0  2.403423  0
O  O306  1  0.30368630  0.44201450  0.73757726  1  -1.175347  0  -0.326895  -0.511697  0  2.164845  0
O  O307  1  0.35926851  0.90352781  0.68623195  1  -1.284642  0  -0.584132  -0.786553  0  2.125531  0
