# generated using pymatgen
data_CoH14C20(NO)5
_symmetry_space_group_name_H-M   'P 1'
_cell_length_a   7.79624844
_cell_length_b   10.63330776
_cell_length_c   12.50816617
_cell_angle_alpha   66.51618954
_cell_angle_beta   80.99884819
_cell_angle_gamma   67.97053308
_symmetry_Int_Tables_number   1
_chemical_formula_structural   CoH14C20(NO)5
_chemical_formula_sum   'Co2 H28 C40 N10 O10'
_cell_volume   881.57589008
_cell_formula_units_Z   2
loop_
 _symmetry_equiv_pos_site_id
 _symmetry_equiv_pos_as_xyz
  1  'x, y, z'
loop_
 _atom_site_type_symbol
 _atom_site_label
 _atom_site_symmetry_multiplicity
 _atom_site_fract_x
 _atom_site_fract_y
 _atom_site_fract_z
 _atom_site_occupancy
 _atom_site_pbe_bader_charge
 _atom_site_pbe_bader_spin_density
 _atom_site_pbe_cm5_charge
 _atom_site_pbe_ddec_charge
 _atom_site_pbe_ddec_spin_density
 _atom_site_pbe_ddec_sum_bond_order
 _atom_site_pbe_magmom
Co  Co0  1  0.00000566  0.99999628  0.99999983  1  1.307974  2.60034  0.68163  0.912478  2.823894  2.482318  2.584
Co  Co1  1  0.00001147  0.49999818  0.99999569  1  1.124749  0.991269  0.635849  0.678415  1.054422  2.845838  0.976
H  H2  1  0.17298571  0.26569337  0.95764626  1  0.648991  -0.000259  0.290796  0.376266  -0.000165  0.967578  0.0
H  H3  1  0.82703309  0.73429889  0.04235198  1  0.64851  -0.000259  0.290844  0.376302  -0.000165  0.967503  0.0
H  H4  1  0.34546740  0.27032119  0.00274616  1  0.646815  -9e-06  0.286078  0.380548  -6.6e-05  0.957051  0.0
H  H5  1  0.65455125  0.72967766  0.99724843  1  0.647216  -9e-06  0.286084  0.380547  -6.6e-05  0.95706  0.0
H  H6  1  0.72439244  0.55087331  0.22740846  1  0.532665  4.3e-05  0.327729  0.285517  -0.000154  0.949677  0.0
H  H7  1  0.27562645  0.44910904  0.77259688  1  0.532663  4.3e-05  0.327706  0.28553  -0.000154  0.949741  0.0
H  H8  1  0.30939941  0.59952776  0.97699328  1  0.081301  -6.8e-05  0.119184  0.082  -0.000272  1.053304  0.0
H  H9  1  0.69062845  0.40046451  0.02300441  1  0.081332  -6.8e-05  0.11915  0.081944  -0.000273  1.053478  0.0
H  H10  1  0.04202235  0.36974031  0.25472369  1  0.136273  3.8e-05  0.11752  0.083957  -0.000159  1.068787  0.0
H  H11  1  0.95797411  0.63027171  0.74526332  1  0.136258  3.8e-05  0.117558  0.083932  -0.000159  1.068883  0.0
H  H12  1  0.26695837  0.32945249  0.39578864  1  0.123658  -3.7e-05  0.113481  0.122709  6e-06  0.999284  0.0
H  H13  1  0.73302475  0.67056367  0.60420990  1  0.121427  -3.7e-05  0.113499  0.122733  6e-06  0.999196  0.0
H  H14  1  0.53548276  0.57544697  0.10481202  1  0.125008  -5.8e-05  0.116179  0.128982  -0.00015  1.040994  0.0
H  H15  1  0.46453425  0.42454519  0.89519197  1  0.125047  -5.8e-05  0.116176  0.128911  -0.00015  1.041081  0.0
H  H16  1  0.54520448  0.21121627  0.66978853  1  0.105802  0.000806  0.109955  0.122206  0.000372  1.001826  0.0
H  H17  1  0.45478723  0.78877030  0.33022436  1  0.105797  0.000805  0.10998  0.122268  0.000372  1.001828  0.0
H  H18  1  0.65233894  0.08576268  0.87829896  1  0.152053  0.001521  0.120772  0.103698  0.000336  0.992834  0.001
H  H19  1  0.34766714  0.91421307  0.12171084  1  0.152279  0.001521  0.120796  0.103643  0.000335  0.992857  0.001
H  H20  1  0.09988525  0.22810042  0.79433866  1  0.106912  0.001741  0.118079  0.09227  0.00059  0.988988  0.001
H  H21  1  0.90010837  0.77189169  0.20566758  1  0.106713  0.001741  0.118068  0.09222  0.00059  0.989015  0.001
H  H22  1  0.00812128  0.36505560  0.58588112  1  0.105256  0.000869  0.109598  0.117783  0.000382  1.012396  0.0
H  H23  1  0.99185739  0.63495053  0.41413205  1  0.105067  0.000869  0.109599  0.117799  0.000381  1.012441  0.0
H  H24  1  0.42890399  0.02240753  0.62785336  1  0.077204  -2.8e-05  0.101658  0.102583  -2e-05  1.007986  0.0
H  H25  1  0.57107201  0.97761962  0.37213897  1  0.079708  -2.8e-05  0.101687  0.102588  -2e-05  1.007919  0.0
H  H26  1  0.26304747  0.07650465  0.45649951  1  0.046998  -1.1e-05  0.100139  0.096024  -1.4e-05  1.032615  0.0
H  H27  1  0.73692052  0.92352787  0.54349642  1  0.046755  -1.1e-05  0.100221  0.096112  -1.4e-05  1.03257  0.0
H  H28  1  0.88559204  0.87067024  0.67873147  1  0.072525  -6.9e-05  0.103834  0.104118  -9.2e-05  1.026471  0.0
H  H29  1  0.11440545  0.12932850  0.32126925  1  0.072613  -6.9e-05  0.103821  0.104097  -9.2e-05  1.026503  0.0
C  C30  1  0.30127120  0.54180836  0.07002058  1  0.523801  -0.007369  0.043059  0.092825  -0.007943  3.933095  -0.005
C  C31  1  0.69874595  0.45818714  0.92997915  1  0.52373  -0.007369  0.043146  0.092915  -0.007943  3.933268  -0.005
C  C32  1  0.15473469  0.41198370  0.22518769  1  0.437349  -0.00745  0.042028  0.082853  -0.007924  3.91707  -0.005
C  C33  1  0.84527057  0.58802166  0.77480727  1  0.437477  -0.007449  0.042018  0.083085  -0.007923  3.91736  -0.005
C  C34  1  0.28100069  0.38922526  0.30315592  1  0.022451  0.001532  -0.072326  -0.14258  0.000349  3.938024  0.001
C  C35  1  0.71900033  0.61078003  0.69684333  1  0.024584  0.001531  -0.072326  -0.142653  0.000349  3.938103  0.001
C  C36  1  0.42467793  0.44580179  0.26180897  1  -0.064142  -0.009098  0.013878  0.059704  -0.009616  4.030977  -0.006
C  C37  1  0.57533192  0.55419261  0.73819156  1  -0.064139  -0.009099  0.013896  0.059794  -0.009617  4.031254  -0.006
C  C38  1  0.43048202  0.52582742  0.14247296  1  0.001203  0.001543  -0.082206  -0.159694  0.000364  3.938802  0.001
C  C39  1  0.56953779  0.47416479  0.85752845  1  0.001392  0.001543  -0.082243  -0.159646  0.000364  3.939014  0.001
C  C40  1  0.55960229  0.42457052  0.34032508  1  0.998134  0.000404  0.228343  0.269356  -0.00011  4.047323  0.001
C  C41  1  0.44040563  0.57542375  0.65968281  1  0.998226  0.000404  0.228348  0.269265  -0.00011  4.04744  0.001
C  C42  1  0.71360565  0.36267480  0.48941967  1  0.933467  0.000627  0.211032  0.254018  2e-05  4.068353  0.001
C  C43  1  0.28637825  0.63732710  0.51058649  1  0.933393  0.000626  0.211192  0.254235  1.9e-05  4.067946  0.001
C  C44  1  0.77118584  0.29463535  0.61054221  1  0.024983  -0.008467  0.01395  0.070198  -0.009  3.991118  -0.006
C  C45  1  0.22879532  0.70536652  0.38946574  1  0.025058  -0.008464  0.013879  0.070291  -0.008996  3.991023  -0.006
C  C46  1  0.66845667  0.21723842  0.69509297  1  0.012424  0.00453  -0.084818  -0.164698  0.002144  3.944246  0.004
C  C47  1  0.33153066  0.78275254  0.30491722  1  0.012709  0.004528  -0.084754  -0.16468  0.002143  3.94439  0.004
C  C48  1  0.72690194  0.14761130  0.80965842  1  0.420706  -0.005114  0.042415  0.092195  -0.006064  3.950634  -0.003
C  C49  1  0.27309667  0.85237206  0.19035186  1  0.420111  -0.005113  0.042333  0.092061  -0.006063  3.950757  -0.003
C  C50  1  0.97653820  0.22880105  0.76308401  1  0.497568  -0.00495  0.045413  0.095743  -0.005323  3.961327  -0.003
C  C51  1  0.02344836  0.77119756  0.23692382  1  0.497558  -0.004947  0.045509  0.095902  -0.00532  3.961489  -0.003
C  C52  1  0.92618607  0.30314703  0.64686879  1  -0.052711  0.004828  -0.078367  -0.157444  0.002209  3.940177  0.004
C  C53  1  0.07379121  0.69685153  0.35314203  1  -0.052708  0.004828  -0.078438  -0.157593  0.002209  3.94011  0.004
C  C54  1  0.35231155  0.89410845  0.85872357  1  1.625092  0.005453  0.210158  0.586806  0.003936  4.202559  0.005
C  C55  1  0.64770014  0.10589479  0.14126846  1  1.624727  0.005456  0.210158  0.586764  0.003936  4.202564  0.005
C  C56  1  0.25021255  0.92120049  0.75311888  1  -0.041201  -0.000332  -0.009111  -0.048833  -0.000902  3.929274  0.0
C  C57  1  0.74978649  0.07880704  0.24687659  1  -0.040655  -0.000333  -0.009007  -0.048693  -0.000902  3.929171  0.0
C  C58  1  0.30750575  0.99042131  0.63961539  1  0.003892  0.000526  -0.087833  -0.099836  0.000307  3.985323  0.0
C  C59  1  0.69247551  0.00959924  0.36038108  1  0.001058  0.000526  -0.087917  -0.099883  0.000307  3.985244  0.0
C  C60  1  0.21190777  0.02116785  0.54178959  1  -0.075963  -0.000517  -0.087402  -0.11782  -0.000531  3.952379  0.0
C  C61  1  0.78806118  0.97886248  0.45820698  1  -0.075602  -0.000517  -0.087584  -0.117982  -0.000531  3.952448  0.0
C  C62  1  0.05381905  0.98266634  0.55133845  1  -0.032117  0.000613  -0.007358  0.068594  0.000302  3.978082  0.0
C  C63  1  0.94615285  0.01736076  0.44865654  1  0.002419  0.000614  -0.00732  0.068551  0.000302  3.978108  0.0
C  C64  1  0.00337735  0.90710465  0.66464706  1  -0.011251  -0.000437  -0.084392  -0.138068  -0.000527  3.925514  0.0
C  C65  1  0.99661344  0.09290396  0.33534857  1  -0.01135  -0.000437  -0.084398  -0.138057  -0.000527  3.925408  0.0
C  C66  1  0.09714184  0.87748058  0.76338565  1  -0.019986  -0.000154  -0.013078  -0.051392  -0.000955  3.967785  0.0
C  C67  1  0.90285943  0.12251721  0.23660713  1  -0.0199  -0.000154  -0.01307  -0.051354  -0.000956  3.96772  0.0
C  C68  1  0.03635200  0.78529375  0.87763602  1  1.517925  -0.006134  0.228327  0.580634  -0.007597  4.116349  -0.004
C  C69  1  0.96365902  0.21470181  0.12236006  1  1.518049  -0.006137  0.228163  0.580323  -0.007599  4.116164  -0.004
N  N70  1  0.69543841  0.48443557  0.30906695  1  -0.81051  -0.002818  -0.256273  -0.135393  -0.002948  3.664256  -0.002
N  N71  1  0.30457130  0.51555549  0.69093783  1  -0.810681  -0.002818  -0.25624  -0.135303  -0.002948  3.664515  -0.002
N  N72  1  0.79535226  0.44655229  0.40274271  1  -0.615464  -0.004666  -0.214288  -0.238682  -0.004839  3.080093  -0.003
N  N73  1  0.20464959  0.55344086  0.59726670  1  -0.615683  -0.004665  -0.21438  -0.23879  -0.004839  3.080172  -0.003
N  N74  1  0.56854453  0.34665086  0.45453526  1  -1.16119  -0.003316  -0.326756  -0.411134  -0.00346  3.189941  -0.003
N  N75  1  0.43144217  0.65335109  0.54546832  1  -1.160883  -0.003317  -0.32686  -0.411348  -0.00346  3.189635  -0.003
N  N76  1  0.16412362  0.48553560  0.10889993  1  -1.195088  -0.007864  -0.341098  -0.191116  -0.008178  3.612008  -0.005
N  N77  1  0.83589339  0.51446436  0.89109281  1  -1.195381  -0.007864  -0.341118  -0.191354  -0.008179  3.612191  -0.005
N  N78  1  0.88198481  0.14971098  0.84291722  1  -1.241962  0.056589  -0.342853  -0.272919  0.030476  3.636406  0.046
N  N79  1  0.11800929  0.85027343  0.15709460  1  -1.241435  0.056581  -0.342796  -0.272752  0.030469  3.636383  0.046
O  O80  1  0.05782310  0.65817232  0.88030984  1  -1.102882  -0.002519  -0.294964  -0.498116  -0.003579  2.528437  -0.002
O  O81  1  0.94220447  0.34181353  0.11968187  1  -1.103271  -0.002516  -0.294851  -0.497884  -0.003576  2.528462  -0.002
O  O82  1  0.97139738  0.82873862  0.96120632  1  -1.156315  0.044378  -0.284009  -0.544924  0.023205  2.414069  0.04
O  O83  1  0.02862507  0.17125054  0.03878226  1  -1.155917  0.044394  -0.283971  -0.544824  0.023213  2.413627  0.04
O  O84  1  0.51955114  0.81199626  0.87064349  1  -1.178787  0.022394  -0.313528  -0.53564  0.010935  2.13385  0.019
O  O85  1  0.48046834  0.18802115  0.12934603  1  -1.178692  0.022392  -0.313465  -0.535537  0.010935  2.133878  0.019
O  O86  1  0.26389535  0.95864529  0.92879191  1  -1.164684  0.072203  -0.322609  -0.57741  0.037264  2.340798  0.059
O  O87  1  0.73610953  0.04134913  0.07120650  1  -1.164433  0.0722  -0.322694  -0.577544  0.037261  2.340832  0.059
O  O88  1  0.25265655  0.32656779  0.93773798  1  -1.290183  0.0553  -0.569076  -0.761335  0.028237  2.080947  0.045
O  O89  1  0.74735946  0.67342562  0.06225687  1  -1.289891  0.055297  -0.569137  -0.76139  0.028236  2.080835  0.045
