# generated using pymatgen
data_NiH6C9O4
_symmetry_space_group_name_H-M   'P 1'
_cell_length_a   6.93152930
_cell_length_b   13.60792358
_cell_length_c   20.71620983
_cell_angle_alpha   98.80590447
_cell_angle_beta   96.01336917
_cell_angle_gamma   101.33482165
_symmetry_Int_Tables_number   1
_chemical_formula_structural   NiH6C9O4
_chemical_formula_sum   'Ni8 H48 C72 O32'
_cell_volume   1874.90833206
_cell_formula_units_Z   8
loop_
 _symmetry_equiv_pos_site_id
 _symmetry_equiv_pos_as_xyz
  1  'x, y, z'
loop_
 _atom_site_type_symbol
 _atom_site_label
 _atom_site_symmetry_multiplicity
 _atom_site_fract_x
 _atom_site_fract_y
 _atom_site_fract_z
 _atom_site_occupancy
 _atom_site_pbe_bader_charge
 _atom_site_pbe_bader_spin_density
 _atom_site_pbe_cm5_charge
 _atom_site_pbe_ddec_charge
 _atom_site_pbe_ddec_spin_density
 _atom_site_pbe_ddec_sum_bond_order
 _atom_site_pbe_magmom
Ni  Ni0  1  0.96415976  0.14359760  0.28857066  1  1.220999  1.573409  0.623075  0.978217  1.756098  2.389861  1.561
Ni  Ni1  1  0.03583967  0.85640292  0.71143028  1  1.220999  1.573409  0.623091  0.978256  1.756102  2.389789  1.561
Ni  Ni2  1  0.18012000  0.93814797  0.23864822  1  1.215347  1.595428  0.619015  0.984925  1.785423  2.379165  1.581
Ni  Ni3  1  0.81987942  0.06185256  0.76135176  1  1.215329  1.595426  0.618997  0.984888  1.785421  2.379187  1.581
Ni  Ni4  1  0.64142169  0.94731686  0.23206482  1  1.216833  1.562221  0.626983  0.974491  1.743651  2.4003  1.549
Ni  Ni5  1  0.35857660  0.05268442  0.76793568  1  1.216822  1.562219  0.626972  0.974476  1.743655  2.400305  1.549
Ni  Ni6  1  0.43011645  0.15566435  0.28544847  1  1.222593  1.605921  0.620405  0.993925  1.798794  2.37515  1.592
Ni  Ni7  1  0.56988121  0.84433541  0.71455138  1  1.222593  1.605923  0.620415  0.993969  1.798798  2.3751  1.592
H  H8  1  0.75047060  0.22400547  0.37594086  1  0.647483  -0.000247  0.347771  0.435319  -0.000219  0.822134  0.0
H  H9  1  0.24952415  0.77599429  0.62405984  1  0.647501  -0.000247  0.347799  0.435328  -0.000218  0.822158  0.0
H  H10  1  0.78918441  0.28771228  0.31898679  1  0.650868  -5.5e-05  0.346598  0.433387  -0.000157  0.826232  0.0
H  H11  1  0.21081614  0.71228748  0.68101412  1  0.650858  -5.5e-05  0.346609  0.433406  -0.000157  0.826191  0.0
H  H12  1  0.88247142  0.86452783  0.14805830  1  0.633059  -0.000365  0.340645  0.429316  -0.000327  0.837518  0.0
H  H13  1  0.11752542  0.13547346  0.85194215  1  0.633047  -0.000365  0.340651  0.42933  -0.000327  0.837499  0.0
H  H14  1  0.81666671  0.80210984  0.20358278  1  0.635472  2.8e-05  0.343078  0.429094  -0.0001  0.832653  0.0
H  H15  1  0.18333190  0.19789220  0.79641781  1  0.635448  2.8e-05  0.343086  0.429146  -0.0001  0.832635  0.0
H  H16  1  0.47556071  0.99577636  0.32542583  1  0.617898  0.000782  0.312733  0.400481  0.001677  0.885401  0.002
H  H17  1  0.52443871  0.00422416  0.67457415  1  0.617892  0.000782  0.312714  0.400455  0.001677  0.885434  0.002
H  H18  1  0.13858911  0.09738176  0.19596068  1  0.615661  0.0013  0.314327  0.402546  0.002029  0.87964  0.002
H  H19  1  0.86140999  0.90261800  0.80403921  1  0.615669  0.0013  0.314323  0.402554  0.002029  0.879648  0.002
H  H20  1  0.47477144  0.48971028  0.35013642  1  0.073386  0.000491  0.100859  0.105278  0.000211  1.003698  0.0
H  H21  1  0.52522798  0.51029024  0.64986453  1  0.073374  0.000491  0.100863  0.105281  0.000211  1.003709  0.0
H  H22  1  0.53631759  0.67304357  0.34006574  1  0.046055  0.000461  0.101312  0.107096  0.000201  1.025496  0.0
H  H23  1  0.46368361  0.32695772  0.65993486  1  0.046063  0.000462  0.101306  0.107082  0.000201  1.025504  0.0
H  H24  1  0.14392254  0.68241622  0.13713400  1  0.084018  0.00015  0.097513  0.105243  1.7e-05  1.033355  0.0
H  H25  1  0.85607979  0.31758430  0.86286656  1  0.084016  0.00015  0.097514  0.105227  1.7e-05  1.03334  0.0
H  H26  1  0.94138295  0.55258405  0.04651149  1  0.050072  1.4e-05  0.097083  0.094199  4e-06  1.020241  0.0
H  H27  1  0.05861938  0.44741648  0.95348859  1  0.050133  1.4e-05  0.097088  0.094201  4e-06  1.020224  0.0
H  H28  1  0.88382346  0.36857554  0.05545962  1  0.09526  1.5e-05  0.094668  0.090042  -6e-06  1.045733  0.0
H  H29  1  0.11617887  0.63142498  0.94453998  1  0.095321  1.5e-05  0.094667  0.09004  -6e-06  1.045734  0.0
H  H30  1  0.02391634  0.31554267  0.15558654  1  0.110859  0.000192  0.098753  0.106758  8.8e-05  1.026018  0.0
H  H31  1  0.97608163  0.68445785  0.84441339  1  0.110856  0.000192  0.098755  0.106762  8.8e-05  1.026006  0.0
H  H32  1  0.16150666  0.99736446  0.02744893  1  0.063515  0.000467  0.104637  0.110149  0.000193  1.007283  0.0
H  H33  1  0.83848954  0.00263530  0.97255134  1  0.063538  0.000467  0.104653  0.11018  0.000193  1.007251  0.0
H  H34  1  0.16965562  0.98281744  0.90633018  1  0.100204  0.00022  0.10542  0.112331  1.8e-05  1.012017  0.0
H  H35  1  0.83033494  0.01717927  0.09367007  1  0.100183  0.00022  0.105441  0.112366  1.8e-05  1.011938  0.0
H  H36  1  0.49051594  0.70399767  0.84883706  1  0.104208  0.000262  0.104683  0.120316  0.000154  1.027262  0.0
H  H37  1  0.50948316  0.29600209  0.15116236  1  0.104224  0.000262  0.104691  0.120341  0.000154  1.027264  0.0
H  H38  1  0.61105825  0.58133044  0.90948464  1  0.066697  3.5e-05  0.098125  0.096821  9e-06  1.025292  0.0
H  H39  1  0.38894295  0.41867084  0.09051596  1  0.066666  3.5e-05  0.098117  0.096794  9e-06  1.025298  0.0
H  H40  1  0.59679188  0.59470558  0.03076323  1  0.066196  2.1e-05  0.09913  0.09669  1e-06  1.013681  0.0
H  H41  1  0.40321109  0.40529647  0.96923799  1  0.066131  2.1e-05  0.099131  0.096698  1e-06  1.013755  0.0
H  H42  1  0.46181210  0.73166613  0.08964582  1  0.058741  0.00018  0.098211  0.10538  6.1e-05  1.034197  0.0
H  H43  1  0.53819264  0.26833667  0.91035506  1  0.05873  0.00018  0.098178  0.105307  6.1e-05  1.034268  0.0
H  H44  1  0.74322369  0.03752871  0.43271538  1  0.08131  0.000308  0.105997  0.112383  7.6e-05  0.996061  0.0
H  H45  1  0.25677976  0.96247105  0.56728611  1  0.081294  0.000308  0.106019  0.112398  7.6e-05  0.996039  0.0
H  H46  1  0.65734197  0.98628632  0.53847648  1  0.096792  0.000312  0.105194  0.112337  9.6e-05  1.004652  0.0
H  H47  1  0.34266406  0.01371268  0.46152503  1  0.09695  0.000312  0.105193  0.112354  9.6e-05  1.004629  0.0
H  H48  1  0.79936314  0.65531426  0.53173715  1  0.054127  0.000196  0.099767  0.108385  8.9e-05  1.007709  0.0
H  H49  1  0.20063500  0.34468322  0.46826007  1  0.054454  0.000196  0.099778  0.108376  8.9e-05  1.007773  0.0
H  H50  1  0.91809298  0.53637969  0.45034454  1  0.056682  3.3e-05  0.096124  0.091188  4e-06  1.009351  0.0
H  H51  1  0.08190227  0.46361778  0.54965257  1  0.056683  3.3e-05  0.096143  0.091233  4e-06  1.009331  0.0
H  H52  1  0.01711482  0.58976987  0.34590090  1  0.063907  9e-06  0.09856  0.097693  -1.5e-05  1.014502  0.0
H  H53  1  0.98288542  0.41022913  0.65409703  1  0.063836  9e-06  0.098564  0.097741  -1.5e-05  1.014466  0.0
H  H54  1  0.99496444  0.75913633  0.32325571  1  0.106551  0.000208  0.10165  0.114118  6.8e-05  1.0401  0.0
H  H55  1  0.00503902  0.24086343  0.67674289  1  0.106687  0.000208  0.101672  0.114176  6.8e-05  1.040079  0.0
C  C56  1  0.23422961  0.33174444  0.27198722  1  1.558395  -0.001885  0.218549  0.607781  -0.003216  4.147599  -0.003
C  C57  1  0.76577095  0.66825532  0.72801272  1  1.558412  -0.001885  0.218585  0.607867  -0.003216  4.147538  -0.003
C  C58  1  0.26704721  0.44013797  0.26151369  1  -0.075208  0.014038  -0.013509  -0.072875  0.008313  3.935824  0.011
C  C59  1  0.73295335  0.55986179  0.73848577  1  -0.075242  0.014039  -0.013491  -0.07288  0.008313  3.935856  0.011
C  C60  1  0.39837044  0.51315241  0.30828209  1  -0.017793  0.001418  -0.089923  -0.10571  0.000472  4.013998  0.001
C  C61  1  0.60163011  0.48684735  0.69171737  1  -0.017754  0.001418  -0.089936  -0.105737  0.000473  4.014057  0.001
C  C62  1  0.43363634  0.61656777  0.30257914  1  0.04953  0.002325  -0.088649  -0.100544  0.001178  4.005279  0.001
C  C63  1  0.56636453  0.38343275  0.69742090  1  0.049448  0.002325  -0.088641  -0.100484  0.001178  4.005333  0.001
C  C64  1  0.33770277  0.64750367  0.24980257  1  -0.057104  0.012724  -0.013459  -0.0727  0.007597  3.94275  0.01
C  C65  1  0.66229810  0.35249685  0.75019747  1  -0.057081  0.012726  -0.013487  -0.072808  0.007598  3.942809  0.01
C  C66  1  0.20708559  0.57444657  0.19893144  1  0.010132  0.002238  -0.004297  0.053995  0.001193  3.960106  0.001
C  C67  1  0.79291529  0.42555395  0.80106859  1  0.010165  0.002238  -0.004298  0.054041  0.001193  3.960112  0.001
C  C68  1  0.11913692  0.60226756  0.14119863  1  -0.046294  0.000193  -0.099583  -0.141635  7.2e-05  3.998876  0.0
C  C69  1  0.88086541  0.39773296  0.85880145  1  -0.046372  0.000192  -0.099566  -0.141596  7.2e-05  3.998814  0.0
C  C70  1  0.00514563  0.52959703  0.09074032  1  -0.050771  0.000315  -0.098151  -0.089946  0.000166  4.043489  0.0
C  C71  1  0.99485670  0.47040349  0.90925976  1  -0.050685  0.000315  -0.098166  -0.089955  0.000166  4.043499  0.0
C  C72  1  0.97208367  0.42558751  0.09593210  1  -0.140062  -5.2e-05  -0.095108  -0.081913  -0.000106  4.036404  0.0
C  C73  1  0.02791834  0.57441225  0.90406789  1  -0.14013  -5.2e-05  -0.095112  -0.081945  -0.000106  4.036425  0.0
C  C74  1  0.05106537  0.39585085  0.15179758  1  0.006147  0.000617  -0.091645  -0.12675  0.000361  3.967263  0.0
C  C75  1  0.94893518  0.60414891  0.84820236  1  0.006163  0.000618  -0.091649  -0.126755  0.000362  3.967218  0.0
C  C76  1  0.17111287  0.46844277  0.20469473  1  -0.031016  0.001992  -0.003347  0.052608  0.001085  3.949635  0.001
C  C77  1  0.82888510  0.53155775  0.79530520  1  -0.031018  0.001991  -0.003346  0.052629  0.001085  3.949699  0.001
C  C78  1  0.37250127  0.75882225  0.24724381  1  1.557337  -0.002138  0.222554  0.612196  -0.003631  4.139273  -0.003
C  C79  1  0.62750331  0.24117675  0.75275669  1  1.557366  -0.002138  0.222652  0.612326  -0.003631  4.139193  -0.003
C  C80  1  0.33556335  0.90171817  0.11061508  1  1.562883  -0.003612  0.219255  0.600519  -0.005521  4.163528  -0.005
C  C81  1  0.66443607  0.09828235  0.88938539  1  1.56287  -0.003612  0.219319  0.600624  -0.005522  4.163408  -0.005
C  C82  1  0.31495035  0.87743724  0.03685034  1  -0.050972  0.015773  -0.007533  -0.061277  0.009237  3.926191  0.012
C  C83  1  0.68504811  0.12256100  0.96314938  1  -0.050932  0.015771  -0.00755  -0.061362  0.009236  3.92619  0.012
C  C84  1  0.22633093  0.93887777  0.00129913  1  0.01096  0.000615  -0.087875  -0.105863  -0.000125  4.000221  0.0
C  C85  1  0.77366463  0.06112046  0.99870097  1  0.010899  0.000615  -0.087951  -0.105918  -0.000125  4.000225  0.0
C  C86  1  0.23167223  0.93088527  0.93320697  1  -0.027492  0.004828  -0.082349  -0.080839  0.002734  3.980056  0.003
C  C87  1  0.76832074  0.06911372  0.06679360  1  -0.027575  0.004828  -0.082339  -0.080833  0.002734  3.980002  0.003
C  C88  1  0.32646640  0.86212818  0.89965388  1  -0.047323  0.008775  -0.012347  -0.082481  0.00518  3.913263  0.007
C  C89  1  0.67352980  0.13787158  0.10034639  1  -0.047409  0.008776  -0.012325  -0.082467  0.00518  3.913337  0.007
C  C90  1  0.40741009  0.79161613  0.93379084  1  -0.03068  0.00203  0.002645  0.061127  0.001057  3.927478  0.001
C  C91  1  0.59258756  0.20838363  0.06620997  1  -0.030556  0.00203  0.002617  0.061148  0.001057  3.927553  0.001
C  C92  1  0.48638949  0.71140875  0.90158482  1  -0.064437  0.000242  -0.091175  -0.129754  8e-06  3.958432  0.0
C  C93  1  0.51360994  0.28859177  0.09841468  1  -0.064472  0.000242  -0.091196  -0.129838  9e-06  3.95848  0.0
C  C94  1  0.55342119  0.64248856  0.93579910  1  -0.013432  0.00116  -0.09207  -0.075025  0.000615  4.026472  0.001
C  C95  1  0.44657791  0.35751120  0.06420128  1  -0.013428  0.00116  -0.092023  -0.074925  0.000615  4.026461  0.001
C  C96  1  0.54545206  0.65008276  0.00408470  1  -0.052404  -0.000471  -0.097162  -0.089835  -0.000597  4.041465  0.0
C  C97  1  0.45455011  0.34992080  0.99591568  1  -0.052512  -0.000471  -0.097201  -0.089845  -0.000597  4.041578  0.0
C  C98  1  0.47028618  0.72681623  0.03717295  1  -0.031398  0.001341  -0.098851  -0.141145  0.000789  3.996315  0.001
C  C99  1  0.52971244  0.27318582  0.96282764  1  -0.031246  0.00134  -0.098803  -0.14109  0.000789  3.996334  0.001
C  C100  1  0.39978681  0.79940180  0.00368448  1  -0.011792  0.001076  -0.003276  0.051907  0.000512  3.943851  0.001
C  C101  1  0.60020939  0.20059796  0.99631579  1  -0.011891  0.001076  -0.003247  0.051884  0.000512  3.943777  0.001
C  C102  1  0.35059012  0.87058343  0.82983832  1  1.537146  0.010848  0.225672  0.604822  0.008399  4.103689  0.008
C  C103  1  0.64940640  0.12941709  0.17016252  1  1.537349  0.010848  0.225728  0.604874  0.008399  4.103701  0.008
C  C104  1  0.93595515  0.94943196  0.34589352  1  1.532185  0.010162  0.223832  0.599012  0.007858  4.113501  0.007
C  C105  1  0.06404573  0.05056856  0.65410700  1  1.532187  0.010163  0.223893  0.599073  0.007858  4.113544  0.007
C  C106  1  0.85522358  0.90486588  0.40129789  1  -0.0135  0.006882  -0.011305  -0.076548  0.003903  3.933096  0.005
C  C107  1  0.14478068  0.09513235  0.59870203  1  -0.013494  0.006882  -0.011302  -0.076591  0.003903  3.933068  0.005
C  C108  1  0.76387009  0.96414873  0.44371691  1  -0.047158  0.008369  -0.081726  -0.084498  0.004622  3.974812  0.005
C  C109  1  0.23613627  0.03585103  0.55628420  1  -0.047199  0.008368  -0.081747  -0.084436  0.004622  3.974829  0.005
C  C110  1  0.71388858  0.93502362  0.50311397  1  -0.030105  -0.000209  -0.087669  -0.106037  -0.000842  3.99469  0.0
C  C111  1  0.28611600  0.06497538  0.49688652  1  -0.030311  -0.000209  -0.087658  -0.106086  -0.000842  3.994607  0.0
C  C112  1  0.75267338  0.84550844  0.51991714  1  -0.024186  0.019433  -0.007594  -0.059932  0.011326  3.923943  0.014
C  C113  1  0.24732976  0.15449056  0.48008282  1  -0.024178  0.019433  -0.007622  -0.059978  0.011326  3.92389  0.014
C  C114  1  0.82629001  0.77672295  0.47433472  1  -0.033425  0.000393  -0.004452  0.050562  -0.000163  3.959636  0.0
C  C115  1  0.17371457  0.22327605  0.52566432  1  -0.033364  0.000393  -0.004441  0.050534  -0.000163  3.959712  0.0
C  C116  1  0.84253293  0.67830718  0.48624994  1  -0.039448  0.001308  -0.09704  -0.138252  0.000745  4.000118  0.001
C  C117  1  0.15746489  0.32168954  0.51374719  1  -0.039643  0.001309  -0.097083  -0.138249  0.000745  4.000135  0.001
C  C118  1  0.90918285  0.61220976  0.44080305  1  -0.087971  -0.000696  -0.099299  -0.095213  -0.00085  4.059336  0.0
C  C119  1  0.09081417  0.38778848  0.55919372  1  -0.087968  -0.000696  -0.099301  -0.09526  -0.00085  4.059172  0.0
C  C120  1  0.96448905  0.64210649  0.38178606  1  -0.011097  0.001137  -0.092145  -0.073859  0.000604  4.014775  0.001
C  C121  1  0.03550910  0.35789099  0.61821067  1  -0.010526  0.001137  -0.092192  -0.073942  0.000604  4.014767  0.001
C  C122  1  0.95138521  0.73725175  0.36882471  1  -0.052673  -0.000308  -0.089346  -0.125018  -0.000489  3.953042  0.0
C  C123  1  0.04861454  0.26274954  0.63117392  1  -0.053134  -0.000308  -0.089336  -0.125045  -0.000489  3.953071  0.0
C  C124  1  0.88119898  0.80708763  0.41406346  1  0.020072  0.004034  0.00126  0.060839  0.002202  3.934139  0.003
C  C125  1  0.11880415  0.19291136  0.58593553  1  0.019788  0.004034  0.001282  0.060901  0.002202  3.934007  0.003
C  C126  1  0.74371665  0.83146781  0.58997452  1  1.579978  -0.002146  0.219478  0.607044  -0.003835  4.166415  -0.004
C  C127  1  0.25628567  0.16853271  0.41002605  1  1.57996  -0.002146  0.219436  0.607103  -0.003835  4.166448  -0.004
O  O128  1  0.19091073  0.92630585  0.13780152  1  -1.157666  0.066354  -0.315675  -0.577213  0.036625  2.319636  0.061
O  O129  1  0.80908934  0.07369619  0.86219864  1  -1.157638  0.066353  -0.31569  -0.577217  0.036625  2.319607  0.061
O  O130  1  0.73866905  0.21945800  0.32805898  1  -1.192395  0.073271  -0.518298  -0.721928  0.042413  2.288747  0.063
O  O131  1  0.26132860  0.78054176  0.67194134  1  -1.192402  0.073271  -0.51834  -0.721962  0.042413  2.288737  0.063
O  O132  1  0.55376112  0.80779905  0.25587498  1  -1.151676  0.079079  -0.31585  -0.574027  0.043123  2.33106  0.073
O  O133  1  0.44623862  0.19220223  0.74412654  1  -1.151654  0.079086  -0.315936  -0.574119  0.043126  2.330904  0.073
O  O134  1  0.87021722  0.87041898  0.19511463  1  -1.170729  0.070564  -0.523353  -0.7257  0.040775  2.287272  0.061
O  O135  1  0.12978285  0.12958307  0.80488553  1  -1.170682  0.070564  -0.523359  -0.725769  0.040776  2.287231  0.061
O  O136  1  0.45456823  0.00843938  0.28039557  1  -1.113996  0.251378  -0.555834  -0.856201  0.140253  2.485847  0.229
O  O137  1  0.54543120  0.99156114  0.71960393  1  -1.113987  0.251379  -0.55582  -0.85618  0.140253  2.485855  0.229
O  O138  1  0.15563541  0.08422072  0.24095251  1  -1.117409  0.24453  -0.555177  -0.857388  0.136334  2.46961  0.222
O  O139  1  0.84436224  0.91577904  0.75904734  1  -1.117416  0.244531  -0.55517  -0.857419  0.136334  2.469645  0.222
O  O140  1  0.38919248  0.29979354  0.28857750  1  -1.150388  0.060878  -0.314362  -0.566845  0.033114  2.340996  0.056
O  O141  1  0.61080662  0.70020622  0.71142287  1  -1.150382  0.060879  -0.314395  -0.566912  0.033115  2.341008  0.056
O  O142  1  0.59333761  0.84737979  0.61688405  1  -1.158163  0.072719  -0.31493  -0.569042  0.040248  2.334225  0.067
O  O143  1  0.40666327  0.15262073  0.38311646  1  -1.15818  0.072719  -0.314893  -0.56905  0.040247  2.334281  0.067
O  O144  1  0.49001893  0.83789221  0.80522741  1  -1.128925  0.08479  -0.286924  -0.508493  0.046261  2.372865  0.077
O  O145  1  0.50997614  0.16210832  0.19477194  1  -1.129003  0.084792  -0.286941  -0.508534  0.046262  2.372963  0.077
O  O146  1  0.89897160  0.81058309  0.61845373  1  -1.152758  0.071095  -0.316842  -0.579975  0.038558  2.397214  0.065
O  O147  1  0.10102896  0.18941667  0.38154718  1  -1.152722  0.071096  -0.316817  -0.580001  0.038559  2.39727  0.065
O  O148  1  0.50420244  0.89980347  0.14055662  1  -1.14513  0.071674  -0.308289  -0.568003  0.03917  2.458031  0.066
O  O149  1  0.49579489  0.10019553  0.85944313  1  -1.145144  0.071674  -0.308298  -0.568005  0.03917  2.457971  0.066
O  O150  1  0.09766852  0.93118221  0.32963687  1  -1.126613  0.084132  -0.28743  -0.508191  0.045981  2.347976  0.076
O  O151  1  0.90233026  0.06881679  0.67036245  1  -1.126607  0.08413  -0.287431  -0.508203  0.04598  2.347946  0.076
O  O152  1  0.21845659  0.79480093  0.23707937  1  -1.148707  0.060422  -0.308619  -0.564486  0.033105  2.396971  0.056
O  O153  1  0.78154284  0.20519959  0.76292013  1  -1.148755  0.060417  -0.308617  -0.564486  0.033102  2.397086  0.056
O  O154  1  0.05344892  0.28190837  0.26428511  1  -1.146346  0.07876  -0.318012  -0.577374  0.043052  2.342848  0.073
O  O155  1  0.94655050  0.71809215  0.73571487  1  -1.146343  0.07876  -0.318014  -0.577416  0.043051  2.342843  0.073
O  O156  1  0.83703458  0.00786492  0.31854743  1  -1.162949  0.085354  -0.326473  -0.616114  0.047502  2.54024  0.074
O  O157  1  0.16296629  0.99213560  0.68145308  1  -1.162951  0.085353  -0.326509  -0.616151  0.047502  2.540323  0.074
O  O158  1  0.23064329  0.91636759  0.79917096  1  -1.167952  0.080254  -0.328636  -0.621901  0.044485  2.524266  0.068
O  O159  1  0.76935178  0.08363293  0.20083032  1  -1.167934  0.080254  -0.328676  -0.621913  0.044485  2.52423  0.068
