# generated using pymatgen
data_CuSiH12C24Br4(N2F3)2
_symmetry_space_group_name_H-M   'P 1'
_cell_length_a   8.02861710
_cell_length_b   13.74404613
_cell_length_c   13.74377960
_cell_angle_alpha   89.84263425
_cell_angle_beta   91.24708036
_cell_angle_gamma   91.23893060
_symmetry_Int_Tables_number   1
_chemical_formula_structural   CuSiH12C24Br4(N2F3)2
_chemical_formula_sum   'Cu1 Si1 H12 C24 Br4 N4 F6'
_cell_volume   1515.84915528
_cell_formula_units_Z   1
loop_
 _symmetry_equiv_pos_site_id
 _symmetry_equiv_pos_as_xyz
  1  'x, y, z'
loop_
 _atom_site_type_symbol
 _atom_site_label
 _atom_site_symmetry_multiplicity
 _atom_site_fract_x
 _atom_site_fract_y
 _atom_site_fract_z
 _atom_site_occupancy
 _atom_site_pbe_bader_charge
 _atom_site_pbe_bader_spin_density
 _atom_site_pbe_cm5_charge
 _atom_site_pbe_ddec_charge
 _atom_site_pbe_ddec_spin_density
 _atom_site_pbe_ddec_sum_bond_order
 _atom_site_pbe_magmom
Cu  Cu0  1  0.50004607  0.49999378  0.50002368  1  1.080647  0.565665  0.779618  0.695869  0.728341  2.272166  0.564
Si  Si1  1  0.00000345  0.49998969  0.50001186  1  3.184403  -0.000187  0.242064  1.721097  -0.000335  3.948937  0.0
H  H2  1  0.24503089  0.65384951  0.49980573  1  0.188509  0.002175  0.12237  0.114737  0.001015  1.044176  0.002
H  H3  1  0.23762608  0.83453202  0.49977747  1  0.105129  0.001446  0.11  0.124906  0.000748  1.005039  0.001
H  H4  1  0.76486350  0.65768583  0.49999454  1  0.214352  0.002487  0.122906  0.125283  0.001189  1.035505  0.002
H  H5  1  0.23517449  0.34232547  0.49999787  1  0.214715  0.002486  0.122842  0.125247  0.001189  1.03568  0.002
H  H6  1  0.75501075  0.34612466  0.50021876  1  0.188465  0.002176  0.122291  0.114716  0.001015  1.044231  0.002
H  H7  1  0.76237153  0.16545129  0.50028166  1  0.105342  0.001445  0.109987  0.124745  0.000747  1.005465  0.001
H  H8  1  0.24499511  0.49988458  0.65385625  1  0.188145  0.00218  0.12241  0.114723  0.001017  1.044173  0.002
H  H9  1  0.23766930  0.49977647  0.83453906  1  0.10535  0.001445  0.109994  0.124877  0.000747  1.00525  0.001
H  H10  1  0.76483092  0.50003068  0.65768234  1  0.214561  0.002482  0.12286  0.125319  0.001187  1.035713  0.002
H  H11  1  0.23517876  0.50001028  0.34229893  1  0.214468  0.002485  0.122883  0.125232  0.001188  1.03573  0.002
H  H12  1  0.75500673  0.50002676  0.34616735  1  0.187633  0.002178  0.122492  0.114725  0.001016  1.044188  0.002
H  H13  1  0.76239051  0.50010322  0.16548495  1  0.104788  0.001446  0.110028  0.124853  0.000747  1.005193  0.001
C  C14  1  0.35989375  0.69743290  0.49984760  1  0.468753  -0.000871  0.052061  0.090202  -0.001223  3.894701  -0.001
C  C15  1  0.35670517  0.79813298  0.49987186  1  -0.006073  0.006052  -0.064839  -0.132231  0.004077  3.874592  0.005
C  C16  1  0.50665702  0.85331414  0.50001073  1  0.099616  -0.003287  0.013655  0.118839  -0.00364  4.098043  -0.002
C  C17  1  0.65594097  0.80072235  0.50016189  1  -0.043407  0.006237  -0.000556  0.033611  0.00398  3.890988  0.005
C  C18  1  0.65087884  0.69937825  0.50001640  1  0.530968  -0.001082  0.048697  0.042381  -0.001279  3.886457  -0.001
C  C19  1  0.50433562  0.95579076  0.50001267  1  -0.048391  -0.001141  -0.029608  -0.075722  -0.001242  4.097768  0.0
C  C20  1  0.49566019  0.04420351  0.50000569  1  -0.283267  -0.001191  -0.029518  -0.075293  -0.001243  4.097732  0.0
C  C21  1  0.49335400  0.14667947  0.50002301  1  0.100275  -0.003286  0.013578  0.118466  -0.00364  4.098548  -0.002
C  C22  1  0.34407240  0.19927638  0.49985875  1  -0.043414  0.006237  -0.000595  0.033778  0.00398  3.891019  0.005
C  C23  1  0.34915302  0.30062061  0.49999345  1  0.530818  -0.00108  0.0486  0.041887  -0.001277  3.88661  -0.001
C  C24  1  0.64013205  0.30255353  0.50018406  1  0.469588  -0.000871  0.051986  0.089855  -0.001224  3.89469  -0.001
C  C25  1  0.64331706  0.20184686  0.50017507  1  -0.007464  0.006054  -0.064652  -0.131765  0.004078  3.875022  0.005
C  C26  1  0.35989344  0.49988701  0.69742738  1  0.469567  -0.000871  0.052178  0.090432  -0.001223  3.894293  -0.001
C  C27  1  0.35670920  0.49987436  0.79814326  1  -0.006181  0.006061  -0.064834  -0.132285  0.004083  3.87429  0.005
C  C28  1  0.50668336  0.49998898  0.85331812  1  0.099557  -0.003287  0.01371  0.118871  -0.003641  4.098529  -0.002
C  C29  1  0.65595629  0.50014982  0.80073577  1  -0.04354  0.006236  -0.000642  0.03357  0.003979  3.890827  0.005
C  C30  1  0.65088340  0.50003280  0.69937840  1  0.530949  -0.001085  0.048743  0.042223  -0.001281  3.88557  -0.001
C  C31  1  0.50438286  0.49997812  0.95579395  1  -0.048409  -0.00114  -0.029648  -0.075495  -0.001241  4.098154  0.0
C  C32  1  0.49569141  0.49996646  0.04420605  1  -0.283227  -0.001191  -0.029468  -0.075632  -0.001243  4.097879  0.0
C  C33  1  0.49337120  0.49996711  0.14668319  1  0.099441  -0.003285  0.013697  0.11896  -0.003639  4.097914  -0.002
C  C34  1  0.34409018  0.49984989  0.19925525  1  -0.043532  0.00624  -0.000611  0.033627  0.003981  3.890653  0.005
C  C35  1  0.34914845  0.49998064  0.30061688  1  0.531606  -0.001083  0.048795  0.042242  -0.001277  3.885701  -0.001
C  C36  1  0.64013497  0.50005435  0.30258834  1  0.469627  -0.000873  0.051936  0.090309  -0.001225  3.894642  -0.001
C  C37  1  0.64332763  0.50005032  0.20187326  1  -0.00541  0.006054  -0.064884  -0.132278  0.004079  3.874203  0.005
Br  Br38  1  0.86502849  0.86676956  0.50065137  1  -0.022578  0.004071  0.052641  -0.03452  0.002951  1.416263  0.003
Br  Br39  1  0.13497852  0.13323717  0.49935467  1  -0.022331  0.00407  0.052694  -0.034441  0.002951  1.416211  0.003
Br  Br40  1  0.86505279  0.50062121  0.86678945  1  -0.022592  0.00407  0.052697  -0.034461  0.00295  1.416283  0.003
Br  Br41  1  0.13500295  0.49941641  0.13319357  1  -0.022524  0.004072  0.052669  -0.034478  0.002951  1.416328  0.003
N  N42  1  0.50478870  0.64922383  0.49988736  1  -1.186753  0.093192  -0.3283  -0.19923  0.062129  3.568232  0.082
N  N43  1  0.49525050  0.35077145  0.50011963  1  -1.187374  0.093186  -0.328082  -0.198534  0.062127  3.567852  0.082
N  N44  1  0.50475645  0.49992559  0.64922317  1  -1.187407  0.093179  -0.328431  -0.19916  0.06212  3.568239  0.082
N  N45  1  0.49525264  0.50006004  0.35078146  1  -1.187574  0.093193  -0.328346  -0.19917  0.06213  3.568259  0.082
F  F46  1  0.21674969  0.49861362  0.49857631  1  -0.834392  -0.00168  -0.204594  -0.531335  -0.001796  1.340989  -0.001
F  F47  1  0.78324968  0.50135882  0.50145447  1  -0.834423  -0.001682  -0.204694  -0.53132  -0.001795  1.341264  -0.001
F  F48  1  0.99990705  0.58799193  0.41209181  1  -0.830704  0.000217  -0.25229  -0.546956  0.000193  1.078788  0.0
F  F49  1  0.00008989  0.41198705  0.58793603  1  -0.830361  0.000217  -0.25241  -0.547101  0.000193  1.078715  0.0
F  F50  1  0.00898579  0.58770423  0.58782029  1  -0.832976  0.000219  -0.252054  -0.547097  0.000193  1.079859  0.0
F  F51  1  0.99100988  0.41227984  0.41220099  1  -0.832971  0.000219  -0.252031  -0.547077  0.000193  1.079893  0.0
