# generated using pymatgen
data_ZnPH7C3NO3
_symmetry_space_group_name_H-M   'P 1'
_cell_length_a   10.15852097
_cell_length_b   10.15855579
_cell_length_c   13.26035644
_cell_angle_alpha   89.98229035
_cell_angle_beta   90.01767219
_cell_angle_gamma   120.01997938
_symmetry_Int_Tables_number   1
_chemical_formula_structural   ZnPH7C3NO3
_chemical_formula_sum   'Zn6 P6 H42 C18 N6 O18'
_cell_volume   1184.84293687
_cell_formula_units_Z   6
loop_
 _symmetry_equiv_pos_site_id
 _symmetry_equiv_pos_as_xyz
  1  'x, y, z'
loop_
 _atom_site_type_symbol
 _atom_site_label
 _atom_site_symmetry_multiplicity
 _atom_site_fract_x
 _atom_site_fract_y
 _atom_site_fract_z
 _atom_site_occupancy
 _atom_site_hle17_bader_spin_density
 _atom_site_hle17_ddec_charge
 _atom_site_hle17_ddec_spin_density
 _atom_site_hle17_ddec_sum_bond_order
 _atom_site_hle17_magmom
 _atom_site_hse06_10hf_bader_spin_density
 _atom_site_hse06_10hf_ddec_charge
 _atom_site_hse06_10hf_ddec_spin_density
 _atom_site_hse06_10hf_ddec_sum_bond_order
 _atom_site_hse06_10hf_magmom
 _atom_site_hse06_bader_spin_density
 _atom_site_hse06_ddec_charge
 _atom_site_hse06_ddec_spin_density
 _atom_site_hse06_ddec_sum_bond_order
 _atom_site_hse06_magmom
 _atom_site_pbe_bader_spin_density
 _atom_site_pbe_cm5_charge
 _atom_site_pbe_ddec_charge
 _atom_site_pbe_ddec_spin_density
 _atom_site_pbe_ddec_sum_bond_order
 _atom_site_pbe_magmom
Zn  Zn0  1  0.22839829  0.58975620  0.40914268  1  0  1.139549  0  1.823658  0  0  0.964318  0  2.295517  0  0  1.007038  0  2.23838  0  0  0.717316  0.934199  0  2.33495  0
Zn  Zn1  1  0.41027863  0.63861333  0.07574863  1  0  1.13896  0  1.82428  0  0  0.963448  0  2.296145  0  0  1.006175  0  2.239079  0  0  0.716717  0.933341  0  2.335543  0
Zn  Zn2  1  0.36146273  0.77167032  0.74254500  1  0  1.138757  0  1.823839  0  0  0.96331  0  2.295761  0  0  1.006079  0  2.238636  0  0  0.716659  0.93317  0  2.335179  0
Zn  Zn3  1  0.58975546  0.22839939  0.59085665  1  0  1.139598  0  1.823615  0  0  0.964374  0  2.295515  0  0  1.007101  0  2.238369  0  0  0.71735  0.934256  0  2.334947  0
Zn  Zn4  1  0.63860931  0.41027365  0.92425140  1  0  1.138939  0  1.824314  0  0  0.963402  0  2.296208  0  0  1.006133  0  2.239132  0  0  0.716701  0.933292  0  2.335607  0
Zn  Zn5  1  0.77167448  0.36146574  0.25745500  1  0  1.138759  0  1.823891  0  0  0.963304  0  2.295826  0  0  1.006079  0  2.238696  0  0  0.716651  0.933168  0  2.335244  0
P  P6  1  0.10980495  0.46839435  0.17918390  1  0  1.425387  0  5.031221  0  0  1.243821  0  5.534078  0  0  1.294523  0  5.496926  0  0  0.270895  1.207908  0  5.560281  0
P  P7  1  0.53175751  0.64149279  0.84579686  1  0  1.424681  0  5.03277  0  0  1.243015  0  5.535588  0  0  1.293703  0  5.498501  0  0  0.271048  1.207101  0  5.561753  0
P  P8  1  0.35855588  0.89009499  0.51259880  1  0  1.423936  0  5.03248  0  0  1.241349  0  5.536858  0  0  1.291827  0  5.500277  0  0  0.270487  1.205584  0  5.562702  0
P  P9  1  0.46839498  0.10980229  0.82081172  1  0  1.425229  0  5.031268  0  0  1.243626  0  5.534119  0  0  1.294324  0  5.496972  0  0  0.270832  1.207717  0  5.560322  0
P  P10  1  0.64149405  0.53176548  0.15420539  1  0  1.424761  0  5.032785  0  0  1.243117  0  5.53561  0  0  1.293808  0  5.498516  0  0  0.271069  1.207205  0  5.561774  0
P  P11  1  0.89010188  0.35856250  0.48740193  1  0  1.423914  0  5.032557  0  0  1.241261  0  5.537058  0  0  1.291745  0  5.500471  0  0  0.27048  1.205509  0  5.562883  0
H  H12  1  0.07308432  0.31401049  0.18524052  1  0  -0.181183  0  0.886071  0  0  -0.151552  0  0.97281  0  0  -0.15447  0  0.966187  0  0  0.066323  -0.14968  0  0.977388  0
H  H13  1  0.68609883  0.75936547  0.85177304  1  0  -0.181237  0  0.886181  0  0  -0.151487  0  0.972816  0  0  -0.154431  0  0.966225  0  0  0.066251  -0.149601  0  0.977376  0
H  H14  1  0.24076184  0.92659044  0.51860019  1  0  -0.181284  0  0.886422  0  0  -0.15117  0  0.97298  0  0  -0.154055  0  0.96639  0  0  0.066348  -0.14933  0  0.977554  0
H  H15  1  0.31401414  0.07308966  0.81476117  1  0  -0.181174  0  0.886116  0  0  -0.151551  0  0.972863  0  0  -0.154464  0  0.966237  0  0  0.066316  -0.149679  0  0.977443  0
H  H16  1  0.75937400  0.68610322  0.14822765  1  0  -0.181201  0  0.886181  0  0  -0.151454  0  0.972818  0  0  -0.154399  0  0.966227  0  0  0.066259  -0.149569  0  0.977378  0
H  H17  1  0.92660441  0.24077230  0.48140282  1  0  -0.181336  0  0.886471  0  0  -0.151192  0  0.973011  0  0  -0.154082  0  0.966425  0  0  0.066339  -0.149353  0  0.977582  0
H  H18  1  0.52167685  0.68258737  0.53060476  1  0  0.094587  0  0.922287  0  0  0.109575  0  0.979461  0  0  0.110842  0  0.978899  0  0  0.114038  0.108485  0  0.980226  0
H  H19  1  0.31733691  0.83894631  0.19711750  1  0  0.094706  0  0.923161  0  0  0.109327  0  0.980512  0  0  0.110565  0  0.979955  0  0  0.113873  0.108273  0  0.981231  0
H  H20  1  0.16091136  0.47846437  0.86423741  1  0  0.094528  0  0.923246  0  0  0.108981  0  0.980816  0  0  0.11025  0  0.980253  0  0  0.113864  0.107911  0  0.981571  0
H  H21  1  0.68258906  0.52167041  0.46939371  1  0  0.094604  0  0.922344  0  0  0.109595  0  0.979527  0  0  0.110854  0  0.978961  0  0  0.114064  0.108506  0  0.98029  0
H  H22  1  0.83894606  0.31733431  0.80288325  1  0  0.094727  0  0.923129  0  0  0.109334  0  0.980482  0  0  0.110565  0  0.979935  0  0  0.113881  0.108279  0  0.981201  0
H  H23  1  0.47846480  0.16091177  0.13576422  1  0  0.094527  0  0.923262  0  0  0.109015  0  0.9808  0  0  0.110284  0  0.980237  0  0  0.113877  0.107944  0  0.981557  0
H  H24  1  0.55723367  0.64396853  0.40491999  1  0  0.081566  0  0.918054  0  0  0.100494  0  0.971661  0  0  0.100852  0  0.972301  0  0  0.112387  0.100045  0  0.971584  0
H  H25  1  0.35616027  0.91317925  0.07141461  1  0  0.082009  0  0.91794  0  0  0.100226  0  0.972271  0  0  0.100525  0  0.972986  0  0  0.112451  0.099819  0  0.972159  0
H  H26  1  0.08670459  0.44266342  0.73852213  1  0  0.082225  0  0.917533  0  0  0.100466  0  0.971681  0  0  0.100767  0  0.972418  0  0  0.112595  0.100074  0  0.971529  0
H  H27  1  0.64397027  0.55722842  0.59507849  1  0  0.08159  0  0.918019  0  0  0.10051  0  0.97164  0  0  0.100866  0  0.972276  0  0  0.112384  0.100061  0  0.971562  0
H  H28  1  0.91317743  0.35615926  0.92858536  1  0  0.082  0  0.917978  0  0  0.100227  0  0.972274  0  0  0.100527  0  0.972989  0  0  0.112445  0.099818  0  0.972163  0
H  H29  1  0.44266333  0.08670359  0.26147878  1  0  0.082252  0  0.917507  0  0  0.100486  0  0.971679  0  0  0.100788  0  0.972416  0  0  0.11261  0.100096  0  0.971525  0
H  H30  1  0.15967292  0.33426078  0.55486203  1  0  0.063938  0  0.946939  0  0  0.07816  0  1.012133  0  0  0.0782  0  1.012224  0  0  0.10204  0.078148  0  1.012005  0
H  H31  1  0.66549085  0.82528917  0.22179038  1  0  0.063888  0  0.946974  0  0  0.077723  0  1.012059  0  0  0.077771  0  1.012168  0  0  0.101834  0.077705  0  1.011918  0
H  H32  1  0.17477159  0.84038857  0.88816505  1  0  0.063466  0  0.947646  0  0  0.077294  0  1.012966  0  0  0.077314  0  1.013093  0  0  0.101814  0.077305  0  1.012837  0
H  H33  1  0.33425350  0.15967164  0.44514115  1  0  0.063921  0  0.947  0  0  0.07817  0  1.012138  0  0  0.078209  0  1.01223  0  0  0.102048  0.078159  0  1.012008  0
H  H34  1  0.82528694  0.66548779  0.77820953  1  0  0.063816  0  0.946953  0  0  0.077645  0  1.012038  0  0  0.077692  0  1.012147  0  0  0.101785  0.077631  0  1.011899  0
H  H35  1  0.84039007  0.17477335  0.11183574  1  0  0.063459  0  0.947641  0  0  0.077277  0  1.012964  0  0  0.077301  0  1.013094  0  0  0.101808  0.077286  0  1.012832  0
H  H36  1  0.29744658  0.50329106  0.61661082  1  0  0.095871  0  0.949615  0  0  0.107394  0  1.015763  0  0  0.108805  0  1.015282  0  0  0.110736  0.106099  0  1.016729  0
H  H37  1  0.49640515  0.79406261  0.28333747  1  0  0.096631  0  0.948912  0  0  0.107161  0  1.015474  0  0  0.108566  0  1.015035  0  0  0.110767  0.105868  0  1.016429  0
H  H38  1  0.20586697  0.70258276  0.94997579  1  0  0.095525  0  0.948939  0  0  0.106647  0  1.015341  0  0  0.108159  0  1.014698  0  0  0.11048  0.105326  0  1.016369  0
H  H39  1  0.50328320  0.29743832  0.38338927  1  0  0.09586  0  0.94949  0  0  0.107383  0  1.015619  0  0  0.108796  0  1.015133  0  0  0.110722  0.106089  0  1.016586  0
H  H40  1  0.79406223  0.49640325  0.71666174  1  0  0.09664  0  0.948859  0  0  0.107155  0  1.015424  0  0  0.10856  0  1.014984  0  0  0.110775  0.105865  0  1.01638  0
H  H41  1  0.70258460  0.20586931  0.05002503  1  0  0.095529  0  0.948925  0  0  0.106633  0  1.015324  0  0  0.108147  0  1.014686  0  0  0.110478  0.105312  0  1.01635  0
H  H42  1  0.37504938  0.41656887  0.32062821  1  0  0.104555  0  0.934504  0  0  0.115818  0  0.99632  0  0  0.117214  0  0.99636  0  0  0.112318  0.114719  0  0.996629  0
H  H43  1  0.58361847  0.95851769  0.98732305  1  0  0.104135  0  0.934825  0  0  0.115695  0  0.996475  0  0  0.117154  0  0.996428  0  0  0.112408  0.114532  0  0.996851  0
H  H44  1  0.04151075  0.62482706  0.65391933  1  0  0.104174  0  0.934288  0  0  0.115949  0  0.995808  0  0  0.117364  0  0.995816  0  0  0.112452  0.114815  0  0.99619  0
H  H45  1  0.41657199  0.37505214  0.67937188  1  0  0.104494  0  0.934556  0  0  0.115809  0  0.996315  0  0  0.117204  0  0.996355  0  0  0.112321  0.114709  0  0.996625  0
H  H46  1  0.95851495  0.58361478  0.01267685  1  0  0.104182  0  0.934835  0  0  0.115735  0  0.996463  0  0  0.117197  0  0.996418  0  0  0.112397  0.11457  0  0.996837  0
H  H47  1  0.62482587  0.04150833  0.34608154  1  0  0.104245  0  0.934266  0  0  0.115988  0  0.995793  0  0  0.117401  0  0.995804  0  0  0.112472  0.114851  0  0.996174  0
H  H48  1  0.20663658  0.28349078  0.38459071  1  0  0.06264  0  0.921495  0  0  0.079702  0  0.979668  0  0  0.079748  0  0.979935  0  0  0.10312  0.079909  0  0.97903  0
H  H49  1  0.71662379  0.92321283  0.05140258  1  0  0.062108  0  0.920396  0  0  0.079889  0  0.97817  0  0  0.079929  0  0.978422  0  0  0.102979  0.080075  0  0.977554  0
H  H50  1  0.07683602  0.79322202  0.71785299  1  0  0.06222  0  0.921105  0  0  0.079564  0  0.979231  0  0  0.079615  0  0.979489  0  0  0.103045  0.079774  0  0.978589  0
H  H51  1  0.28348992  0.20664171  0.61541096  1  0  0.062629  0  0.9215  0  0  0.079708  0  0.979663  0  0  0.079755  0  0.979927  0  0  0.103118  0.079916  0  0.979024  0
H  H52  1  0.92320825  0.71661917  0.94859729  1  0  0.062154  0  0.920426  0  0  0.079875  0  0.978229  0  0  0.079916  0  0.978486  0  0  0.102965  0.080063  0  0.977609  0
H  H53  1  0.79322395  0.07683741  0.28214859  1  0  0.062223  0  0.921141  0  0  0.079574  0  0.979239  0  0  0.079624  0  0.979498  0  0  0.103044  0.079777  0  0.978596  0
C  C54  1  0.51147631  0.59365742  0.47896304  1  0  -0.027797  0  3.550023  0  0  -0.080927  0  3.798756  0  0  -0.077979  0  3.81057  0  0  -0.066079  -0.082607  0  3.790212  0
C  C55  1  0.40637094  0.91773324  0.14550544  1  0  -0.027886  0  3.552266  0  0  -0.080001  0  3.800533  0  0  -0.076955  0  3.812322  0  0  -0.065776  -0.08176  0  3.792093  0
C  C56  1  0.08215561  0.48853964  0.81250895  1  0  -0.029202  0  3.551937  0  0  -0.080993  0  3.80005  0  0  -0.078052  0  3.811921  0  0  -0.066195  -0.082722  0  3.791573  0
C  C57  1  0.59365683  0.51147349  0.52103470  1  0  -0.02787  0  3.550157  0  0  -0.081005  0  3.798966  0  0  -0.078028  0  3.810748  0  0  -0.066116  -0.082686  0  3.790421  0
C  C58  1  0.91773367  0.40636750  0.85449528  1  0  -0.027897  0  3.55223  0  0  -0.079985  0  3.80041  0  0  -0.076934  0  3.812199  0  0  -0.065779  -0.081745  0  3.791968  0
C  C59  1  0.48854082  0.08215579  0.18749270  1  0  -0.029228  0  3.551934  0  0  -0.081051  0  3.800117  0  0  -0.078113  0  3.811992  0  0  -0.066201  -0.082782  0  3.791641  0
C  C60  1  0.28182129  0.41223917  0.56525528  1  0  -0.039986  0  3.587095  0  0  -0.094048  0  3.836676  0  0  -0.091268  0  3.849481  0  0  -0.075068  -0.095746  0  3.827881  0
C  C61  1  0.58758905  0.86952790  0.23203976  1  0  -0.041696  0  3.586132  0  0  -0.093521  0  3.834544  0  0  -0.090805  0  3.847476  0  0  -0.075164  -0.09518  0  3.825661  0
C  C62  1  0.13047773  0.71823053  0.89856305  1  0  -0.039255  0  3.585503  0  0  -0.091847  0  3.834416  0  0  -0.089166  0  3.847349  0  0  -0.074411  -0.093572  0  3.825661  0
C  C63  1  0.41223312  0.28181850  0.43474559  1  0  -0.040057  0  3.58726  0  0  -0.094032  0  3.836746  0  0  -0.091252  0  3.849559  0  0  -0.075113  -0.095732  0  3.82795  0
C  C64  1  0.86952606  0.58758645  0.76795941  1  0  -0.041583  0  3.585949  0  0  -0.093352  0  3.83432  0  0  -0.090635  0  3.847251  0  0  -0.075106  -0.095024  0  3.825462  0
C  C65  1  0.71823060  0.13047844  0.10143703  1  0  -0.039319  0  3.585451  0  0  -0.091844  0  3.834347  0  0  -0.089184  0  3.847295  0  0  -0.074421  -0.093569  0  3.825591  0
C  C66  1  0.32898394  0.36296188  0.39385187  1  0  -0.035863  0  3.578158  0  0  -0.086613  0  3.824934  0  0  -0.084064  0  3.837953  0  0  -0.072305  -0.088282  0  3.815724  0
C  C67  1  0.63715945  0.96605412  0.06058259  1  0  -0.034993  0  3.575111  0  0  -0.086871  0  3.822614  0  0  -0.084318  0  3.83555  0  0  -0.0724  -0.088442  0  3.813356  0
C  C68  1  0.03395448  0.67087859  0.72712451  1  0  -0.034457  0  3.574668  0  0  -0.086118  0  3.821526  0  0  -0.083575  0  3.834581  0  0  -0.07226  -0.087771  0  3.812257  0
C  C69  1  0.36296084  0.32898503  0.60614900  1  0  -0.035862  0  3.577983  0  0  -0.086614  0  3.824826  0  0  -0.084057  0  3.837833  0  0  -0.072363  -0.088282  0  3.815614  0
C  C70  1  0.96604977  0.63715742  0.93941730  1  0  -0.035178  0  3.575259  0  0  -0.08695  0  3.822675  0  0  -0.084416  0  3.835629  0  0  -0.072382  -0.088523  0  3.813417  0
C  C71  1  0.67088007  0.03395579  0.27287560  1  0  -0.034561  0  3.574735  0  0  -0.086154  0  3.821555  0  0  -0.08361  0  3.834608  0  0  -0.072279  -0.087793  0  3.812259  0
N  N72  1  0.34603878  0.48346205  0.46561609  1  0  -0.240082  0  3.241248  0  0  -0.139678  0  3.494699  0  0  -0.158007  0  3.51239  0  0  -0.335777  -0.12666  0  3.481555  0
N  N73  1  0.51655150  0.86252659  0.13231022  1  0  -0.23955  0  3.240582  0  0  -0.139921  0  3.494129  0  0  -0.158245  0  3.511821  0  0  -0.335576  -0.126906  0  3.480952  0
N  N74  1  0.13744224  0.65394355  0.79898056  1  0  -0.239609  0  3.239691  0  0  -0.140196  0  3.494054  0  0  -0.158503  0  3.511761  0  0  -0.336129  -0.127154  0  3.480918  0
N  N75  1  0.48345878  0.34603505  0.53438474  1  0  -0.23999  0  3.241303  0  0  -0.139734  0  3.494921  0  0  -0.158069  0  3.512604  0  0  -0.335791  -0.126716  0  3.481773  0
N  N76  1  0.86252226  0.51654772  0.86768973  1  0  -0.239554  0  3.240505  0  0  -0.139958  0  3.493989  0  0  -0.158277  0  3.511676  0  0  -0.335601  -0.126942  0  3.480819  0
N  N77  1  0.65394520  0.13744465  0.20102029  1  0  -0.239572  0  3.239677  0  0  -0.140175  0  3.49404  0  0  -0.158474  0  3.511747  0  0  -0.336143  -0.12714  0  3.4809  0
O  O78  1  0.22078689  0.55162500  0.26546158  1  0  -0.864356  0  2.114315  0  0  -0.766742  0  2.430937  0  0  -0.794838  0  2.404246  0  0  -0.387129  -0.747386  0  2.449798  0
O  O79  1  0.44847138  0.66903708  0.93209078  1  0  -0.864076  0  2.113948  0  0  -0.766457  0  2.430834  0  0  -0.794497  0  2.403998  0  0  -0.387317  -0.747142  0  2.449806  0
O  O80  1  0.33091693  0.77906800  0.59883402  1  0  -0.864015  0  2.114267  0  0  -0.765804  0  2.430843  0  0  -0.793857  0  2.404109  0  0  -0.386879  -0.746511  0  2.449757  0
O  O81  1  0.55162575  0.22079982  0.73453550  1  0  -0.864304  0  2.114196  0  0  -0.766649  0  2.430794  0  0  -0.794748  0  2.404108  0  0  -0.387112  -0.747292  0  2.449651  0
O  O82  1  0.66903479  0.44847593  0.06790772  1  0  -0.864051  0  2.113728  0  0  -0.766469  0  2.430657  0  0  -0.794513  0  2.40382  0  0  -0.387316  -0.747155  0  2.449625  0
O  O83  1  0.77907104  0.33091319  0.40116373  1  0  -0.864007  0  2.11413  0  0  -0.765777  0  2.430717  0  0  -0.793833  0  2.403984  0  0  -0.386921  -0.746492  0  2.449634  0
O  O84  1  0.95996689  0.46964442  0.18317976  1  0  -0.848721  0  2.081123  0  0  -0.749124  0  2.382516  0  0  -0.776897  0  2.355918  0  0  -0.387288  -0.729167  0  2.401226  0
O  O85  1  0.53077096  0.49054006  0.84980604  1  0  -0.848882  0  2.082462  0  0  -0.748876  0  2.383638  0  0  -0.776595  0  2.356935  0  0  -0.387504  -0.728948  0  2.402397  0
O  O86  1  0.50960549  0.04003244  0.51673485  1  0  -0.8485  0  2.082227  0  0  -0.748867  0  2.384084  0  0  -0.776576  0  2.357474  0  0  -0.387486  -0.728923  0  2.402749  0
O  O87  1  0.46964546  0.95997179  0.81680810  1  0  -0.848627  0  2.081313  0  0  -0.749005  0  2.382715  0  0  -0.776777  0  2.356123  0  0  -0.387212  -0.729046  0  2.401424  0
O  O88  1  0.49055276  0.53078617  0.15019927  1  0  -0.848857  0  2.082601  0  0  -0.748912  0  2.383811  0  0  -0.776628  0  2.357105  0  0  -0.387491  -0.728978  0  2.402557  0
O  O89  1  0.04002818  0.50961050  0.48326606  1  0  -0.848449  0  2.082438  0  0  -0.748795  0  2.384294  0  0  -0.776504  0  2.357687  0  0  -0.38745  -0.728851  0  2.402956  0
O  O90  1  0.18822918  0.52897712  0.07678601  1  0  -0.829911  0  2.011202  0  0  -0.729978  0  2.300671  0  0  -0.759145  0  2.277879  0  0  -0.384957  -0.709366  0  2.316463  0
O  O91  1  0.47102085  0.65923766  0.74342844  1  0  -0.828522  0  2.01156  0  0  -0.729115  0  2.301544  0  0  -0.758239  0  2.278743  0  0  -0.384519  -0.708477  0  2.317284  0
O  O92  1  0.34081559  0.81178093  0.41018558  1  0  -0.828895  0  2.010634  0  0  -0.729398  0  2.30074  0  0  -0.758427  0  2.277899  0  0  -0.384949  -0.708827  0  2.316522  0
O  O93  1  0.52898609  0.18822773  0.92321259  1  0  -0.829916  0  2.011076  0  0  -0.729973  0  2.300555  0  0  -0.759138  0  2.277763  0  0  -0.384989  -0.709359  0  2.316342  0
O  O94  1  0.65924162  0.47102254  0.25657232  1  0  -0.828638  0  2.011611  0  0  -0.729193  0  2.301567  0  0  -0.758321  0  2.278767  0  0  -0.384533  -0.708557  0  2.317308  0
O  O95  1  0.81178208  0.34081555  0.58981366  1  0  -0.828902  0  2.010599  0  0  -0.729404  0  2.300711  0  0  -0.758439  0  2.277878  0  0  -0.384949  -0.708839  0  2.316491  0
