# generated using pymatgen
data_Zr6H29C50ClO42
_symmetry_space_group_name_H-M   'P 1'
_cell_length_a   14.79336968
_cell_length_b   14.78963848
_cell_length_c   14.81747703
_cell_angle_alpha   60.06878337
_cell_angle_beta   59.91065156
_cell_angle_gamma   60.10865022
_symmetry_Int_Tables_number   1
_chemical_formula_structural   Zr6H29C50ClO42
_chemical_formula_sum   'Zr6 H29 C50 Cl1 O42'
_cell_volume   2293.87632399
_cell_formula_units_Z   1
loop_
 _symmetry_equiv_pos_site_id
 _symmetry_equiv_pos_as_xyz
  1  'x, y, z'
loop_
 _atom_site_type_symbol
 _atom_site_label
 _atom_site_symmetry_multiplicity
 _atom_site_fract_x
 _atom_site_fract_y
 _atom_site_fract_z
 _atom_site_occupancy
 _atom_site_pbe_bader_charge
 _atom_site_pbe_bader_spin_density
 _atom_site_pbe_cm5_charge
 _atom_site_pbe_ddec_charge
 _atom_site_pbe_ddec_spin_density
 _atom_site_pbe_ddec_sum_bond_order
 _atom_site_pbe_magmom
Zr  Zr0  1  0.87960529  0.88363635  0.61640627  1  2.630876  0  1.63326  2.364029  0  2.775354  0
Zr  Zr1  1  0.12014463  0.11837510  0.38158706  1  2.633319  0  1.635517  2.37154  0  2.773207  0
Zr  Zr2  1  0.11815017  0.88039721  0.61978907  1  2.634798  0  1.636748  2.373428  0  2.753977  0
Zr  Zr3  1  0.88156942  0.12244439  0.37782357  1  2.637636  0  1.633182  2.371882  0  2.743939  0
Zr  Zr4  1  0.11877634  0.88183750  0.37993717  1  2.630842  0  1.633363  2.369591  0  2.76317  0
Zr  Zr5  1  0.88056455  0.12009884  0.61830072  1  2.636645  0  1.633168  2.368155  0  2.764546  0
H  H6  1  0.09218353  0.71937444  0.59266982  1  0.61332  0  0.334099  0.4261  0  0.855066  0
H  H7  1  0.09579526  0.09459196  0.21733182  1  0.62929  0  0.334397  0.428092  0  0.848342  0
H  H8  1  0.09400681  0.09369137  0.59417972  1  0.597369  0  0.333506  0.426506  0  0.851168  0
H  H9  1  0.71758153  0.09614834  0.59212856  1  0.600191  0  0.333568  0.426681  0  0.85146  0
H  H10  1  0.14252838  0.58821303  0.35414182  1  0.107677  0  0.117922  0.143688  0  0.977369  0
H  H11  1  0.85289822  0.41654688  0.64277323  1  0.139668  0  0.117382  0.142585  0  0.978905  0
H  H12  1  0.59023450  0.14082400  0.91714061  1  0.106437  0  0.118514  0.14431  0  0.976351  0
H  H13  1  0.41727327  0.85250519  0.08865884  1  0.114409  0  0.117461  0.142568  0  0.979312  0
H  H14  1  0.85235994  0.14103096  0.08961916  1  0.137509  0  0.115957  0.138649  0  0.987286  0
H  H15  1  0.14122569  0.85469847  0.91487349  1  0.112064  0  0.118181  0.143351  0  0.976902  0
H  H16  1  0.58852002  0.41600206  0.35352445  1  0.097003  0  0.11565  0.137563  0  0.988833  0
H  H17  1  0.41589111  0.59056595  0.64005031  1  0.123834  0  0.118355  0.143528  0  0.977078  0
H  H18  1  0.13930208  0.59467841  0.91139471  1  0.120887  0  0.112043  0.132561  0  0.994655  0
H  H19  1  0.74047964  0.62017859  0.96716338  1  0.082318  0  0.100436  0.118373  0  0.992168  0
H  H20  1  0.82777867  0.53514431  0.88172025  1  0.067471  0  0.099764  0.116227  0  0.98998  0
H  H21  1  0.83632789  0.36559798  0.05118883  1  0.045668  0  0.102235  0.115206  0  0.978465  0
H  H22  1  0.74941573  0.45060196  0.13658090  1  0.071115  0  0.103132  0.117133  0  0.978264  0
H  H23  1  0.58924704  0.85490794  0.63976220  1  0.118969  0  0.117533  0.142794  0  0.97815  0
H  H24  1  0.41624202  0.14185155  0.35276290  1  0.105203  0  0.118035  0.144505  0  0.976625  0
H  H25  1  0.15325339  0.35015156  0.34384877  1  0.626104  0  0.306711  0.349659  0  0.975848  0
H  H26  1  0.84228874  0.65599676  0.65126746  1  0.649468  0  0.309833  0.352009  0  0.971047  0
H  H27  1  0.35278950  0.15063720  0.15570733  1  0.62181  0  0.307069  0.348879  0  0.976827  0
H  H28  1  0.65523918  0.84347942  0.84965741  1  0.639983  0  0.309746  0.351367  0  0.972202  0
H  H29  1  0.84217459  0.15266030  0.85105532  1  0.635991  0  0.30931  0.353499  0  0.967632  0
H  H30  1  0.15141411  0.84289126  0.15343319  1  0.64006  0  0.309419  0.352104  0  0.969805  0
H  H31  1  0.35153635  0.65471824  0.34156211  1  0.637136  0  0.309398  0.353458  0  0.96787  0
H  H32  1  0.65362134  0.35272678  0.65111183  1  0.633838  0  0.309354  0.351928  0  0.970102  0
H  H33  1  0.35133793  0.84266997  0.65153526  1  0.637851  0  0.31033  0.353852  0  0.966737  0
H  H34  1  0.65461869  0.15346326  0.34085601  1  0.631545  0  0.309539  0.35304  0  0.968614  0
C  C35  1  0.99673557  0.69886929  0.49568922  1  1.508429  0  0.236563  0.654577  0  4.069693  0
C  C36  1  0.30937766  0.99572175  0.19803427  1  1.483266  0  0.23678  0.654135  0  4.072135  0
C  C37  1  0.99728587  0.30768388  0.49885223  1  1.502448  0  0.236421  0.653416  0  4.070311  0
C  C38  1  0.69717071  0.99871183  0.80695137  1  1.484854  0  0.237032  0.653968  0  4.07023  0
C  C39  1  0.99296222  0.70219299  0.80444218  1  1.519251  0  0.241159  0.654527  0  4.087448  0
C  C40  1  0.69754126  0.99917134  0.49510508  1  1.513359  0  0.237902  0.658197  0  4.066587  0
C  C41  1  0.00099490  0.30639627  0.19939263  1  1.52263  0  0.237939  0.663478  0  4.083775  0
C  C42  1  0.30834818  0.99712927  0.49696786  1  1.498079  0  0.237499  0.655274  0  4.071626  0
C  C43  1  0.30766395  0.69810033  0.49646714  1  1.474126  0  0.237161  0.65537  0  4.068212  0
C  C44  1  0.99651529  0.99772903  0.80785067  1  1.504356  0  0.237734  0.656078  0  4.067842  0
C  C45  1  0.69774336  0.30975559  0.49586239  1  1.485865  0  0.236694  0.653971  0  4.072212  0
C  C46  1  0.99704724  0.99804335  0.19659279  1  1.494986  0  0.236931  0.653864  0  4.069666  0
C  C47  1  0.99903834  0.40721378  0.49760489  1  -0.018882  0  -0.029883  -0.163075  0  3.990871  0
C  C48  1  0.99616160  0.59780407  0.49892648  1  -0.02595  0  -0.030778  -0.166533  0  3.998906  0
C  C49  1  0.08288956  0.45558690  0.41508053  1  0.547359  0  0.085568  0.297171  0  4.065577  0
C  C50  1  0.91345749  0.54831231  0.58265065  1  0.578334  0  0.084203  0.291748  0  4.071512  0
C  C51  1  0.07932831  0.55035765  0.41742554  1  -0.002347  0  -0.09086  -0.183651  0  3.936212  0
C  C52  1  0.91641773  0.45410705  0.57984543  1  0.015211  0  -0.092684  -0.18854  0  3.942135  0
C  C53  1  0.40943175  0.99710335  0.09848841  1  -0.008817  0  -0.029844  -0.163689  0  3.991796  0
C  C54  1  0.59864511  0.99567520  0.90795276  1  -0.059468  0  -0.02974  -0.164289  0  3.997717  0
C  C55  1  0.45875740  0.07999518  0.04974382  1  0.505863  0  0.086268  0.296401  0  4.06808  0
C  C56  1  0.54966578  0.91243891  0.95701450  1  0.538602  0  0.08393  0.28997  0  4.074093  0
C  C57  1  0.55248514  0.07751789  0.95505799  1  0.124464  0  -0.091096  -0.184001  0  3.935444  0
C  C58  1  0.45561941  0.91524164  0.05123487  1  0.041807  0  -0.092506  -0.187275  0  3.942474  0
C  C59  1  0.99535925  0.99934334  0.90736154  1  0.001353  0  -0.030505  -0.166142  0  3.994424  0
C  C60  1  0.99810420  0.99625875  0.09724584  1  -0.009268  0  -0.030255  -0.163486  0  3.993098  0
C  C61  1  0.91265690  0.08220312  0.95672173  1  0.548128  0  0.083652  0.292891  0  4.07416  0
C  C62  1  0.08117728  0.91381618  0.04750704  1  0.525683  0  0.085018  0.292339  0  4.071267  0
C  C63  1  0.91574667  0.07861828  0.05094597  1  0.008022  0  -0.093215  -0.191258  0  3.947951  0
C  C64  1  0.07797843  0.91726373  0.95336009  1  -0.000823  0  -0.090509  -0.184792  0  3.937476  0
C  C65  1  0.40770798  0.59860989  0.49486519  1  -0.01227  0  -0.029755  -0.165278  0  3.993814  0
C  C66  1  0.59754547  0.40894431  0.49775875  1  0.005043  0  -0.030319  -0.16451  0  3.993587  0
C  C67  1  0.45693944  0.54887167  0.41235502  1  0.541982  0  0.084383  0.292797  0  4.075054  0
C  C68  1  0.54788478  0.45821362  0.58068112  1  0.509669  0  0.085221  0.292531  0  4.073266  0
C  C69  1  0.55085342  0.45481893  0.41579878  1  0.025514  0  -0.093588  -0.190489  0  3.947209  0
C  C70  1  0.45389542  0.55229365  0.57727549  1  0.055732  0  -0.091314  -0.18524  0  3.93907  0
C  C71  1  0.99363051  0.60202517  0.90449001  1  -0.040222  0  -0.01072  -0.067589  0  3.984851  0
C  C72  1  0.00285205  0.40629327  0.09888274  1  0.023097  0  -0.015633  -0.150016  0  3.923328  0
C  C73  1  0.91635732  0.54822831  0.95675249  1  0.010535  0  -0.002544  0.060651  0  3.882875  0
C  C74  1  0.08258910  0.46089406  0.04379182  1  0.039926  0  0.02529  0.138114  0  4.005526  0
C  C75  1  0.92162224  0.45395952  0.05065857  1  0.020543  0  0.001994  0.078213  0  3.87224  0
C  C76  1  0.07683836  0.55569047  0.95028261  1  0.049118  0  -0.087705  -0.168995  0  3.958021  0
C  C77  1  0.81505288  0.54816505  0.95464175  1  -0.024273  0  -0.149165  -0.199232  0  3.852022  0
C  C78  1  0.82054549  0.44156716  0.06107644  1  -0.008014  0  -0.145568  -0.192422  0  3.856337  0
C  C79  1  0.40809747  0.99621290  0.49789793  1  0.073714  0  -0.029897  -0.165287  0  3.993425  0
C  C80  1  0.59784742  0.00005090  0.49415891  1  -0.084725  0  -0.031124  -0.169127  0  3.99936  0
C  C81  1  0.45716540  0.91382888  0.58069032  1  0.50427  0  0.085373  0.293182  0  4.070767  0
C  C82  1  0.54841039  0.08281467  0.41176630  1  0.571213  0  0.085651  0.29458  0  4.072024  0
C  C83  1  0.55128593  0.91758237  0.57693759  1  0.052152  0  -0.091222  -0.184933  0  3.937568  0
C  C84  1  0.45433975  0.07903666  0.41545563  1  -0.005554  0  -0.091255  -0.185756  0  3.935299  0
Cl  Cl85  1  0.19290062  0.41630491  0.08473454  1  -0.169721  0  0.012592  -0.042532  0  1.546658  0
O  O86  1  0.91868417  0.74084281  0.57241956  1  -1.189362  0  -0.353482  -0.631987  0  2.32419  0
O  O87  1  0.26818351  0.07310935  0.23922334  1  -1.182898  0  -0.352748  -0.629051  0  2.324366  0
O  O88  1  0.07556294  0.26572506  0.42231379  1  -1.184375  0  -0.351284  -0.626882  0  2.323555  0
O  O89  1  0.73685546  0.92288419  0.76418172  1  -1.185116  0  -0.353616  -0.631883  0  2.325396  0
O  O90  1  0.06998866  0.74209133  0.76412041  1  -1.18043  0  -0.36045  -0.619197  0  2.289534  0
O  O91  1  0.73844675  0.07705976  0.41818957  1  -1.186285  0  -0.351653  -0.633049  0  2.316397  0
O  O92  1  0.92345380  0.26785774  0.23671400  1  -1.165276  0  -0.353381  -0.615115  0  2.262467  0
O  O93  1  0.26655414  0.92011985  0.57480151  1  -1.187972  0  -0.351958  -0.633047  0  2.314096  0
O  O94  1  0.26633856  0.73845497  0.41951971  1  -1.179964  0  -0.353236  -0.633496  0  2.315423  0
O  O95  1  0.91941579  0.07546188  0.76660629  1  -1.187377  0  -0.353631  -0.634801  0  2.315618  0
O  O96  1  0.73811729  0.26821528  0.57383144  1  -1.181028  0  -0.353254  -0.632747  0  2.317145  0
O  O97  1  0.07477837  0.92094489  0.23720197  1  -1.180365  0  -0.353513  -0.632636  0  2.316382  0
O  O98  1  0.07236892  0.92224458  0.76651685  1  -1.184842  0  -0.351217  -0.610937  0  2.274338  0
O  O99  1  0.73921186  0.26897206  0.41981537  1  -1.17939  0  -0.351625  -0.612085  0  2.280264  0
O  O100  1  0.92225126  0.07462102  0.23683873  1  -1.18269  0  -0.351741  -0.611764  0  2.277165  0
O  O101  1  0.26582127  0.73873143  0.57271178  1  -1.183596  0  -0.351198  -0.611855  0  2.273126  0
O  O102  1  0.91680840  0.74076498  0.76441808  1  -1.173838  0  -0.352583  -0.613907  0  2.253978  0
O  O103  1  0.26705183  0.07315255  0.42170482  1  -1.184723  0  -0.35565  -0.614505  0  2.278628  0
O  O104  1  0.07558279  0.26400174  0.24227328  1  -1.180258  0  -0.364598  -0.633582  0  2.366492  0
O  O105  1  0.73805350  0.92381924  0.57113058  1  -1.195834  0  -0.356527  -0.615625  0  2.280414  0
O  O106  1  0.73783672  0.07500642  0.76553364  1  -1.191971  0  -0.353855  -0.613454  0  2.276425  0
O  O107  1  0.07295631  0.73960362  0.41997744  1  -1.192681  0  -0.353468  -0.61412  0  2.275988  0
O  O108  1  0.26721675  0.92082398  0.23810573  1  -1.183186  0  -0.355111  -0.615535  0  2.275994  0
O  O109  1  0.92099636  0.26680926  0.57442995  1  -1.18632  0  -0.355889  -0.615753  0  2.274705  0
O  O110  1  0.79783975  0.06962689  0.56519485  1  -1.226606  0  -0.695877  -1.068728  0  2.359752  0
O  O111  1  0.06706600  0.06699295  0.56757025  1  -1.225482  0  -0.696615  -1.068898  0  2.361833  0
O  O112  1  0.06839168  0.06744769  0.29750319  1  -1.255019  0  -0.69621  -1.069629  0  2.36278  0
O  O113  1  0.06594934  0.79954817  0.56569336  1  -1.238947  0  -0.69618  -1.069288  0  2.369245  0
O  O114  1  0.14859896  0.95013057  0.45051349  1  -1.191022  0  -0.793481  -1.147968  0  2.134592  0
O  O115  1  0.95013862  0.95278456  0.44823002  1  -1.197644  0  -0.792656  -1.145558  0  2.131509  0
O  O116  1  0.95090839  0.14923419  0.44998195  1  -1.193374  0  -0.79369  -1.146346  0  2.139678  0
O  O117  1  0.94932657  0.95172900  0.64759518  1  -1.197151  0  -0.793344  -1.146797  0  2.138536  0
O  O118  1  0.16613919  0.41480497  0.33391430  1  -1.139168  0  -0.357391  -0.444051  0  2.280014  0
O  O119  1  0.83167763  0.58827436  0.66529130  1  -1.16395  0  -0.356877  -0.443984  0  2.260649  0
O  O120  1  0.41943385  0.16168300  0.09006512  1  -1.129337  0  -0.357376  -0.442271  0  2.278001  0
O  O121  1  0.58996574  0.83033547  0.91653459  1  -1.150233  0  -0.35616  -0.443016  0  2.264878  0
O  O122  1  0.83086429  0.16481988  0.91665716  1  -1.149641  0  -0.359299  -0.440961  0  2.244783  0
O  O123  1  0.16359141  0.83180868  0.08687026  1  -1.144396  0  -0.357957  -0.437956  0  2.246431  0
O  O124  1  0.41723855  0.58833797  0.33023968  1  -1.148455  0  -0.359601  -0.44094  0  2.246655  0
O  O125  1  0.58721198  0.41838637  0.66311241  1  -1.137834  0  -0.357314  -0.436848  0  2.247061  0
O  O126  1  0.41704077  0.83175302  0.66324694  1  -1.144026  0  -0.357876  -0.43897  0  2.244565  0
O  O127  1  0.58814080  0.16536027  0.32974812  1  -1.144897  0  -0.357819  -0.438925  0  2.244083  0
