# generated using pymatgen
data_MnH24C26(SN7)2
_symmetry_space_group_name_H-M   'P 1'
_cell_length_a   8.96012794
_cell_length_b   9.48690827
_cell_length_c   11.30802601
_cell_angle_alpha   112.69462343
_cell_angle_beta   93.89337596
_cell_angle_gamma   97.21115327
_symmetry_Int_Tables_number   1
_chemical_formula_structural   MnH24C26(SN7)2
_chemical_formula_sum   'Mn1 H24 C26 S2 N14'
_cell_volume   872.65344554
_cell_formula_units_Z   1
loop_
 _symmetry_equiv_pos_site_id
 _symmetry_equiv_pos_as_xyz
  1  'x, y, z'
loop_
 _atom_site_type_symbol
 _atom_site_label
 _atom_site_symmetry_multiplicity
 _atom_site_fract_x
 _atom_site_fract_y
 _atom_site_fract_z
 _atom_site_occupancy
 _atom_site_hle17_ddec_charge
 _atom_site_hle17_ddec_spin_density
 _atom_site_hle17_ddec_sum_bond_order
 _atom_site_hle17_magmom
 _atom_site_hse06_10hf_ddec_charge
 _atom_site_hse06_10hf_ddec_spin_density
 _atom_site_hse06_10hf_ddec_sum_bond_order
 _atom_site_hse06_10hf_magmom
 _atom_site_hse06_ddec_charge
 _atom_site_hse06_ddec_spin_density
 _atom_site_hse06_ddec_sum_bond_order
 _atom_site_hse06_magmom
 _atom_site_pbe_cm5_charge
 _atom_site_pbe_ddec_charge
 _atom_site_pbe_ddec_spin_density
 _atom_site_pbe_ddec_sum_bond_order
 _atom_site_pbe_magmom
Mn  Mn0  1  0.00824199  0.99932833  0.49469157  1  0.660123  1.07656  3.083057  1.045  0.564513  1.022246  3.642302  0.975  0.61208  1.021657  3.580343  0.975  0.711732  0.532846  1.008528  3.681847  0.957
H  H1  1  0.89168206  0.66306233  0.51722065  1  0.102262  0.000169  0.927961  0.0  0.10718  -7.5e-05  0.994185  0.0  0.108936  -0.000102  0.992264  0.0  0.13604  0.105676  -3.9e-05  0.995848  0.0
H  H2  1  0.11485394  0.33865780  0.47528195  1  0.101485  0.000211  0.927915  0.0  0.106688  -9.6e-05  0.993829  0.0  0.108476  -0.000114  0.991932  0.0  0.1362  0.105225  -6.9e-05  0.995399  0.0
H  H3  1  0.30976716  0.96491632  0.66731477  1  0.102886  -0.000102  0.972776  0.0  0.100229  -0.000371  1.059996  0.0  0.103714  -0.000247  1.053918  0.0  0.134052  0.097334  -0.000448  1.064278  0.0
H  H4  1  0.69985488  0.03066879  0.32998900  1  0.103739  -2.3e-05  0.965965  0.0  0.102053  -0.000334  1.051855  0.0  0.10531  -0.00023  1.045893  0.0  0.135653  0.099327  -0.000396  1.056053  0.0
H  H5  1  0.31909809  0.63532361  0.77421803  1  0.091067  0.000146  0.946787  0.0  0.100126  0.000272  1.020288  0.0  0.101433  0.00016  1.018618  0.0  0.106616  0.099018  0.000433  1.020787  0.0
H  H6  1  0.67668155  0.35951743  0.22594835  1  0.091477  0.000116  0.944053  0.0  0.100321  0.000261  1.017711  0.0  0.10162  0.00016  1.016029  0.0  0.106968  0.099179  0.000412  1.018226  0.0
H  H7  1  0.43378296  0.80252072  0.77257669  1  0.084661  -1.3e-05  0.956092  0.0  0.095291  -3e-05  1.027865  0.0  0.094747  -2e-05  1.029675  0.0  0.11029  0.095647  -5e-05  1.026033  0.0
H  H8  1  0.56635245  0.19227314  0.23115016  1  0.083733  -1.1e-05  0.959516  0.0  0.094422  -3.3e-05  1.031938  0.0  0.093718  -2.6e-05  1.033915  0.0  0.110321  0.094923  -4.7e-05  1.029884  0.0
H  H9  1  0.39093082  0.71553843  0.47919272  1  0.086926  -9.5e-05  0.963165  0.0  0.09757  -0.000131  1.025882  0.0  0.100056  -5e-05  1.024907  0.0  0.098155  0.095889  -0.000195  1.026485  0.0
H  H10  1  0.61049244  0.28064463  0.52328529  1  0.087183  -9e-05  0.962851  0.0  0.097932  -9.6e-05  1.025303  0.0  0.100321  -4.2e-05  1.024642  0.0  0.0978  0.096251  -0.000134  1.025767  0.0
H  H11  1  0.52151001  0.55031680  0.30352176  1  0.08809  8.1e-05  0.980508  0.0  0.095746  0.000143  1.046226  0.0  0.098563  0.0001  1.045493  0.0  0.089261  0.093515  0.000205  1.0471  0.0
H  H12  1  0.47971696  0.44585171  0.69921372  1  0.089122  6.1e-05  0.976536  0.0  0.097112  0.000121  1.041628  0.0  0.099992  8.5e-05  1.040784  0.0  0.090448  0.094784  0.000173  1.042652  0.0
H  H13  1  0.62549567  0.89733692  0.48064744  1  0.094396  -6.9e-05  0.949693  0.0  0.10029  -9.6e-05  1.017723  0.0  0.101504  -7e-05  1.016569  0.0  0.135147  0.099149  -0.000118  1.018916  0.0
H  H14  1  0.37228305  0.10481090  0.52113626  1  0.096655  -8.1e-05  0.953632  0.0  0.101754  -0.000164  1.022119  0.0  0.103707  -0.000124  1.019887  0.0  0.136038  0.099863  -0.000204  1.024391  0.0
H  H15  1  0.91810732  0.21850714  0.80459940  1  0.114219  -7.1e-05  0.929719  0.0  0.122708  -9.6e-05  0.993416  0.0  0.125214  -6.3e-05  0.989355  0.0  0.146829  0.120317  -0.000133  0.996744  0.0
H  H16  1  0.07879196  0.78405661  0.19669517  1  0.117184  -0.000129  0.929531  0.0  0.124659  -0.000193  0.993464  0.0  0.128142  -0.000115  0.987739  0.0  0.147408  0.121302  -0.000302  0.998593  0.0
H  H17  1  0.53556826  0.28594727  0.87977922  1  0.093939  -0.000174  0.947752  0.0  0.104474  -0.000129  1.017484  0.0  0.106167  -6e-05  1.015536  0.0  0.104784  0.102645  -0.000181  1.019238  0.0
H  H18  1  0.46010910  0.71672207  0.12087956  1  0.093552  -0.000129  0.949661  0.0  0.103649  -0.00013  1.020011  0.0  0.105639  -6.4e-05  1.017883  0.0  0.103812  0.101536  -0.0002  1.021975  0.0
H  H19  1  0.71965664  0.30266591  0.95886785  1  0.094229  -7.8e-05  0.933787  0.0  0.109228  -0.000105  0.996543  0.0  0.110674  -8.2e-05  0.994681  0.0  0.110228  0.10762  -0.000139  0.998258  0.0
H  H20  1  0.27572460  0.70104779  0.04237712  1  0.095119  -0.00013  0.930092  0.0  0.11078  -8.8e-05  0.991618  0.0  0.112164  -6e-05  0.989915  0.0  0.11101  0.109282  -0.000119  0.993181  0.0
H  H21  1  0.76205311  0.00498909  0.94584362  1  0.095138  -8e-06  0.931962  0.0  0.108612  -2.1e-05  0.985042  0.0  0.111474  -2e-06  0.98393  0.0  0.10428  0.106455  -4e-05  0.98608  0.0
H  H22  1  0.23390199  0.99825384  0.05530780  1  0.09474  -3.1e-05  0.934235  0.0  0.108831  -4.6e-05  0.986713  0.0  0.111574  -5e-06  0.985643  0.0  0.10445  0.10675  -0.0001  0.987715  0.0
H  H23  1  0.65492644  0.82018050  0.03759300  1  0.093607  4.3e-05  0.982482  0.0  0.100366  0.000205  1.049082  0.0  0.103069  0.000103  1.04878  0.0  0.092517  0.098205  0.000328  1.049632  0.0
H  H24  1  0.34096920  0.18294278  0.96342951  1  0.092526  6.3e-05  0.984762  0.0  0.099393  0.000208  1.051462  0.0  0.10211  9.3e-05  1.051153  0.0  0.091574  0.097216  0.000345  1.052004  0.0
C  C25  1  0.00529846  0.71364952  0.56687958  1  0.196411  -0.0042  3.677808  -0.003  0.144383  -0.001093  3.969493  0.0  0.15814  -0.000357  3.977412  0.0  0.147465  0.135535  -0.001443  3.962724  -0.001
C  C26  1  0.00071395  0.28670941  0.42745744  1  0.196896  -0.006195  3.677033  -0.004  0.144939  -0.000815  3.968259  0.0  0.158762  0.00027  3.97604  0.001  0.147893  0.136094  -0.001222  3.961476  0.0
C  C27  1  0.21579847  0.87008150  0.64135021  1  0.146922  -0.005672  3.616982  -0.003  0.073028  -0.005487  3.885722  -0.002  0.098841  -0.003743  3.898607  -0.001  0.153719  0.062146  -0.006566  3.879814  -0.003
C  C28  1  0.79175058  0.12731706  0.35571700  1  0.149467  -0.009376  3.615859  -0.005  0.074186  -0.005279  3.885103  -0.002  0.100412  -0.00309  3.898229  -0.001  0.155041  0.063141  -0.006347  3.87909  -0.003
C  C29  1  0.35438655  0.69622649  0.71292019  1  -0.057263  0.000231  3.651139  0.0  -0.134249  8.5e-05  3.898601  0.0  -0.121926  -2.9e-05  3.911912  0.0  -0.044661  -0.136399  0.000199  3.891592  0.0
C  C30  1  0.64526922  0.29963829  0.28884950  1  -0.058681  0.000212  3.659476  0.0  -0.136289  7.4e-05  3.906783  0.0  -0.123715  -4e-05  3.920105  0.0  -0.044874  -0.138387  0.000182  3.899499  0.0
C  C31  1  0.42792655  0.59288018  0.60202480  1  0.073282  -0.000153  3.739251  0.0  0.093239  -0.00017  3.97786  0.0  0.092896  -7e-05  4.000587  0.0  -0.01304  0.093492  -0.000282  3.961372  0.0
C  C32  1  0.57305609  0.40312186  0.40052653  1  0.074296  -0.000184  3.741347  0.0  0.094461  -0.000196  3.979603  0.0  0.094026  -9.6e-05  4.00227  0.0  -0.012966  0.094765  -0.000317  3.963088  0.0
C  C33  1  0.43905285  0.62017270  0.48958670  1  -0.115395  -6.3e-05  3.765082  0.0  -0.136361  -0.000113  4.012061  0.0  -0.138901  -6.3e-05  4.034336  0.0  -0.097295  -0.134313  -0.000162  3.996584  0.0
C  C34  1  0.56242370  0.37612683  0.51313552  1  -0.114274  -5.7e-05  3.763383  0.0  -0.135544  -6.5e-05  4.0109  0.0  -0.138058  -1.5e-05  4.033136  0.0  -0.096375  -0.133485  -0.000101  3.995493  0.0
C  C35  1  0.51122688  0.52674021  0.39006389  1  -0.115154  -4.1e-05  3.761201  0.0  -0.127877  -2e-06  3.996404  0.0  -0.131386  1.5e-05  4.019507  0.0  -0.094836  -0.125691  -1.1e-05  3.981453  0.0
C  C36  1  0.49013411  0.46947762  0.61269632  1  -0.114227  -3.2e-05  3.757342  0.0  -0.127307  -3.1e-05  3.993326  0.0  -0.130785  -2.1e-05  4.01627  0.0  -0.093927  -0.125152  -4.7e-05  3.978506  0.0
C  C37  1  0.66724433  0.98252852  0.57715626  1  0.188526  -0.001176  3.708587  -0.001  0.138214  2.8e-05  3.996579  0.0  0.149975  0.000933  4.008984  0.001  0.15019  0.130157  -0.000769  3.988142  0.0
C  C38  1  0.33038744  0.01991032  0.42464260  1  0.189573  -0.002268  3.679798  -0.001  0.137366  0.000542  3.968994  0.001  0.151282  0.002953  3.977983  0.003  0.148027  0.127491  -0.001417  3.963671  0.0
C  C39  1  0.81904308  0.14436878  0.73976806  1  0.161969  -0.000215  3.615927  0.0  0.096289  -0.000598  3.87709  0.0  0.113892  0.000549  3.886243  0.001  0.170826  0.085477  -0.001848  3.870963  -0.001
C  C40  1  0.17766253  0.85811171  0.26152035  1  0.160148  -0.000978  3.584788  0.0  0.093214  -0.001126  3.846669  0.0  0.113449  0.002315  3.852154  0.002  0.168033  0.079333  -0.004722  3.8444  -0.002
C  C41  1  0.62249088  0.21981001  0.89409214  1  -0.060996  -1.1e-05  3.646718  0.0  -0.132713  -0.000132  3.896037  0.0  -0.127098  -0.000151  3.904809  0.0  -0.044886  -0.134741  -0.000139  3.889735  0.0
C  C42  1  0.37335109  0.78344452  0.10699890  1  -0.063135  8.9e-05  3.644913  0.0  -0.134765  -0.000162  3.894118  0.0  -0.129545  -0.000223  3.902763  0.0  -0.044928  -0.136672  -0.000158  3.888022  0.0
C  C43  1  0.55834565  0.10652420  0.94912053  1  0.068249  0.000139  3.749984  0.0  0.086825  3.8e-05  3.994228  0.0  0.086219  5.9e-05  4.017749  0.0  -0.011791  0.086723  -0.000308  3.978588  0.0
C  C44  1  0.43753954  0.89667246  0.05201813  1  0.068851  9.9e-05  3.750948  0.0  0.087288  9.4e-05  3.995213  0.0  0.086362  0.000122  4.019107  0.0  -0.011621  0.087673  -0.000155  3.979061  0.0
C  C45  1  0.64609531  0.00420331  0.97016090  1  -0.108629  -4.3e-05  3.742774  0.0  -0.130111  -0.000199  3.990668  0.0  -0.131716  -9.2e-05  4.010606  0.0  -0.090078  -0.128879  -0.000235  3.977553  0.0
C  C46  1  0.34982224  0.99904664  0.03102867  1  -0.109392  8e-05  3.744158  0.0  -0.130984  -0.000287  3.991751  0.0  -0.132743  -0.000139  4.012269  0.0  -0.089925  -0.129478  -0.000338  3.977888  0.0
C  C47  1  0.58636721  0.89998487  0.02123375  1  -0.11435  0.000117  3.746958  0.0  -0.128407  0.000132  3.987759  0.0  -0.131439  8.7e-05  4.009412  0.0  -0.089971  -0.126895  -7.7e-05  3.974168  0.0
C  C48  1  0.40955625  0.10322751  0.97997798  1  -0.110516  -2.1e-05  3.744117  0.0  -0.124891  0.00012  3.984916  0.0  -0.127924  7.3e-05  4.006563  0.0  -0.08895  -0.123367  8e-06  3.971378  0.0
C  C49  1  0.80865045  0.72937322  0.26258879  1  0.261979  0.002667  4.023322  0.003  0.250259  0.010714  4.327179  0.01  0.272651  0.008455  4.344205  0.008  0.134481  0.234715  0.013693  4.312986  0.013
C  C50  1  0.19264379  0.27012963  0.73495624  1  0.26559  -0.001799  4.019937  0.0  0.253129  0.011417  4.324465  0.011  0.275831  0.009681  4.340949  0.009  0.134388  0.237268  0.014328  4.310799  0.013
S  S51  1  0.71804143  0.59601928  0.12946605  1  -0.40226  0.008661  2.031129  0.008  -0.394736  0.013984  2.314788  0.011  -0.411158  0.008442  2.305509  0.007  -0.188923  -0.379485  0.022226  2.319447  0.017
S  S52  1  0.27242296  0.40395846  0.87229530  1  -0.406874  0.00649  2.022364  0.007  -0.399804  0.014567  2.305233  0.011  -0.416202  0.009176  2.295749  0.007  -0.192649  -0.38451  0.022977  2.310103  0.017
N  N53  1  0.22143759  0.74384616  0.66772259  1  0.039699  -0.000877  3.586917  -0.001  0.156755  -0.001632  3.777093  -0.001  0.118759  -0.000755  3.835809  0.0  -0.139891  0.16349  -0.002162  3.760895  -0.002
N  N54  1  0.78098517  0.25460670  0.33219808  1  0.041503  -0.001331  3.591999  -0.001  0.159531  -0.001528  3.781303  -0.001  0.121189  -0.000603  3.840033  0.0  -0.137982  0.166256  -0.002032  3.765152  -0.001
N  N55  1  0.08880731  0.64289002  0.62061208  1  -0.270766  0.00029  2.859866  0.001  -0.274304  0.000267  3.126413  0.001  -0.27359  0.000425  3.144257  0.001  -0.225105  -0.268898  8.2e-05  3.118243  0.0
N  N56  1  0.91249300  0.35744688  0.37751226  1  -0.269687  0.001295  2.859887  0.002  -0.273318  0.000341  3.126067  0.001  -0.272363  0.000379  3.143859  0.001  -0.224569  -0.267999  0.000178  3.117989  0.001
N  N57  1  0.07929452  0.85425535  0.57667273  1  -0.32622  -0.009952  3.286671  -0.011  -0.269757  -0.006366  3.585892  -0.009  -0.294763  -0.005137  3.596475  -0.008  -0.340771  -0.253216  -0.00726  3.576502  -0.009
N  N58  1  0.93078117  0.14424681  0.41685841  1  -0.326945  -0.010089  3.292933  -0.01  -0.269871  -0.006029  3.592815  -0.009  -0.294971  -0.004947  3.603303  -0.008  -0.343191  -0.253369  -0.006934  3.583523  -0.01
N  N59  1  0.67639131  0.14022901  0.77045346  1  0.043705  0.000304  3.584725  0.0  0.138756  0.000234  3.807284  0.0  0.123607  0.000336  3.834243  0.0  -0.131626  0.146049  -1e-05  3.79016  0.0
N  N60  1  0.32016013  0.86303849  0.23094912  1  0.052159  0.001174  3.582582  0.001  0.146031  0.001012  3.806066  0.001  0.132301  0.001439  3.831129  0.002  -0.131938  0.1519  0.000265  3.792119  0.001
N  N61  1  0.57774178  0.03724119  0.66782311  1  -0.287914  -0.001045  2.881291  -0.001  -0.273799  -0.000649  3.154725  0.0  -0.282268  -0.000651  3.169603  -0.001  -0.221223  -0.266687  -0.00071  3.144341  0.0
N  N62  1  0.41896241  0.96576898  0.33334694  1  -0.284659  -0.001508  2.87673  -0.001  -0.274012  -0.000951  3.153528  -0.001  -0.281537  -0.001318  3.166224  -0.001  -0.221898  -0.268132  -0.000727  3.145549  0.0
N  N63  1  0.81639858  0.04537182  0.61722441  1  -0.321542  -0.006564  3.189809  -0.007  -0.263335  -0.007079  3.475991  -0.007  -0.285426  -0.006675  3.485163  -0.008  -0.308462  -0.248867  -0.007924  3.469236  -0.008
N  N64  1  0.18019331  0.95654575  0.38518407  1  -0.310216  -0.01112  3.302652  -0.012  -0.251189  -0.010471  3.604051  -0.012  -0.274357  -0.010106  3.609431  -0.013  -0.3419  -0.236367  -0.011501  3.599864  -0.012
N  N65  1  0.87728615  0.82829975  0.35879172  1  -0.48881  -0.011717  3.168089  -0.013  -0.448902  -0.012069  3.478693  -0.016  -0.473431  -0.013864  3.488869  -0.016  -0.420793  -0.430055  -0.007773  3.468476  -0.014
N  N66  1  0.13181737  0.17068568  0.63566591  1  -0.489382  -0.011374  3.169086  -0.011  -0.449298  -0.012342  3.480369  -0.016  -0.4737  -0.014402  3.48994  -0.017  -0.42063  -0.430617  -0.00795  3.470862  -0.014
