# generated using pymatgen
data_Mg3H30C32(NO5)4
_symmetry_space_group_name_H-M   'P 1'
_cell_length_a   13.31900168
_cell_length_b   14.48216670
_cell_length_c   14.70830810
_cell_angle_alpha   91.77579986
_cell_angle_beta   89.99999671
_cell_angle_gamma   90.00003087
_symmetry_Int_Tables_number   1
_chemical_formula_structural   Mg3H30C32(NO5)4
_chemical_formula_sum   'Mg6 H60 C64 N8 O40'
_cell_volume   2835.69364298
_cell_formula_units_Z   2
loop_
 _symmetry_equiv_pos_site_id
 _symmetry_equiv_pos_as_xyz
  1  'x, y, z'
loop_
 _atom_site_type_symbol
 _atom_site_label
 _atom_site_symmetry_multiplicity
 _atom_site_fract_x
 _atom_site_fract_y
 _atom_site_fract_z
 _atom_site_occupancy
 _atom_site_pbe_bader_charge
 _atom_site_pbe_bader_spin_density
 _atom_site_pbe_cm5_charge
 _atom_site_pbe_ddec_charge
 _atom_site_pbe_ddec_spin_density
 _atom_site_pbe_ddec_sum_bond_order
 _atom_site_pbe_magmom
Mg  Mg0  1  0.00000075  0.00000000  1.00000000  1  1.697903  0  0.796027  1.391114  0  1.372932  0
Mg  Mg1  1  0.49999932  0.50000048  0.50000021  1  1.697904  0  0.796028  1.391141  0  1.372875  0
Mg  Mg2  1  0.05072381  0.24386567  0.98842971  1  1.692272  0  0.819146  1.386095  0  1.415586  0
Mg  Mg3  1  0.55072377  0.25613403  0.51156959  1  1.692273  0  0.819167  1.386175  0  1.415448  0
Mg  Mg4  1  0.94927632  0.75613460  0.01157070  1  1.692252  0  0.819139  1.386081  0  1.415626  0
Mg  Mg5  1  0.44927637  0.74386555  0.48843011  1  1.692271  0  0.819147  1.386136  0  1.415518  0
H  H6  1  0.18572796  0.37053541  0.93997382  1  0.617828  0  0.299642  0.372657  0  0.961467  0
H  H7  1  0.68572859  0.12946436  0.56002615  1  0.617827  0  0.299599  0.372628  0  0.961508  0
H  H8  1  0.81427142  0.62946417  0.06002520  1  0.617833  0  0.299605  0.372633  0  0.961498  0
H  H9  1  0.31427229  0.87053522  0.43997423  1  0.617835  0  0.299612  0.372634  0  0.9615  0
H  H10  1  0.19122915  0.35987927  0.04948455  1  0.626361  0  0.317517  0.399965  0  0.905629  0
H  H11  1  0.69122826  0.14011992  0.45051493  1  0.626359  0  0.317567  0.400069  0  0.905565  0
H  H12  1  0.80877173  0.64012100  0.95051449  1  0.626352  0  0.317559  0.400053  0  0.905569  0
H  H13  1  0.30877112  0.85987896  0.54948407  1  0.626364  0  0.317557  0.400073  0  0.905569  0
H  H14  1  0.44901873  0.34593147  0.34026601  1  0.63718  0  0.321775  0.371828  0  0.927316  0
H  H15  1  0.94901937  0.15406854  0.15973349  1  0.63717  0  0.321752  0.371808  0  0.927317  0
H  H16  1  0.55098141  0.65406742  0.65973436  1  0.637172  0  0.321758  0.371827  0  0.927299  0
H  H17  1  0.05098077  0.84593173  0.84026692  1  0.637168  0  0.321761  0.371828  0  0.927324  0
H  H18  1  0.42352597  0.86588649  0.65787286  1  0.464643  0  0.297702  0.286828  0  1.003011  0
H  H19  1  0.92352658  0.63411422  0.84212640  1  0.464639  0  0.297688  0.28683  0  1.003008  0
H  H20  1  0.57647341  0.13411378  0.34212687  1  0.464636  0  0.297692  0.286827  0  1.003008  0
H  H21  1  0.07647430  0.36588536  0.15787262  1  0.464652  0  0.297682  0.28684  0  1.002992  0
H  H22  1  0.34541424  0.82466646  0.73690994  1  0.415896  0  0.299408  0.289422  0  0.960113  0
H  H23  1  0.84541414  0.67533422  0.76309068  1  0.41589  0  0.299411  0.289437  0  0.960113  0
H  H24  1  0.65458589  0.17533312  0.26309044  1  0.415901  0  0.299412  0.289424  0  0.960104  0
H  H25  1  0.15458600  0.32466536  0.23690970  1  0.415876  0  0.299396  0.289438  0  0.960099  0
H  H26  1  0.27150707  0.84463283  0.27132982  1  0.436655  0  0.300246  0.297743  0  0.965934  0
H  H27  1  0.77150621  0.65536723  0.22866963  1  0.436649  0  0.300218  0.297742  0  0.965985  0
H  H28  1  0.72849306  0.15536744  0.72866990  1  0.436655  0  0.300233  0.29775  0  0.965937  0
H  H29  1  0.22849318  0.34463304  0.77132941  1  0.43665  0  0.300236  0.297739  0  0.965944  0
H  H30  1  0.38425052  0.87150262  0.31758857  1  0.440759  0  0.306544  0.306249  0  0.947453  0
H  H31  1  0.88424963  0.62849888  0.18241092  1  0.440722  0  0.306542  0.306253  0  0.947435  0
H  H32  1  0.61574962  0.12849765  0.68241116  1  0.440714  0  0.30654  0.306258  0  0.947468  0
H  H33  1  0.11574975  0.37150139  0.81758812  1  0.44071  0  0.306555  0.30626  0  0.947541  0
H  H34  1  0.23545032  0.92334770  0.82940219  1  0.088852  0  0.0978  0.107936  0  1.035542  0
H  H35  1  0.73544941  0.57665292  0.67059911  1  0.089219  0  0.097789  0.107909  0  1.035599  0
H  H36  1  0.76454906  0.07665257  0.17059889  1  0.08885  0  0.097787  0.107928  0  1.035562  0
H  H37  1  0.26455072  0.42334666  0.32940127  1  0.089213  0  0.097793  0.10792  0  1.035595  0
H  H38  1  0.43378701  0.03005712  0.62550635  1  0.081851  0  0.104825  0.117281  0  1.018722  0
H  H39  1  0.93378706  0.46994484  0.87449368  1  0.081831  0  0.104839  0.11731  0  1.01881  0
H  H40  1  0.56621313  0.96994315  0.37449406  1  0.081851  0  0.104828  0.117308  0  1.01871  0
H  H41  1  0.06621307  0.53005473  0.12550535  1  0.081829  0  0.104799  0.117259  0  1.018771  0
H  H42  1  0.26902771  0.21580954  0.80415534  1  0.092879  0  0.101351  0.101489  0  1.056076  0
H  H43  1  0.76902842  0.28419096  0.69584533  1  0.092899  0  0.101367  0.101486  0  1.056096  0
H  H44  1  0.73097167  0.78419073  0.19584370  1  0.092896  0  0.101348  0.101456  0  1.056084  0
H  H45  1  0.23097096  0.71580862  0.30415369  1  0.092908  0  0.101356  0.101484  0  1.056102  0
H  H46  1  0.26482096  0.23504095  0.20701628  1  0.104507  0  0.107026  0.11265  0  1.044078  0
H  H47  1  0.76482165  0.26495967  0.29298392  1  0.104533  0  0.10704  0.112654  0  1.044068  0
H  H48  1  0.73517842  0.76495933  0.79298412  1  0.104525  0  0.107032  0.112669  0  1.04406  0
H  H49  1  0.23517848  0.73504130  0.70701650  1  0.104524  0  0.107052  0.112673  0  1.044049  0
H  H50  1  0.41119974  0.03811691  0.37709893  1  0.091984  0  0.113157  0.126817  0  1.005541  0
H  H51  1  0.91119981  0.46188377  0.12289991  1  0.092337  0  0.113156  0.12681  0  1.005524  0
H  H52  1  0.58880040  0.96188266  0.62290010  1  0.092349  0  0.113156  0.126793  0  1.005574  0
H  H53  1  0.08880033  0.53811581  0.87710047  1  0.092342  0  0.113153  0.126809  0  1.005528  0
H  H54  1  0.16431964  0.95257254  0.20474369  1  0.133021  0  0.114445  0.135939  0  1.010458  0
H  H55  1  0.66431946  0.54742677  0.29525575  1  0.133129  0  0.114464  0.135964  0  1.010438  0
H  H56  1  0.83567974  0.04742704  0.79525601  1  0.133045  0  0.114465  0.135983  0  1.010403  0
H  H57  1  0.33567917  0.45257350  0.70474397  1  0.133036  0  0.114459  0.135962  0  1.010431  0
H  H58  1  0.90600936  0.15686760  0.90516997  1  0.644278  0  0.29351  0.388166  0  0.958891  0
H  H59  1  0.40600949  0.34313228  0.59483000  1  0.64428  0  0.293527  0.388203  0  0.958837  0
H  H60  1  0.09399002  0.84313198  0.09483041  1  0.644249  0  0.293516  0.388168  0  0.958885  0
H  H61  1  0.59398989  0.65686730  0.40516971  1  0.64428  0  0.293508  0.388191  0  0.958855  0
H  H62  1  0.87421571  0.12410843  0.00562950  1  0.611713  0  0.328829  0.40879  0  0.879904  0
H  H63  1  0.37421508  0.37589155  0.49437068  1  0.611677  0  0.328861  0.408865  0  0.879941  0
H  H64  1  0.12578518  0.87589046  0.99437087  1  0.611686  0  0.328828  0.408803  0  0.879865  0
H  H65  1  0.62578506  0.62410941  0.50562974  1  0.611677  0  0.328851  0.408878  0  0.879911  0
C  C66  1  0.16612356  0.08823390  0.89341658  1  1.570715  0  0.233269  0.654607  0  4.14637  0
C  C67  1  0.66612360  0.41176655  0.60658410  1  1.570727  0  0.233326  0.65473  0  4.14627  0
C  C68  1  0.83387657  0.91176637  0.10658382  1  1.570738  0  0.233319  0.654744  0  4.146219  0
C  C69  1  0.33387653  0.58823303  0.39341561  1  1.570685  0  0.233345  0.654781  0  4.146244  0
C  C70  1  0.24582322  0.07104629  0.82357437  1  -0.005849  0  -0.021683  -0.024951  0  4.014264  0
C  C71  1  0.74582327  0.42895420  0.67642699  1  -0.005915  0  -0.02167  -0.024931  0  4.014216  0
C  C72  1  0.75417616  0.92895467  0.17642606  1  -0.005883  0  -0.021668  -0.024913  0  4.014183  0
C  C73  1  0.25417686  0.57104607  0.32357342  1  -0.005866  0  -0.021669  -0.024958  0  4.014208  0
C  C74  1  0.27155740  0.98106545  0.79666580  1  -0.001413  0  -0.095693  -0.196972  0  3.922257  0
C  C75  1  0.77155570  0.51893519  0.70333550  1  -0.001767  0  -0.095796  -0.197067  0  3.922318  0
C  C76  1  0.72844348  0.01893482  0.20333392  1  -0.001428  0  -0.095673  -0.196968  0  3.922275  0
C  C77  1  0.22844368  0.48106439  0.29666420  1  -0.00176  0  -0.095774  -0.197025  0  3.922327  0
C  C78  1  0.33969464  0.96503382  0.72529025  1  0.373242  0  0.08719  0.289841  0  4.117677  0
C  C79  1  0.83969370  0.53496755  0.77471038  1  0.373269  0  0.087274  0.289947  0  4.117631  0
C  C80  1  0.66030550  0.03496576  0.27470945  1  0.373509  0  0.087176  0.28987  0  4.117649  0
C  C81  1  0.16030644  0.46503203  0.22529000  1  0.373249  0  0.087234  0.289858  0  4.117742  0
C  C82  1  0.38296413  0.04071736  0.68293272  1  -0.053826  0  -0.097738  -0.209977  0  3.927401  0
C  C83  1  0.88296418  0.45928389  0.81706865  1  -0.053841  0  -0.097676  -0.209929  0  3.927631  0
C  C84  1  0.61703601  0.95928291  0.31706700  1  -0.05408  0  -0.09777  -0.210105  0  3.927427  0
C  C85  1  0.11703595  0.54071569  0.18293174  1  -0.053812  0  -0.097694  -0.20991  0  3.927498  0
C  C86  1  0.35846007  0.13109342  0.71119851  1  -0.045524  0  -0.025593  -0.034293  0  4.044052  0
C  C87  1  0.85846007  0.36890851  0.78880287  1  -0.045488  0  -0.025717  -0.034429  0  4.044223  0
C  C88  1  0.64154007  0.86890616  0.28880119  1  -0.045513  0  -0.025566  -0.03425  0  4.043981  0
C  C89  1  0.14154007  0.63109177  0.21119753  1  -0.045499  0  -0.025662  -0.034411  0  4.044098  0
C  C90  1  0.40420976  0.20922975  0.66156698  1  1.591638  0  0.22224  0.60839  0  4.168084  0
C  C91  1  0.90421122  0.29077151  0.83843371  1  1.591669  0  0.222208  0.608424  0  4.168099  0
C  C92  1  0.59579037  0.79077052  0.33843275  1  1.591635  0  0.222231  0.608432  0  4.16809  0
C  C93  1  0.09578891  0.70922876  0.16156669  1  1.591661  0  0.222197  0.608455  0  4.168174  0
C  C94  1  0.28954199  0.14638570  0.78138933  1  -0.028188  0  -0.094116  -0.137733  0  3.97402  0
C  C95  1  0.78954049  0.35361550  0.71861068  1  -0.02818  0  -0.094084  -0.137682  0  3.973987  0
C  C96  1  0.71045815  0.85361457  0.21860972  1  -0.028203  0  -0.094123  -0.137708  0  3.973967  0
C  C97  1  0.21045965  0.64638477  0.28138904  1  -0.028189  0  -0.094075  -0.137646  0  3.973985  0
C  C98  1  0.12319996  0.12061604  0.13598059  1  1.578532  0  0.22417  0.609429  0  4.192684  0
C  C99  1  0.62319996  0.37938450  0.36401826  1  1.578643  0  0.224157  0.609412  0  4.192755  0
C  C100  1  0.87680018  0.87938423  0.86401846  1  1.578528  0  0.224173  0.609456  0  4.192703  0
C  C101  1  0.37679867  0.62061577  0.63598078  1  1.578504  0  0.224152  0.609404  0  4.192763  0
C  C102  1  0.20479540  0.09639904  0.20156478  1  -0.043352  0  -0.015521  -0.013436  0  3.982304  0
C  C103  1  0.70479467  0.40360015  0.29843402  1  -0.043369  0  -0.015506  -0.013405  0  3.982284  0
C  C104  1  0.79520473  0.90360122  0.79843426  1  -0.043371  0  -0.015497  -0.013347  0  3.982215  0
C  C105  1  0.29520471  0.59639873  0.70156498  1  -0.043354  0  -0.015476  -0.013352  0  3.982216  0
C  C106  1  0.27049254  0.16588392  0.23321051  1  -0.063727  0  -0.089747  -0.136643  0  3.944244  0
C  C107  1  0.77049252  0.33411669  0.26678901  1  -0.063756  0  -0.089752  -0.136623  0  3.944305  0
C  C108  1  0.72950760  0.83411635  0.76678921  1  -0.063752  0  -0.089765  -0.136694  0  3.944228  0
C  C109  1  0.22950611  0.66588289  0.73321137  1  -0.063711  0  -0.089787  -0.136629  0  3.944267  0
C  C110  1  0.34254448  0.14479386  0.29869417  1  0.039971  0  -0.024963  -0.051063  0  4.054361  0
C  C111  1  0.84254448  0.35520679  0.20130535  1  0.039921  0  -0.024952  -0.051107  0  4.054416  0
C  C112  1  0.65745641  0.85520572  0.70130622  1  0.040059  0  -0.02499  -0.051123  0  4.054315  0
C  C113  1  0.15745641  0.64479349  0.79869573  1  0.039868  0  -0.024948  -0.051167  0  4.054587  0
C  C114  1  0.40509273  0.21689515  0.34423348  1  1.47455  0  0.252615  0.60542  0  4.077313  0
C  C115  1  0.90509344  0.28310553  0.15576604  1  1.474639  0  0.252605  0.605434  0  4.077299  0
C  C116  1  0.59490741  0.78310512  0.65576625  1  1.474492  0  0.252624  0.605483  0  4.077202  0
C  C117  1  0.09490820  0.71689405  0.84423503  1  1.474635  0  0.252576  0.605448  0  4.077284  0
C  C118  1  0.35502436  0.05338707  0.32588117  1  -0.007204  0  -0.083387  -0.18765  0  3.888318  0
C  C119  1  0.85502367  0.44661359  0.17411834  1  -0.00758  0  -0.08337  -0.187569  0  3.888329  0
C  C120  1  0.64497652  0.94661320  0.67411855  1  -0.007571  0  -0.083401  -0.187645  0  3.888395  0
C  C121  1  0.14497647  0.55338738  0.82588140  1  -0.007562  0  -0.083384  -0.187597  0  3.888301  0
C  C122  1  0.29524763  0.98234320  0.28818004  1  0.339036  0  0.098987  0.294685  0  4.061561  0
C  C123  1  0.79524744  0.51765687  0.21181874  1  0.339316  0  0.098967  0.29458  0  4.061739  0
C  C124  1  0.70475250  0.01765638  0.71181967  1  0.339037  0  0.098986  0.294687  0  4.061584  0
C  C125  1  0.20475270  0.48234270  0.78818029  1  0.33902  0  0.098995  0.294675  0  4.061605  0
C  C126  1  0.21610478  0.00580593  0.22982506  1  0.010408  0  -0.074605  -0.173002  0  3.850359  0
C  C127  1  0.71610411  0.49419396  0.27017376  1  0.010028  0  -0.074605  -0.172976  0  3.850367  0
C  C128  1  0.78389611  0.99419364  0.77017464  1  0.010376  0  -0.074616  -0.17305  0  3.850343  0
C  C129  1  0.28389453  0.50580562  0.72982594  1  0.010397  0  -0.07465  -0.173062  0  3.850412  0
N  N130  1  0.35823729  0.87560120  0.69256232  1  -1.232404  0  -0.601678  -0.619628  0  3.357364  0
N  N131  1  0.85823715  0.62440018  0.80743832  1  -1.232436  0  -0.601668  -0.619663  0  3.357375  0
N  N132  1  0.64176284  0.12439908  0.30743809  1  -1.2324  0  -0.601671  -0.619629  0  3.357315  0
N  N133  1  0.14176373  0.37559940  0.19256206  1  -1.23244  0  -0.601619  -0.619642  0  3.357341  0
N  N134  1  0.31041616  0.89046255  0.31208143  1  -1.173091  0  -0.580389  -0.607031  0  3.283785  0
N  N135  1  0.81041527  0.60953822  0.18791804  1  -1.173058  0  -0.580367  -0.607032  0  3.283833  0
N  N136  1  0.68958398  0.10953772  0.68791762  1  -1.173047  0  -0.580363  -0.607049  0  3.283775  0
N  N137  1  0.18958337  0.39046205  0.81208100  1  -1.173051  0  -0.580375  -0.607039  0  3.283897  0
O  O138  1  0.13362640  0.17024976  0.90123385  1  -1.233894  0  -0.367778  -0.653706  0  2.267153  0
O  O139  1  0.63362640  0.32974998  0.59876545  1  -1.233882  0  -0.367805  -0.653776  0  2.267122  0
O  O140  1  0.86637373  0.82974982  0.09876586  1  -1.233894  0  -0.367782  -0.653736  0  2.267131  0
O  O141  1  0.36637374  0.67025029  0.40123427  1  -1.233884  0  -0.367825  -0.653809  0  2.267094  0
O  O142  1  0.14726336  0.35844084  0.99616439  1  -1.272088  0  -0.599138  -0.799066  0  2.08109  0
O  O143  1  0.64726325  0.14155960  0.50383493  1  -1.272075  0  -0.599144  -0.799164  0  2.081084  0
O  O144  1  0.85273602  0.64156012  0.00383468  1  -1.27208  0  -0.599142  -0.799146  0  2.081127  0
O  O145  1  0.35273688  0.85843998  0.49616477  1  -1.272093  0  -0.599144  -0.799163  0  2.081107  0
O  O146  1  0.13391542  0.02035147  0.93887865  1  -1.25857  0  -0.376161  -0.684337  0  2.230728  0
O  O147  1  0.63391400  0.47964897  0.56112203  1  -1.25857  0  -0.376158  -0.684389  0  2.2307  0
O  O148  1  0.86608622  0.97964949  0.06112178  1  -1.25858  0  -0.376173  -0.684424  0  2.230681  0
O  O149  1  0.36608463  0.52035130  0.43887837  1  -1.258573  0  -0.376171  -0.684409  0  2.230782  0
O  O150  1  0.93365782  0.13042816  0.96738478  1  -1.320365  0  -0.586734  -0.889723  0  2.13992  0
O  O151  1  0.43365722  0.36957173  0.53261450  1  -1.320333  0  -0.586774  -0.889842  0  2.139949  0
O  O152  1  0.06634231  0.86957212  0.03261562  1  -1.320328  0  -0.586744  -0.889722  0  2.139845  0
O  O153  1  0.56634217  0.63042854  0.46738590  1  -1.320337  0  -0.586756  -0.88985  0  2.139955  0
O  O154  1  0.36438773  0.28956608  0.66873946  1  -1.186559  0  -0.320888  -0.554163  0  2.154493  0
O  O155  1  0.86438764  0.21043447  0.83126052  1  -1.186523  0  -0.32087  -0.554173  0  2.154428  0
O  O156  1  0.63561240  0.71043351  0.33126092  1  -1.186559  0  -0.320898  -0.554197  0  2.154477  0
O  O157  1  0.13561174  0.78956511  0.16874054  1  -1.186496  0  -0.320837  -0.554155  0  2.154484  0
O  O158  1  0.48040166  0.18978159  0.61192950  1  -1.249478  0  -0.368  -0.652103  0  2.258348  0
O  O159  1  0.98040312  0.31021971  0.88807051  1  -1.249526  0  -0.367976  -0.65211  0  2.258495  0
O  O160  1  0.51959848  0.81021868  0.38807023  1  -1.249473  0  -0.367968  -0.652102  0  2.258375  0
O  O161  1  0.01959701  0.68977988  0.11193056  1  -1.249491  0  -0.367968  -0.65213  0  2.258485  0
O  O162  1  0.13382014  0.19502162  0.09439483  1  -1.229727  0  -0.347349  -0.640766  0  2.32064  0
O  O163  1  0.63381860  0.30497892  0.40560402  1  -1.229687  0  -0.34735  -0.64077  0  2.320645  0
O  O164  1  0.86618149  0.80497865  0.90560489  1  -1.229698  0  -0.347334  -0.640767  0  2.32066  0
O  O165  1  0.36618003  0.69502065  0.59439433  1  -1.229707  0  -0.347339  -0.640779  0  2.320688  0
O  O166  1  0.04584730  0.06774456  0.12686373  1  -1.243966  0  -0.348742  -0.667126  0  2.216566  0
O  O167  1  0.54584883  0.43225664  0.37313650  1  -1.244098  0  -0.348763  -0.667144  0  2.216639  0
O  O168  1  0.95415209  0.93225640  0.87313602  1  -1.243974  0  -0.348771  -0.667181  0  2.216635  0
O  O169  1  0.45415130  0.56774433  0.62686460  1  -1.243942  0  -0.348743  -0.667119  0  2.216606  0
O  O170  1  0.40111498  0.30084674  0.30953242  1  -1.139399  0  -0.310042  -0.451973  0  2.279463  0
O  O171  1  0.90111564  0.19915325  0.19046775  1  -1.139379  0  -0.310013  -0.451948  0  2.279421  0
O  O172  1  0.59888516  0.69915215  0.69046862  1  -1.139408  0  -0.310017  -0.451992  0  2.279402  0
O  O173  1  0.09888450  0.80084702  0.80953265  1  -1.13936  0  -0.310022  -0.451977  0  2.27942  0
O  O174  1  0.45726855  0.19856664  0.41155966  1  -1.219091  0  -0.309489  -0.582474  0  2.325474  0
O  O175  1  0.95726928  0.30143338  0.08843983  1  -1.219139  0  -0.309506  -0.582483  0  2.32544  0
O  O176  1  0.54273158  0.80143225  0.58844002  1  -1.219089  0  -0.309484  -0.582452  0  2.325442  0
O  O177  1  0.04273311  0.69856759  0.91156195  1  -1.219138  0  -0.309498  -0.582477  0  2.325412  0
