# generated using pymatgen
data_AgH7C6BrN
_symmetry_space_group_name_H-M   'P 1'
_cell_length_a   6.62734810
_cell_length_b   14.24743069
_cell_length_c   15.68654437
_cell_angle_alpha   90.00340580
_cell_angle_beta   89.99963775
_cell_angle_gamma   89.99743556
_symmetry_Int_Tables_number   1
_chemical_formula_structural   AgH7C6BrN
_chemical_formula_sum   'Ag8 H56 C48 Br8 N8'
_cell_volume   1481.16559828
_cell_formula_units_Z   8
loop_
 _symmetry_equiv_pos_site_id
 _symmetry_equiv_pos_as_xyz
  1  'x, y, z'
loop_
 _atom_site_type_symbol
 _atom_site_label
 _atom_site_symmetry_multiplicity
 _atom_site_fract_x
 _atom_site_fract_y
 _atom_site_fract_z
 _atom_site_occupancy
 _atom_site_hle17_bader_spin_density
 _atom_site_hle17_ddec_charge
 _atom_site_hle17_ddec_spin_density
 _atom_site_hle17_ddec_sum_bond_order
 _atom_site_hle17_magmom
 _atom_site_hse06_10hf_bader_spin_density
 _atom_site_hse06_10hf_ddec_charge
 _atom_site_hse06_10hf_ddec_spin_density
 _atom_site_hse06_10hf_ddec_sum_bond_order
 _atom_site_hse06_10hf_magmom
 _atom_site_hse06_bader_spin_density
 _atom_site_hse06_ddec_charge
 _atom_site_hse06_ddec_spin_density
 _atom_site_hse06_ddec_sum_bond_order
 _atom_site_hse06_magmom
 _atom_site_pbe_bader_spin_density
 _atom_site_pbe_cm5_charge
 _atom_site_pbe_ddec_charge
 _atom_site_pbe_ddec_spin_density
 _atom_site_pbe_ddec_sum_bond_order
 _atom_site_pbe_magmom
Ag  Ag0  1  0.92649594  0.80569791  0.66658195  1  0  0.407513  0  1.652369  0  0  0.286189  0  2.140251  0  0  0.315707  0  2.089308  0  0  0.27684  0.265723  0  2.175263  0
Ag  Ag1  1  0.92642102  0.69430855  0.83341755  1  0  0.407494  0  1.652332  0  0  0.286146  0  2.140255  0  0  0.31566  0  2.089327  0  0  0.276813  0.265688  0  2.175253  0
Ag  Ag2  1  0.57350087  0.19431524  0.16658264  1  0  0.407467  0  1.652357  0  0  0.286172  0  2.140175  0  0  0.315694  0  2.089229  0  0  0.276874  0.265703  0  2.175185  0
Ag  Ag3  1  0.57356607  0.30568464  0.33341326  1  0  0.40748  0  1.652508  0  0  0.286143  0  2.140422  0  0  0.315657  0  2.089484  0  0  0.276809  0.265676  0  2.175429  0
Ag  Ag4  1  0.07355471  0.19433384  0.33340731  1  0  0.407378  0  1.652601  0  0  0.28612  0  2.140387  0  0  0.315643  0  2.089445  0  0  0.276774  0.265658  0  2.175395  0
Ag  Ag5  1  0.07359645  0.30565091  0.16659975  1  0  0.407366  0  1.652554  0  0  0.286062  0  2.140421  0  0  0.315591  0  2.089473  0  0  0.276708  0.265598  0  2.175431  0
Ag  Ag6  1  0.42642003  0.80564703  0.83338366  1  0  0.407295  0  1.652855  0  0  0.285971  0  2.140857  0  0  0.315478  0  2.089912  0  0  0.276704  0.265518  0  2.175862  0
Ag  Ag7  1  0.42636839  0.69437729  0.66661233  1  0  0.407343  0  1.652852  0  0  0.286102  0  2.140721  0  0  0.315616  0  2.089766  0  0  0.276704  0.26565  0  2.175727  0
H  H8  1  0.25659533  0.79612539  0.51583035  1  0  0.072137  0  0.980668  0  0  0.074616  0  1.062219  0  0  0.077218  0  1.059667  0  0  0.099999  0.072658  0  1.064162  0
H  H9  1  0.25657459  0.70388164  0.98416841  1  0  0.072264  0  0.980565  0  0  0.074726  0  1.062108  0  0  0.077334  0  1.059549  0  0  0.100054  0.072752  0  1.064091  0
H  H10  1  0.24341204  0.20388696  0.01581755  1  0  0.072225  0  0.980627  0  0  0.074703  0  1.062152  0  0  0.077311  0  1.059589  0  0  0.100046  0.072741  0  1.064102  0
H  H11  1  0.24340589  0.29612490  0.48416444  1  0  0.072209  0  0.980569  0  0  0.074716  0  1.062076  0  0  0.077316  0  1.059525  0  0  0.100046  0.072753  0  1.064022  0
H  H12  1  0.74343722  0.20389654  0.48415189  1  0  0.072386  0  0.98022  0  0  0.074773  0  1.061925  0  0  0.07738  0  1.059365  0  0  0.100023  0.072808  0  1.063877  0
H  H13  1  0.74343834  0.29609817  0.01584380  1  0  0.072293  0  0.980375  0  0  0.074735  0  1.061955  0  0  0.077331  0  1.059428  0  0  0.100015  0.072772  0  1.063902  0
H  H14  1  0.75655714  0.79609215  0.98413665  1  0  0.072203  0  0.980542  0  0  0.074664  0  1.06211  0  0  0.077261  0  1.059586  0  0  0.100074  0.072702  0  1.064057  0
H  H15  1  0.75657383  0.70390685  0.51587518  1  0  0.072341  0  0.980263  0  0  0.074809  0  1.061797  0  0  0.077406  0  1.059271  0  0  0.100125  0.072845  0  1.063744  0
H  H16  1  0.46920294  0.80909644  0.39124389  1  0  0.106004  0  0.971217  0  0  0.125994  0  1.033171  0  0  0.12655  0  1.035299  0  0  0.088088  0.125564  0  1.03167  0
H  H17  1  0.46918724  0.69087781  0.10876461  1  0  0.105873  0  0.971231  0  0  0.125727  0  1.033339  0  0  0.126282  0  1.035469  0  0  0.087955  0.125298  0  1.031832  0
H  H18  1  0.03083799  0.19087698  0.89121756  1  0  0.106005  0  0.971424  0  0  0.125841  0  1.033479  0  0  0.12639  0  1.035622  0  0  0.087976  0.12541  0  1.031977  0
H  H19  1  0.03083965  0.30910239  0.60877509  1  0  0.106002  0  0.971184  0  0  0.125873  0  1.033271  0  0  0.126428  0  1.035402  0  0  0.088016  0.125441  0  1.031769  0
H  H20  1  0.53079792  0.19091285  0.60872561  1  0  0.105788  0  0.971587  0  0  0.125871  0  1.033442  0  0  0.126426  0  1.035572  0  0  0.088035  0.125442  0  1.031938  0
H  H21  1  0.53080909  0.30910481  0.89125588  1  0  0.105967  0  0.971368  0  0  0.125966  0  1.033296  0  0  0.12652  0  1.035426  0  0  0.088079  0.125536  0  1.031792  0
H  H22  1  0.96917042  0.80909371  0.10873154  1  0  0.105933  0  0.971407  0  0  0.125899  0  1.0334  0  0  0.126451  0  1.035534  0  0  0.088025  0.125471  0  1.031896  0
H  H23  1  0.96921250  0.69089006  0.39128557  1  0  0.10592  0  0.971626  0  0  0.125981  0  1.033461  0  0  0.126538  0  1.035588  0  0  0.088029  0.125552  0  1.031956  0
H  H24  1  0.32376341  0.80423210  0.29623554  1  0  0.104339  0  0.955289  0  0  0.12782  0  1.012869  0  0  0.128784  0  1.013062  0  0  0.090035  0.127074  0  1.012743  0
H  H25  1  0.32376987  0.69573246  0.20375994  1  0  0.104193  0  0.955418  0  0  0.127668  0  1.012975  0  0  0.128621  0  1.013179  0  0  0.090028  0.126921  0  1.01285  0
H  H26  1  0.17626297  0.19572935  0.79622165  1  0  0.10438  0  0.955506  0  0  0.127804  0  1.013091  0  0  0.128769  0  1.013276  0  0  0.090072  0.127057  0  1.012968  0
H  H27  1  0.17629271  0.30426463  0.70377636  1  0  0.104174  0  0.95557  0  0  0.127683  0  1.013086  0  0  0.128644  0  1.013286  0  0  0.090047  0.126938  0  1.01296  0
H  H28  1  0.67619369  0.19577860  0.70373459  1  0  0.104237  0  0.955248  0  0  0.127742  0  1.012844  0  0  0.128704  0  1.013036  0  0  0.090057  0.126995  0  1.012722  0
H  H29  1  0.67622949  0.30424314  0.79625482  1  0  0.104232  0  0.95529  0  0  0.127708  0  1.012879  0  0  0.128657  0  1.013083  0  0  0.090029  0.126964  0  1.012755  0
H  H30  1  0.82373941  0.80423221  0.20373509  1  0  0.10424  0  0.95524  0  0  0.127759  0  1.012788  0  0  0.128722  0  1.012974  0  0  0.090037  0.127013  0  1.012666  0
H  H31  1  0.82378509  0.69577905  0.29628940  1  0  0.104448  0  0.955087  0  0  0.127878  0  1.012716  0  0  0.128846  0  1.012898  0  0  0.090109  0.12713  0  1.012595  0
H  H32  1  0.43177348  0.91199383  0.32843508  1  0  0.108946  0  0.975402  0  0  0.128723  0  1.041256  0  0  0.129672  0  1.041313  0  0  0.084512  0.127915  0  1.041285  0
H  H33  1  0.43177078  0.58797885  0.17155563  1  0  0.108971  0  0.975481  0  0  0.128631  0  1.04142  0  0  0.129601  0  1.04145  0  0  0.084471  0.127825  0  1.041451  0
H  H34  1  0.06826870  0.08797603  0.82841616  1  0  0.10909  0  0.9757  0  0  0.128784  0  1.041562  0  0  0.129752  0  1.041599  0  0  0.084561  0.127979  0  1.041588  0
H  H35  1  0.06823978  0.41201193  0.67157578  1  0  0.109001  0  0.975521  0  0  0.128702  0  1.041421  0  0  0.12967  0  1.041461  0  0  0.084489  0.127898  0  1.041447  0
H  H36  1  0.56821229  0.08801897  0.67153569  1  0  0.108816  0  0.975422  0  0  0.1287  0  1.041212  0  0  0.129631  0  1.041282  0  0  0.084542  0.127895  0  1.041236  0
H  H37  1  0.56824517  0.41199815  0.82845721  1  0  0.108851  0  0.9754  0  0  0.128659  0  1.041221  0  0  0.129621  0  1.041255  0  0  0.084513  0.127854  0  1.041248  0
H  H38  1  0.93171708  0.91198764  0.17154058  1  0  0.108839  0  0.97539  0  0  0.128723  0  1.041165  0  0  0.129669  0  1.04122  0  0  0.084594  0.127936  0  1.041176  0
H  H39  1  0.93174297  0.58801420  0.32845555  1  0  0.108969  0  0.975347  0  0  0.128823  0  1.041111  0  0  0.129765  0  1.041171  0  0  0.08458  0.128037  0  1.041121  0
H  H40  1  0.04057660  0.95847262  0.30240148  1  0  0.096998  0  0.958079  0  0  0.106779  0  1.023625  0  0  0.109831  0  1.021101  0  0  0.097126  0.104437  0  1.025657  0
H  H41  1  0.04058836  0.54149939  0.19759245  1  0  0.097014  0  0.957998  0  0  0.106695  0  1.023677  0  0  0.109747  0  1.02115  0  0  0.097066  0.104352  0  1.025708  0
H  H42  1  0.45948770  0.04149417  0.80238539  1  0  0.096943  0  0.957999  0  0  0.106726  0  1.023558  0  0  0.10978  0  1.02103  0  0  0.097076  0.104377  0  1.025603  0
H  H43  1  0.45943931  0.45850218  0.69761035  1  0  0.096927  0  0.95799  0  0  0.106769  0  1.023493  0  0  0.109823  0  1.020965  0  0  0.097071  0.104423  0  1.025536  0
H  H44  1  0.95940314  0.04152754  0.69758268  1  0  0.097031  0  0.957891  0  0  0.106756  0  1.023538  0  0  0.109815  0  1.020998  0  0  0.097047  0.10441  0  1.025577  0
H  H45  1  0.95942910  0.45847340  0.80242167  1  0  0.097016  0  0.957854  0  0  0.106804  0  1.023401  0  0  0.109858  0  1.020875  0  0  0.097059  0.104455  0  1.025446  0
H  H46  1  0.54051920  0.95846950  0.19758218  1  0  0.097074  0  0.957885  0  0  0.106831  0  1.023452  0  0  0.109883  0  1.020923  0  0  0.097092  0.104481  0  1.025493  0
H  H47  1  0.54057361  0.54153238  0.30242035  1  0  0.097058  0  0.957875  0  0  0.106821  0  1.023449  0  0  0.109875  0  1.020922  0  0  0.097042  0.104473  0  1.02549  0
H  H48  1  0.72624614  0.98954402  0.38553897  1  0  0.100564  0  0.983385  0  0  0.108298  0  1.049144  0  0  0.111575  0  1.047728  0  0  0.090418  0.105886  0  1.050315  0
H  H49  1  0.72623504  0.51045446  0.11445876  1  0  0.100588  0  0.983376  0  0  0.108305  0  1.049166  0  0  0.111576  0  1.047751  0  0  0.090434  0.105896  0  1.050336  0
H  H50  1  0.77380383  0.01044408  0.88553915  1  0  0.100603  0  0.983303  0  0  0.108366  0  1.049062  0  0  0.111631  0  1.047657  0  0  0.090548  0.105962  0  1.050234  0
H  H51  1  0.77376377  0.48956659  0.61446554  1  0  0.100774  0  0.983103  0  0  0.108388  0  1.048991  0  0  0.111656  0  1.047583  0  0  0.090537  0.105977  0  1.050163  0
H  H52  1  0.27375472  0.01046317  0.61445475  1  0  0.100625  0  0.983369  0  0  0.10832  0  1.04917  0  0  0.111591  0  1.047759  0  0  0.090451  0.105912  0  1.050332  0
H  H53  1  0.27377336  0.48952395  0.88555599  1  0  0.100596  0  0.983436  0  0  0.108225  0  1.049307  0  0  0.111492  0  1.047899  0  0  0.090505  0.105825  0  1.050471  0
H  H54  1  0.22619251  0.98953292  0.11443672  1  0  0.100456  0  0.983457  0  0  0.108203  0  1.049224  0  0  0.111475  0  1.047807  0  0  0.09044  0.105804  0  1.050389  0
H  H55  1  0.22621747  0.51048411  0.38555050  1  0  0.100494  0  0.98343  0  0  0.108191  0  1.04926  0  0  0.111465  0  1.047841  0  0  0.090434  0.105784  0  1.050421  0
H  H56  1  0.69074000  0.91820053  0.53131552  1  0  0.074067  0  0.972336  0  0  0.083141  0  1.037597  0  0  0.085522  0  1.036016  0  0  0.095917  0.081404  0  1.03875  0
H  H57  1  0.69070934  0.58182502  0.96869545  1  0  0.073988  0  0.972414  0  0  0.083158  0  1.037598  0  0  0.085544  0  1.036009  0  0  0.095922  0.081426  0  1.038748  0
H  H58  1  0.80926739  0.08181224  0.03131976  1  0  0.074018  0  0.972469  0  0  0.083152  0  1.037666  0  0  0.085535  0  1.036082  0  0  0.095937  0.081421  0  1.038814  0
H  H59  1  0.80925358  0.41820435  0.46868572  1  0  0.074046  0  0.972368  0  0  0.083094  0  1.037656  0  0  0.085477  0  1.03607  0  0  0.095873  0.081355  0  1.038812  0
H  H60  1  0.30929556  0.08182070  0.46868776  1  0  0.073938  0  0.972401  0  0  0.083149  0  1.037509  0  0  0.08553  0  1.035929  0  0  0.095905  0.081416  0  1.038659  0
H  H61  1  0.30930057  0.41815479  0.03132186  1  0  0.073986  0  0.97228  0  0  0.083289  0  1.037331  0  0  0.085678  0  1.035735  0  0  0.095942  0.081544  0  1.038482  0
H  H62  1  0.19070330  0.91816757  0.96865929  1  0  0.073991  0  0.972357  0  0  0.083242  0  1.037444  0  0  0.085624  0  1.035863  0  0  0.095926  0.081511  0  1.038584  0
H  H63  1  0.19070049  0.58185407  0.53132841  1  0  0.073954  0  0.972327  0  0  0.083297  0  1.037336  0  0  0.085688  0  1.035737  0  0  0.095906  0.081552  0  1.038491  0
C  C64  1  0.14074525  0.83767259  0.48381868  1  0  0.045842  0  3.685163  0  0  0.011131  0  3.93119  0  0  0.016041  0  3.950158  0  0  0.03285  0.007932  0  3.918467  0
C  C65  1  0.14071550  0.66233895  0.01617660  1  0  0.045675  0  3.684837  0  0  0.01106  0  3.930898  0  0  0.01597  0  3.949865  0  0  0.032885  0.007862  0  3.918163  0
C  C66  1  0.35928660  0.16233888  0.98381166  1  0  0.045564  0  3.685095  0  0  0.010827  0  3.93116  0  0  0.015735  0  3.950125  0  0  0.032718  0.007629  0  3.918436  0
C  C67  1  0.35926615  0.33767549  0.51617573  1  0  0.045725  0  3.68492  0  0  0.010947  0  3.931021  0  0  0.015858  0  3.94999  0  0  0.032811  0.007749  0  3.918296  0
C  C68  1  0.85929182  0.16235355  0.51616867  1  0  0.045497  0  3.685032  0  0  0.010903  0  3.931016  0  0  0.015806  0  3.949989  0  0  0.03293  0.007707  0  3.918292  0
C  C69  1  0.85928687  0.33764648  0.98383816  1  0  0.045623  0  3.684825  0  0  0.01114  0  3.930835  0  0  0.016041  0  3.9498  0  0  0.03297  0.007951  0  3.9181  0
C  C70  1  0.64069766  0.83764514  0.01614827  1  0  0.045713  0  3.685013  0  0  0.011207  0  3.931133  0  0  0.016105  0  3.950104  0  0  0.032842  0.008017  0  3.918398  0
C  C71  1  0.64071207  0.66235766  0.48385879  1  0  0.045783  0  3.685224  0  0  0.011212  0  3.931273  0  0  0.016109  0  3.950247  0  0  0.032842  0.008018  0  3.918542  0
C  C72  1  0.17187463  0.87094112  0.40093335  1  0  0.095474  0  3.756074  0  0  0.12839  0  3.984601  0  0  0.125152  0  4.01015  0  0  -0.005919  0.130252  0  3.96739  0
C  C73  1  0.17185086  0.62904026  0.09905529  1  0  0.09547  0  3.756237  0  0  0.128125  0  3.985009  0  0  0.124885  0  4.010561  0  0  -0.005989  0.129989  0  3.967793  0
C  C74  1  0.32818387  0.12904451  0.90092625  1  0  0.095691  0  3.756426  0  0  0.128587  0  3.98486  0  0  0.12535  0  4.010411  0  0  -0.005802  0.130447  0  3.967648  0
C  C75  1  0.32815094  0.37095931  0.59906713  1  0  0.095731  0  3.755859  0  0  0.128646  0  3.984363  0  0  0.125409  0  4.009916  0  0  -0.005774  0.130507  0  3.967151  0
C  C76  1  0.82813830  0.12907519  0.59905081  1  0  0.095631  0  3.756453  0  0  0.128311  0  3.985279  0  0  0.125074  0  4.010829  0  0  -0.00601  0.130169  0  3.968069  0
C  C77  1  0.82816057  0.37093042  0.90095437  1  0  0.095664  0  3.756102  0  0  0.128104  0  3.985244  0  0  0.124868  0  4.010789  0  0  -0.006019  0.129962  0  3.968032  0
C  C78  1  0.67181399  0.87092196  0.09903750  1  0  0.095763  0  3.755911  0  0  0.128056  0  3.985244  0  0  0.12482  0  4.010788  0  0  -0.005944  0.129915  0  3.968034  0
C  C79  1  0.67183633  0.62908086  0.40097312  1  0  0.095438  0  3.756408  0  0  0.128049  0  3.985334  0  0  0.124812  0  4.01088  0  0  -0.005984  0.129907  0  3.968129  0
C  C80  1  0.35990118  0.84763420  0.35221845  1  0  -0.330072  0  3.729318  0  0  -0.407131  0  3.953569  0  0  -0.409808  0  3.965375  0  0  -0.240111  -0.404901  0  3.94542  0
C  C81  1  0.35987518  0.65233260  0.14776992  1  0  -0.329827  0  3.729503  0  0  -0.406531  0  3.95381  0  0  -0.409223  0  3.965618  0  0  -0.239958  -0.404298  0  3.945643  0
C  C82  1  0.14015709  0.15233040  0.85220605  1  0  -0.330412  0  3.730076  0  0  -0.407179  0  3.954345  0  0  -0.409877  0  3.966145  0  0  -0.240198  -0.404949  0  3.94619  0
C  C83  1  0.14014646  0.34765572  0.64778823  1  0  -0.33014  0  3.729778  0  0  -0.407049  0  3.954112  0  0  -0.40975  0  3.965917  0  0  -0.240161  -0.404814  0  3.945949  0
C  C84  1  0.64009667  0.15237509  0.64774850  1  0  -0.329733  0  3.729614  0  0  -0.406872  0  3.953841  0  0  -0.409529  0  3.965662  0  0  -0.240111  -0.404643  0  3.945688  0
C  C85  1  0.64013021  0.34763879  0.85224483  1  0  -0.33002  0  3.729352  0  0  -0.40694  0  3.953715  0  0  -0.409607  0  3.965513  0  0  -0.240163  -0.404712  0  3.945566  0
C  C86  1  0.85984227  0.84762695  0.14774942  1  0  -0.330016  0  3.729345  0  0  -0.406955  0  3.953728  0  0  -0.409613  0  3.965536  0  0  -0.240203  -0.40475  0  3.945557  0
C  C87  1  0.85987400  0.65236831  0.35226732  1  0  -0.330345  0  3.729686  0  0  -0.407384  0  3.953998  0  0  -0.410052  0  3.965802  0  0  -0.240304  -0.405171  0  3.94583  0
C  C88  1  0.02026334  0.92712009  0.36529674  1  0  -0.070564  0  3.688954  0  0  -0.096018  0  3.934022  0  0  -0.094451  0  3.952668  0  0  -0.072626  -0.09679  0  3.921431  0
C  C89  1  0.02025187  0.57286689  0.13470099  1  0  -0.070486  0  3.688936  0  0  -0.095766  0  3.934064  0  0  -0.094202  0  3.952716  0  0  -0.07249  -0.096528  0  3.921453  0
C  C90  1  0.47979517  0.07286289  0.86528329  1  0  -0.07031  0  3.689213  0  0  -0.095679  0  3.934157  0  0  -0.094117  0  3.952811  0  0  -0.07243  -0.096433  0  3.921535  0
C  C91  1  0.47974991  0.42714376  0.63470865  1  0  -0.070394  0  3.688794  0  0  -0.095882  0  3.933795  0  0  -0.09432  0  3.95245  0  0  -0.072544  -0.096658  0  3.921212  0
C  C92  1  0.97973601  0.07289411  0.63469315  1  0  -0.070607  0  3.688956  0  0  -0.095946  0  3.934009  0  0  -0.094384  0  3.952665  0  0  -0.072506  -0.09672  0  3.921426  0
C  C93  1  0.97975352  0.42710941  0.86531441  1  0  -0.070599  0  3.688571  0  0  -0.09591  0  3.933718  0  0  -0.094351  0  3.952369  0  0  -0.072472  -0.096675  0  3.921134  0
C  C94  1  0.52020721  0.92710780  0.13468365  1  0  -0.07069  0  3.688476  0  0  -0.095884  0  3.933619  0  0  -0.094317  0  3.952265  0  0  -0.072447  -0.09665  0  3.92103  0
C  C95  1  0.52024038  0.57289712  0.36531504  1  0  -0.070564  0  3.688279  0  0  -0.095895  0  3.933411  0  0  -0.094331  0  3.952058  0  0  -0.072477  -0.09667  0  3.920834  0
C  C96  1  0.84488733  0.94469674  0.41131390  1  0  -0.109058  0  3.757221  0  0  -0.117445  0  4.005095  0  0  -0.123713  0  4.027411  0  0  -0.087818  -0.113324  0  3.990041  0
C  C97  1  0.84487429  0.55529817  0.08868195  1  0  -0.109084  0  3.757164  0  0  -0.117454  0  4.005078  0  0  -0.123709  0  4.027388  0  0  -0.087867  -0.113324  0  3.990012  0
C  C98  1  0.65514964  0.05529022  0.91131605  1  0  -0.109226  0  3.75719  0  0  -0.117697  0  4.005176  0  0  -0.123951  0  4.027483  0  0  -0.088098  -0.113562  0  3.990085  0
C  C99  1  0.65511490  0.44471769  0.58868733  1  0  -0.109395  0  3.75702  0  0  -0.117687  0  4.004936  0  0  -0.123942  0  4.02724  0  0  -0.088025  -0.113567  0  3.989881  0
C  C100  1  0.15510901  0.05530834  0.58867663  1  0  -0.109167  0  3.757222  0  0  -0.117498  0  4.005131  0  0  -0.123762  0  4.02745  0  0  -0.08786  -0.113369  0  3.99006  0
C  C101  1  0.15513714  0.44467813  0.91133089  1  0  -0.108943  0  3.756936  0  0  -0.117224  0  4.004883  0  0  -0.123479  0  4.0272  0  0  -0.087821  -0.113076  0  3.98976  0
C  C102  1  0.34484067  0.94468117  0.08866110  1  0  -0.108843  0  3.757107  0  0  -0.117234  0  4.00502  0  0  -0.123495  0  4.02734  0  0  -0.087902  -0.113089  0  3.989901  0
C  C103  1  0.34486030  0.55533161  0.41133635  1  0  -0.108813  0  3.757223  0  0  -0.117181  0  4.005197  0  0  -0.123442  0  4.027516  0  0  -0.087728  -0.113036  0  3.990087  0
C  C104  1  0.82530797  0.90658400  0.49255817  1  0  0.103071  0  3.722937  0  0  0.073134  0  3.969264  0  0  0.078233  0  3.990131  0  0  0.03188  0.069619  0  3.955437  0
C  C105  1  0.82528865  0.59343151  0.00744406  1  0  0.102979  0  3.723192  0  0  0.072899  0  3.969592  0  0  0.077996  0  3.99046  0  0  0.031777  0.069335  0  3.955853  0
C  C106  1  0.67470422  0.09341975  0.99256199  1  0  0.103074  0  3.723087  0  0  0.073041  0  3.969497  0  0  0.078143  0  3.990354  0  0  0.031806  0.069474  0  3.955766  0
C  C107  1  0.67469211  0.40659002  0.50744075  1  0  0.103119  0  3.722768  0  0  0.073205  0  3.969017  0  0  0.078303  0  3.989879  0  0  0.031935  0.069695  0  3.955183  0
C  C108  1  0.17471251  0.09342669  0.50743427  1  0  0.103127  0  3.722896  0  0  0.073005  0  3.969287  0  0  0.078103  0  3.990155  0  0  0.031839  0.069448  0  3.955534  0
C  C109  1  0.17471522  0.40655251  0.99257389  1  0  0.102944  0  3.72261  0  0  0.07275  0  3.969032  0  0  0.077844  0  3.989901  0  0  0.031694  0.069175  0  3.955339  0
C  C110  1  0.32526647  0.90655936  0.00741579  1  0  0.102835  0  3.72249  0  0  0.072671  0  3.96897  0  0  0.077767  0  3.989834  0  0  0.031665  0.069082  0  3.955288  0
C  C111  1  0.32528158  0.59345156  0.49257720  1  0  0.102857  0  3.722815  0  0  0.072646  0  3.969274  0  0  0.077738  0  3.990145  0  0  0.031613  0.069076  0  3.955562  0
Br  Br112  1  0.52856705  0.87982143  0.68036079  1  0  -0.508695  0  1.336768  0  0  -0.419349  0  1.734187  0  0  -0.443216  0  1.698134  0  0  -0.239  -0.401949  0  1.758627  0
Br  Br113  1  0.52853537  0.62018349  0.81964108  1  0  -0.508673  0  1.336626  0  0  -0.419357  0  1.734053  0  0  -0.443228  0  1.698019  0  0  -0.238995  -0.401934  0  1.758451  0
Br  Br114  1  0.97144646  0.12019321  0.18036309  1  0  -0.508674  0  1.3367  0  0  -0.41935  0  1.734102  0  0  -0.443269  0  1.698139  0  0  -0.239009  -0.401928  0  1.758509  0
Br  Br115  1  0.97147275  0.37980328  0.31964575  1  0  -0.508679  0  1.336659  0  0  -0.419325  0  1.734073  0  0  -0.443214  0  1.698056  0  0  -0.239011  -0.401916  0  1.758497  0
Br  Br116  1  0.47149266  0.12021172  0.31964632  1  0  -0.508654  0  1.33656  0  0  -0.419326  0  1.733957  0  0  -0.443181  0  1.69789  0  0  -0.239012  -0.401911  0  1.75838  0
Br  Br117  1  0.47147907  0.37979842  0.18037113  1  0  -0.508699  0  1.336801  0  0  -0.419345  0  1.73417  0  0  -0.443215  0  1.698125  0  0  -0.239012  -0.401908  0  1.758563  0
Br  Br118  1  0.02853026  0.87978309  0.81964338  1  0  -0.508652  0  1.336893  0  0  -0.41928  0  1.734277  0  0  -0.443141  0  1.69822  0  0  -0.238947  -0.401862  0  1.758693  0
Br  Br119  1  0.02851001  0.62021303  0.68035881  1  0  -0.508692  0  1.336819  0  0  -0.41933  0  1.734161  0  0  -0.443195  0  1.69811  0  0  -0.238964  -0.40192  0  1.758603  0
N  N120  1  0.97164795  0.85473205  0.52885863  1  0  -0.296519  0  3.340087  0  0  -0.214283  0  3.618047  0  0  -0.2331  0  3.637148  0  0  -0.342155  -0.201514  0  3.604974  0
N  N121  1  0.97161133  0.64528107  0.97113852  1  0  -0.296335  0  3.339991  0  0  -0.214022  0  3.617902  0  0  -0.232838  0  3.637004  0  0  -0.342065  -0.201244  0  3.604818  0
N  N122  1  0.52836751  0.14527802  0.02886225  1  0  -0.29638  0  3.340135  0  0  -0.214064  0  3.618053  0  0  -0.232876  0  3.637149  0  0  -0.34207  -0.20129  0  3.604974  0
N  N123  1  0.52835862  0.35473485  0.47113728  1  0  -0.296511  0  3.340121  0  0  -0.214199  0  3.617986  0  0  -0.233012  0  3.637084  0  0  -0.342149  -0.201432  0  3.604913  0
N  N124  1  0.02839063  0.14528777  0.47113318  1  0  -0.296338  0  3.340013  0  0  -0.214027  0  3.617936  0  0  -0.232839  0  3.637037  0  0  -0.342131  -0.201252  0  3.604853  0
N  N125  1  0.02840010  0.35469663  0.02887432  1  0  -0.29634  0  3.33961  0  0  -0.214059  0  3.617617  0  0  -0.232874  0  3.636722  0  0  -0.342042  -0.201279  0  3.60452  0
N  N126  1  0.47160318  0.85470320  0.97110660  1  0  -0.296214  0  3.339498  0  0  -0.213877  0  3.617393  0  0  -0.232689  0  3.636502  0  0  -0.341947  -0.201099  0  3.604301  0
N  N127  1  0.47160602  0.64530953  0.52889278  1  0  -0.296287  0  3.339677  0  0  -0.214022  0  3.617707  0  0  -0.232836  0  3.636815  0  0  -0.341948  -0.201242  0  3.604612  0
