# generated using pymatgen
data_AlH7(C7O3)2
_symmetry_space_group_name_H-M   'P 1'
_cell_length_a   6.69071459
_cell_length_b   19.39826943
_cell_length_c   21.50622567
_cell_angle_alpha   92.96908272
_cell_angle_beta   90.00035713
_cell_angle_gamma   89.99966156
_symmetry_Int_Tables_number   1
_chemical_formula_structural   AlH7(C7O3)2
_chemical_formula_sum   'Al4 H28 C56 O24'
_cell_volume   2787.50923387
_cell_formula_units_Z   4
loop_
 _symmetry_equiv_pos_site_id
 _symmetry_equiv_pos_as_xyz
  1  'x, y, z'
loop_
 _atom_site_type_symbol
 _atom_site_label
 _atom_site_symmetry_multiplicity
 _atom_site_fract_x
 _atom_site_fract_y
 _atom_site_fract_z
 _atom_site_occupancy
 _atom_site_pbe_bader_charge
 _atom_site_pbe_bader_spin_density
 _atom_site_pbe_cm5_charge
 _atom_site_pbe_ddec_charge
 _atom_site_pbe_ddec_spin_density
 _atom_site_pbe_ddec_sum_bond_order
 _atom_site_pbe_magmom
Al  Al0  1  0.26626747  0.25137945  0.25039656  1  2.502323  0  0.404797  1.650466  0  2.574725  0
Al  Al1  1  0.73368548  0.74861692  0.74963963  1  2.502287  0  0.404732  1.650443  0  2.574968  0
Al  Al2  1  0.76626199  0.24861562  0.24963501  1  2.50227  0  0.404666  1.650846  0  2.574405  0
Al  Al3  1  0.23368050  0.75137579  0.75039511  1  2.502726  0  0.404647  1.650471  0  2.574792  0
H  H4  1  0.27560885  0.65414616  0.91626643  1  0.134039  0  0.112383  0.124112  0  1.007122  0
H  H5  1  0.72440388  0.34585201  0.08376465  1  0.133964  0  0.112295  0.124087  0  1.006873  0
H  H6  1  0.77554489  0.84584370  0.58375963  1  0.133787  0  0.112389  0.12415  0  1.007022  0
H  H7  1  0.22433183  0.15413732  0.41625880  1  0.13314  0  0.112295  0.123994  0  1.007183  0
H  H8  1  0.70444332  0.57390806  0.85563291  1  0.0707  0  0.107117  0.115404  0  0.992683  0
H  H9  1  0.29555297  0.42609841  0.14440939  1  0.071609  0  0.107175  0.115439  0  0.992811  0
H  H10  1  0.20437435  0.92607967  0.64439748  1  0.071192  0  0.107227  0.115476  0  0.992717  0
H  H11  1  0.79548294  0.07388854  0.35562227  1  0.071304  0  0.107114  0.115479  0  0.992576  0
H  H12  1  0.55510386  0.47471683  0.90565998  1  0.06614  0  0.10453  0.121813  0  1.018941  0
H  H13  1  0.44490588  0.52528266  0.09437670  1  0.065776  0  0.104354  0.121705  0  1.019268  0
H  H14  1  0.05497440  0.02524416  0.59434696  1  0.066197  0  0.104503  0.121985  0  1.019051  0
H  H15  1  0.94476631  0.97467239  0.40563016  1  0.067147  0  0.104555  0.121807  0  1.019154  0
H  H16  1  0.43614295  0.35950274  0.90218789  1  0.033325  0  0.099988  0.097423  0  0.982156  0
H  H17  1  0.29658758  0.42327155  0.94773967  1  0.075307  0  0.095906  0.094021  0  1.035636  0
H  H18  1  0.27834145  0.33411904  0.96488001  1  0.078584  0  0.114215  0.125016  0  0.961397  0
H  H19  1  0.70341020  0.57672565  0.05231282  1  0.075708  0  0.09579  0.094049  0  1.035567  0
H  H20  1  0.56384288  0.64050169  0.09785487  1  0.032862  0  0.099949  0.097432  0  0.981716  0
H  H21  1  0.72168025  0.66587729  0.03516550  1  0.081079  0  0.114257  0.125039  0  0.961355  0
H  H22  1  0.93583599  0.14044189  0.59780108  1  0.03796  0  0.100126  0.097703  0  0.982005  0
H  H23  1  0.79643610  0.07663686  0.55223779  1  0.074237  0  0.095829  0.09375  0  1.035788  0
H  H24  1  0.77805835  0.16578223  0.53508012  1  0.079451  0  0.114351  0.125307  0  0.96163  0
H  H25  1  0.20324633  0.92318373  0.44767738  1  0.07673  0  0.095822  0.094018  0  1.035836  0
H  H26  1  0.06354901  0.85944163  0.40213491  1  0.032012  0  0.100025  0.09755  0  0.981859  0
H  H27  1  0.22139839  0.83401892  0.46480749  1  0.08023  0  0.114015  0.124914  0  0.961327  0
H  H28  1  0.52153013  0.34035283  0.24572071  1  0.64109  0  0.360189  0.439556  0  0.839093  0
H  H29  1  0.47843328  0.65962422  0.75420972  1  0.640978  0  0.360075  0.439481  0  0.839095  0
H  H30  1  0.02152994  0.15963484  0.25425624  1  0.641081  0  0.36009  0.439393  0  0.839178  0
H  H31  1  0.97842899  0.84035191  0.74572266  1  0.64111  0  0.360124  0.439591  0  0.839044  0
C  C32  1  0.51442641  0.16553931  0.16269972  1  1.669256  0  0.27349  0.69503  0  4.189961  0
C  C33  1  0.48551757  0.83445288  0.83732528  1  1.668705  0  0.273146  0.69415  0  4.191306  0
C  C34  1  0.01444235  0.33444888  0.33732839  1  1.668625  0  0.273328  0.694822  0  4.190567  0
C  C35  1  0.98549565  0.66553478  0.66270122  1  1.668758  0  0.273393  0.695188  0  4.190163  0
C  C36  1  0.51401655  0.16758997  0.33054903  1  1.550982  0  0.272084  0.653412  0  4.078617  0
C  C37  1  0.48590650  0.83240968  0.66949091  1  1.550635  0  0.271998  0.653498  0  4.078475  0
C  C38  1  0.01406155  0.33241381  0.16949174  1  1.550525  0  0.272319  0.654061  0  4.078272  0
C  C39  1  0.98592129  0.66759313  0.83054963  1  1.549685  0  0.271885  0.652905  0  4.079543  0
C  C40  1  0.15346767  0.61799844  0.92190727  1  -0.014108  0  -0.087095  -0.141828  0  3.945001  0
C  C41  1  0.84653908  0.38200866  0.07812712  1  -0.014379  0  -0.086733  -0.14167  0  3.944725  0
C  C42  1  0.65340872  0.88199212  0.57812198  1  -0.013751  0  -0.086916  -0.14179  0  3.944691  0
C  C43  1  0.34645455  0.11798281  0.42189827  1  -0.013756  0  -0.086767  -0.141426  0  3.945283  0
C  C44  1  0.98965046  0.61818209  0.88131243  1  0.007237  0  -0.019098  -0.043426  0  4.021487  0
C  C45  1  0.01034284  0.38182522  0.11872615  1  0.007254  0  -0.019466  -0.04373  0  4.021399  0
C  C46  1  0.48960404  0.88181783  0.61872160  1  0.007351  0  -0.019303  -0.043403  0  4.021186  0
C  C47  1  0.51028165  0.11817047  0.38130804  1  0.007129  0  -0.019263  -0.043666  0  4.02243  0
C  C48  1  0.83104416  0.57212499  0.88741883  1  -0.036548  0  -0.082253  -0.142389  0  3.919757  0
C  C49  1  0.16895213  0.42787921  0.11261927  1  -0.038208  0  -0.082411  -0.142865  0  3.920849  0
C  C50  1  0.33097367  0.92786664  0.61260702  1  -0.03833  0  -0.082687  -0.143064  0  3.920152  0
C  C51  1  0.66886419  0.07210576  0.38740392  1  -0.036343  0  -0.082263  -0.1427  0  3.920521  0
C  C52  1  0.83495118  0.52325241  0.93325791  1  0.0245  0  -0.008132  0.102958  0  4.060422  0
C  C53  1  0.16504361  0.47675148  0.06678438  1  0.008518  0  -0.008073  0.102749  0  4.060251  0
C  C54  1  0.33484908  0.97672550  0.56676137  1  0.008197  0  -0.007771  0.103787  0  4.060555  0
C  C55  1  0.66494993  0.02322537  0.43323176  1  0.008813  0  -0.008088  0.102992  0  4.060168  0
C  C56  1  0.99900831  0.52382784  0.97597266  1  -0.046579  0  -0.00751  -0.018631  0  3.969068  0
C  C57  1  0.00099246  0.47617291  0.02406868  1  0.01667  0  -0.007411  -0.016545  0  3.967145  0
C  C58  1  0.49890040  0.97614192  0.52404542  1  0.016816  0  -0.007782  -0.018996  0  3.970018  0
C  C59  1  0.50087319  0.02380006  0.47594533  1  -0.047366  0  -0.007328  -0.017631  0  3.96919  0
C  C60  1  0.15771983  0.57232627  0.97021726  1  -0.029514  0  -0.013804  -0.016665  0  4.030958  0
C  C61  1  0.84228692  0.42767984  0.02981806  1  -0.030318  0  -0.013632  -0.016384  0  4.03018  0
C  C62  1  0.65760259  0.92765454  0.52980265  1  -0.02993  0  -0.013639  -0.016021  0  4.030492  0
C  C63  1  0.34216801  0.07229185  0.47019371  1  -0.030107  0  -0.013952  -0.016756  0  4.031262  0
C  C64  1  0.67811462  0.47381267  0.93872035  1  0.020478  0  -0.120044  -0.298792  0  4.018417  0
C  C65  1  0.32188915  0.52618902  0.06131913  1  0.036837  0  -0.120045  -0.299087  0  4.018472  0
C  C66  1  0.17799716  0.02615398  0.56128669  1  0.037022  0  -0.120084  -0.299452  0  4.018851  0
C  C67  1  0.82175850  0.97377597  0.43869050  1  0.035798  0  -0.120222  -0.298766  0  4.01856  0
C  C68  1  0.68097383  0.42752517  0.98488869  1  0.408204  0  0.085281  0.208216  0  4.08074  0
C  C69  1  0.31904787  0.57247616  0.01514381  1  0.408349  0  0.085422  0.208954  0  4.080066  0
C  C70  1  0.18084287  0.07244029  0.51511510  1  0.40856  0  0.085795  0.209428  0  4.0802  0
C  C71  1  0.81889785  0.92747918  0.48485878  1  0.407972  0  0.08525  0.208265  0  4.08072  0
C  C72  1  0.98896345  0.61549638  0.61072984  1  0.228655  0  0.000225  -0.131978  0  3.827141  0
C  C73  1  0.01095363  0.38449237  0.38929841  1  0.229328  0  0.000249  -0.131806  0  3.826592  0
C  C74  1  0.48893992  0.88450882  0.88928653  1  0.230063  0  0.0005  -0.131302  0  3.82669  0
C  C75  1  0.51096669  0.11551338  0.11072048  1  0.228145  0  6e-06  -0.132033  0  3.826837  0
C  C76  1  0.99256256  0.57121700  0.56791080  1  -0.323902  0  -0.010941  0.022124  0  4.265486  0
C  C77  1  0.00734405  0.42876881  0.43212068  1  -0.246487  0  -0.010925  0.021934  0  4.265098  0
C  C78  1  0.49249102  0.92879787  0.93210284  1  -0.32375  0  -0.01098  0.021523  0  4.26525  0
C  C79  1  0.50729154  0.07124472  0.06788938  1  -0.245333  0  -0.010739  0.021961  0  4.265042  0
C  C80  1  0.99736050  0.52253825  0.52132795  1  0.1071  0  -0.001726  -0.00462  0  4.194018  0
C  C81  1  0.00253266  0.47744928  0.47870680  1  -0.168379  0  -0.001592  -0.00409  0  4.193889  0
C  C82  1  0.49727053  0.97748620  0.97868111  1  0.107319  0  -0.001594  -0.003938  0  4.194217  0
C  C83  1  0.50245972  0.02256816  0.02129954  1  -0.170229  0  -0.001852  -0.004423  0  4.194445  0
C  C84  1  0.37849382  0.37420404  0.94899301  1  0.391437  0  -0.132789  -0.168226  0  3.903396  0
C  C85  1  0.62151143  0.62579369  0.05104971  1  0.388294  0  -0.132928  -0.16851  0  3.903135  0
C  C86  1  0.87827321  0.12572223  0.55098444  1  0.387068  0  -0.133252  -0.168837  0  3.903591  0
C  C87  1  0.12128965  0.87412794  0.44893461  1  0.388456  0  -0.132654  -0.168241  0  3.903683  0
O  O88  1  0.68421907  0.18404183  0.30899753  1  -1.264637  0  -0.236689  -0.598483  0  2.330854  0
O  O89  1  0.31572192  0.81595754  0.69103682  1  -1.264634  0  -0.236286  -0.598223  0  2.331406  0
O  O90  1  0.18421880  0.31596358  0.19104119  1  -1.264685  0  -0.236482  -0.598362  0  2.331841  0
O  O91  1  0.81574760  0.68403959  0.80899691  1  -1.263898  0  -0.236401  -0.598061  0  2.331755  0
O  O92  1  0.34503720  0.18559950  0.18357166  1  -1.231183  0  -0.225251  -0.57344  0  2.281719  0
O  O93  1  0.65492023  0.81439382  0.81646546  1  -1.230408  0  -0.225299  -0.573167  0  2.282361  0
O  O94  1  0.84501354  0.31439245  0.31646304  1  -1.230718  0  -0.225369  -0.573597  0  2.281628  0
O  O95  1  0.15491100  0.68558820  0.68357819  1  -1.230377  0  -0.225262  -0.573741  0  2.281392  0
O  O96  1  0.34553459  0.18902498  0.31179738  1  -1.252359  0  -0.233908  -0.594785  0  2.346897  0
O  O97  1  0.65441238  0.81098875  0.68824589  1  -1.252519  0  -0.234081  -0.595104  0  2.346555  0
O  O98  1  0.84553548  0.31098586  0.18824393  1  -1.252555  0  -0.234217  -0.595511  0  2.346117  0
O  O99  1  0.15442942  0.68902736  0.81179933  1  -1.251858  0  -0.234037  -0.594765  0  2.346665  0
O  O100  1  0.18641118  0.31645304  0.31715908  1  -1.218455  0  -0.224829  -0.571713  0  2.285651  0
O  O101  1  0.81352832  0.68354074  0.68286686  1  -1.218934  0  -0.224999  -0.571957  0  2.285371  0
O  O102  1  0.68643429  0.18353999  0.18286934  1  -1.218551  0  -0.225032  -0.571981  0  2.284599  0
O  O103  1  0.31352613  0.81644845  0.81715285  1  -1.218544  0  -0.224837  -0.571679  0  2.285316  0
O  O104  1  0.51760398  0.29113724  0.25109390  1  -1.441431  0  -0.446616  -0.998103  0  2.207256  0
O  O105  1  0.48234897  0.70885757  0.74893204  1  -1.44171  0  -0.4465  -0.997841  0  2.207294  0
O  O106  1  0.01759743  0.20885963  0.24893241  1  -1.441481  0  -0.446532  -0.997913  0  2.207316  0
O  O107  1  0.98235103  0.79113616  0.75109261  1  -1.441714  0  -0.446433  -0.997938  0  2.207035  0
O  O108  1  0.53819701  0.37905650  0.99324177  1  -1.082242  0  -0.179464  -0.147517  0  2.588991  0
O  O109  1  0.46182320  0.62094617  0.00679678  1  -1.081242  0  -0.17903  -0.147294  0  2.588799  0
O  O110  1  0.03803136  0.12089238  0.50675153  1  -1.082932  0  -0.179455  -0.147552  0  2.588369  0
O  O111  1  0.96163911  0.87899825  0.49320265  1  -1.080705  0  -0.179155  -0.147467  0  2.589479  0
