# generated using pymatgen
data_CoH12C14(O3F)2
_symmetry_space_group_name_H-M   'P 1'
_cell_length_a   6.51193501
_cell_length_b   7.23689064
_cell_length_c   16.10377010
_cell_angle_alpha   110.02847650
_cell_angle_beta   89.99824454
_cell_angle_gamma   90.00315740
_symmetry_Int_Tables_number   1
_chemical_formula_structural   CoH12C14(O3F)2
_chemical_formula_sum   'Co2 H24 C28 O12 F4'
_cell_volume   713.01197156
_cell_formula_units_Z   2
loop_
 _symmetry_equiv_pos_site_id
 _symmetry_equiv_pos_as_xyz
  1  'x, y, z'
loop_
 _atom_site_type_symbol
 _atom_site_label
 _atom_site_symmetry_multiplicity
 _atom_site_fract_x
 _atom_site_fract_y
 _atom_site_fract_z
 _atom_site_occupancy
 _atom_site_hle17_ddec_charge
 _atom_site_hle17_ddec_spin_density
 _atom_site_hle17_ddec_sum_bond_order
 _atom_site_hle17_magmom
 _atom_site_hse06_10hf_ddec_charge
 _atom_site_hse06_10hf_ddec_spin_density
 _atom_site_hse06_10hf_ddec_sum_bond_order
 _atom_site_hse06_10hf_magmom
 _atom_site_hse06_ddec_charge
 _atom_site_hse06_ddec_spin_density
 _atom_site_hse06_ddec_sum_bond_order
 _atom_site_hse06_magmom
 _atom_site_pbe_cm5_charge
 _atom_site_pbe_ddec_charge
 _atom_site_pbe_ddec_spin_density
 _atom_site_pbe_ddec_sum_bond_order
 _atom_site_pbe_magmom
Co  Co0  1  0.00000308  0.50000143  0.50000080  1  1.151538  -2.884445  1.810308  -2.617  1.121595  -2.862116  2.202771  -2.678  1.191506  -2.905362  2.133697  -2.746  0.650007  1.064702  -2.816386  2.254433  -2.608
Co  Co1  1  0.49999829  0.00000155  0.49999979  1  1.15167  2.884453  1.809723  2.617  1.121815  2.862142  2.202115  2.678  1.191764  2.905379  2.133044  2.746  0.650146  1.0649  2.816416  2.253762  2.608
H  H2  1  0.63144470  0.64388526  0.56586058  1  0.42643  -0.000137  0.874457  0.0  0.400221  -0.000428  0.932264  -0.001  0.41078  -0.000307  0.917248  -0.001  0.300068  0.392531  -0.000505  0.943122  -0.001
H  H3  1  0.13144125  0.85608719  0.43415757  1  0.426202  0.000137  0.874656  0.0  0.400058  0.000427  0.932451  0.001  0.410611  0.000306  0.917447  0.0  0.300037  0.392363  0.000504  0.943316  0.001
H  H4  1  0.36855300  0.35611024  0.43413298  1  0.42645  -0.000137  0.874419  0.0  0.400188  -0.000428  0.932302  -0.001  0.410745  -0.000307  0.917293  -0.001  0.300066  0.392497  -0.000505  0.943163  -0.001
H  H5  1  0.86855031  0.14391672  0.56584390  1  0.426273  0.000137  0.874544  0.0  0.400073  0.000427  0.932425  0.001  0.410626  0.000305  0.917422  0.0  0.300058  0.392381  0.000504  0.943289  0.001
H  H6  1  0.64747956  0.40900727  0.52623915  1  0.41468  0.000152  0.891564  0.001  0.382635  -0.000243  0.964958  0.0  0.394247  -0.000148  0.948162  0.0  0.295544  0.374274  -0.000346  0.976987  0.0
H  H7  1  0.14749250  0.09095013  0.47375633  1  0.414778  -0.000152  0.891599  -0.001  0.382644  0.000242  0.964972  0.0  0.394249  0.000147  0.948187  0.0  0.295597  0.37429  0.000345  0.976989  0.0
H  H8  1  0.35252429  0.59098716  0.47375677  1  0.414583  0.000152  0.891673  0.001  0.382455  -0.000242  0.965199  0.0  0.394068  -0.000148  0.948405  0.0  0.295488  0.374102  -0.000345  0.977211  0.0
H  H9  1  0.85250214  0.90905359  0.52624387  1  0.414674  -0.000152  0.891776  -0.001  0.382594  0.000242  0.965034  0.0  0.394202  0.000147  0.948247  0.0  0.295624  0.37424  0.000345  0.977049  0.0
H  H10  1  0.67069227  0.97112333  0.68042973  1  0.116699  -9.5e-05  0.966008  0.0  0.125015  -2.3e-05  1.025744  0.0  0.12867  -6.6e-05  1.022817  0.0  0.10815  0.12226  3.1e-05  1.027923  0.0
H  H11  1  0.17067727  0.52886408  0.31958487  1  0.116722  9.5e-05  0.965642  0.0  0.125096  2.3e-05  1.025355  0.0  0.128759  6.6e-05  1.022429  0.0  0.108102  0.122327  -3.1e-05  1.027547  0.0
H  H12  1  0.32931312  0.02886033  0.31957105  1  0.116703  -9.5e-05  0.966152  0.0  0.124995  -2.3e-05  1.025892  0.0  0.128649  -6.6e-05  1.022969  0.0  0.108119  0.122244  3.1e-05  1.028068  0.0
H  H13  1  0.82932044  0.47114972  0.68041535  1  0.116696  9.5e-05  0.965595  0.0  0.125053  2.3e-05  1.025346  0.0  0.128712  6.6e-05  1.022423  0.0  0.108129  0.122281  -3.1e-05  1.027541  0.0
H  H14  1  0.78413702  0.13183323  0.83707377  1  0.128141  -1e-05  0.933848  0.0  0.137111  -3.9e-05  0.992251  0.0  0.140426  -2.6e-05  0.991744  0.0  0.109388  0.134707  -5.5e-05  0.992815  0.0
H  H15  1  0.28411327  0.36817942  0.16293803  1  0.128226  1e-05  0.933982  0.0  0.137213  4e-05  0.992346  0.0  0.140526  2.7e-05  0.99184  0.0  0.109458  0.134817  5.5e-05  0.992903  0.0
H  H16  1  0.21587605  0.86814171  0.16292653  1  0.128093  -1e-05  0.933848  0.0  0.137099  -3.9e-05  0.992215  0.0  0.140414  -2.6e-05  0.991707  0.0  0.109394  0.134702  -5.5e-05  0.992773  0.0
H  H17  1  0.71589212  0.63182790  0.83706698  1  0.128236  1e-05  0.933972  0.0  0.137184  4e-05  0.992375  0.0  0.140497  2.7e-05  0.991869  0.0  0.10942  0.134782  5.5e-05  0.992939  0.0
H  H18  1  0.19544651  0.01126399  0.92870052  1  0.129644  2.7e-05  0.93944  0.0  0.132988  -4e-06  1.005759  0.0  0.137696  -1e-06  1.002395  0.0  0.105247  0.129627  -8e-06  1.008277  0.0
H  H19  1  0.69544942  0.48873659  0.07130504  1  0.129527  -2.7e-05  0.939279  0.0  0.132809  4e-06  1.0057  0.0  0.137508  1e-06  1.002332  0.0  0.105198  0.12945  8e-06  1.00821  0.0
H  H20  1  0.80455273  0.98874237  0.07129814  1  0.129686  2.7e-05  0.939469  0.0  0.133053  -4e-06  1.005755  0.0  0.137765  -1e-06  1.002392  0.0  0.105256  0.12969  -8e-06  1.008275  0.0
H  H21  1  0.30455290  0.51126879  0.92869661  1  0.129541  -2.7e-05  0.939262  0.0  0.132799  4e-06  1.005705  0.0  0.137497  1e-06  1.002338  0.0  0.105175  0.129437  8e-06  1.00822  0.0
H  H22  1  0.08052281  0.84897610  0.77113017  1  0.099435  -0.000117  0.963562  0.0  0.107854  -3.1e-05  1.026404  0.0  0.110255  -8e-06  1.025849  0.0  0.103997  0.106077  -5.6e-05  1.026843  0.0
H  H23  1  0.58054549  0.65104411  0.22888019  1  0.099408  0.000117  0.963697  0.0  0.107848  3.1e-05  1.026504  0.0  0.110245  8e-06  1.025953  0.0  0.104007  0.10607  5.6e-05  1.026934  0.0
H  H24  1  0.91947951  0.15102595  0.22886857  1  0.099432  -0.000117  0.963458  0.0  0.107859  -3.1e-05  1.026284  0.0  0.110256  -7e-06  1.025741  0.0  0.103964  0.106081  -5.6e-05  1.026723  0.0
H  H25  1  0.41945069  0.34896127  0.77112146  1  0.099335  0.000117  0.963693  0.0  0.10781  3.1e-05  1.02647  0.0  0.110208  7e-06  1.025918  0.0  0.103998  0.10603  5.6e-05  1.026907  0.0
C  C26  1  0.29753673  0.80006242  0.62355922  1  0.674422  0.005287  3.815783  0.008  0.62633  0.004079  4.112531  0.006  0.665276  0.00268  4.101533  0.004  0.223116  0.597546  0.005986  4.120585  0.008
C  C27  1  0.79750549  0.69995436  0.37644537  1  0.674035  -0.00529  3.816249  -0.008  0.625781  -0.004086  4.113226  -0.006  0.664721  -0.002681  4.102222  -0.004  0.222931  0.596984  -0.00599  4.121269  -0.008
C  C28  1  0.70246251  0.19993533  0.37643960  1  0.674306  0.005284  3.81607  0.008  0.626258  0.004077  4.112752  0.006  0.665196  0.002678  4.101763  0.004  0.223023  0.597466  0.005984  4.120815  0.008
C  C29  1  0.20249222  0.30004935  0.62355482  1  0.673959  -0.00529  3.81639  -0.008  0.625776  -0.004086  4.113261  -0.006  0.664708  -0.002682  4.102265  -0.004  0.222867  0.59698  -0.00599  4.121312  -0.008
C  C30  1  0.36775067  0.89881605  0.71603659  1  -0.101467  -0.003524  3.76118  -0.005  -0.084775  -0.001969  4.002002  -0.003  -0.097062  -0.001579  4.026477  -0.002  -0.027563  -0.07657  -0.00234  3.986191  -0.003
C  C31  1  0.86775978  0.60116538  0.28397807  1  -0.101189  0.003531  3.760803  0.005  -0.084428  0.001972  4.001652  0.003  -0.096718  0.001578  4.026127  0.002  -0.027517  -0.076212  0.002343  3.985836  0.003
C  C32  1  0.63225472  0.10118737  0.28396170  1  -0.101514  -0.003522  3.761231  -0.005  -0.084823  -0.001968  4.002024  -0.003  -0.097105  -0.001579  4.026495  -0.002  -0.027575  -0.076612  -0.00234  3.986214  -0.003
C  C33  1  0.13223332  0.39883834  0.71602212  1  -0.101285  0.003529  3.760751  0.005  -0.084569  0.001971  4.00165  0.003  -0.096858  0.001581  4.026128  0.002  -0.027589  -0.076364  0.002343  3.985841  0.003
C  C34  1  0.56715594  0.97662762  0.73432163  1  -0.01888  0.002029  3.692357  0.003  -0.042442  0.000751  3.941818  0.001  -0.038545  0.00054  3.959657  0.001  -0.074135  -0.045192  0.001164  3.930201  0.001
C  C35  1  0.06713076  0.52335398  0.26568341  1  -0.018941  -0.00203  3.693084  -0.003  -0.042581  -0.000752  3.94259  -0.001  -0.038698  -0.00054  3.96045  -0.001  -0.074097  -0.045325  -0.001164  3.930968  -0.001
C  C36  1  0.43283717  0.02336777  0.26568063  1  -0.018873  0.002028  3.692285  0.003  -0.042421  0.000752  3.941739  0.001  -0.038522  0.00054  3.959574  0.001  -0.074115  -0.045176  0.001164  3.930131  0.001
C  C37  1  0.93286695  0.47665267  0.73431715  1  -0.018822  -0.002028  3.692903  -0.003  -0.042445  -0.000752  3.942415  -0.001  -0.038559  -0.000541  3.960272  -0.001  -0.074108  -0.045189  -0.001164  3.930789  -0.001
C  C38  1  0.63141585  0.06758656  0.82139041  1  -0.208151  -0.001635  3.75345  -0.002  -0.229481  -0.000526  4.010688  -0.001  -0.237146  -0.000492  4.029751  -0.001  -0.102505  -0.224377  -0.000605  3.998102  -0.001
C  C39  1  0.13141216  0.43241247  0.17862620  1  -0.208166  0.001639  3.753496  0.002  -0.229535  0.000527  4.010708  0.001  -0.237205  0.000493  4.02978  0.001  -0.102596  -0.224432  0.000606  3.998128  0.001
C  C40  1  0.36859722  0.93240698  0.17860913  1  -0.208062  -0.001633  3.753828  -0.002  -0.229416  -0.000525  4.011039  -0.001  -0.237083  -0.000491  4.030107  -0.001  -0.102483  -0.224313  -0.000605  3.998454  -0.001
C  C41  1  0.86858862  0.56758997  0.82137508  1  -0.208191  0.001637  3.753425  0.002  -0.229498  0.000527  4.010623  0.001  -0.237168  0.000491  4.029696  0.001  -0.102533  -0.224389  0.000606  3.998033  0.001
C  C42  1  0.49354259  0.07832174  0.88885265  1  0.329404  0.002285  3.773993  0.003  0.312399  0.001067  4.060013  0.001  0.325785  0.0008  4.069284  0.001  0.102613  0.303012  0.001538  4.053932  0.002
C  C43  1  0.99350641  0.42167873  0.11115396  1  0.328933  -0.002289  3.774025  -0.003  0.312101  -0.001069  4.059869  -0.001  0.32549  -0.000801  4.069134  -0.001  0.102484  0.302713  -0.001539  4.053803  -0.002
C  C44  1  0.50645512  0.92167659  0.11114997  1  0.329275  0.002284  3.774128  0.003  0.3123  0.001066  4.060126  0.001  0.325685  0.000798  4.069401  0.001  0.102577  0.302914  0.001537  4.054043  0.002
C  C45  1  0.00649284  0.57832224  0.88884713  1  0.329033  -0.002288  3.773979  -0.003  0.312177  -0.001069  4.059834  -0.001  0.325564  -0.000799  4.0691  -0.001  0.102535  0.302791  -0.001539  4.053758  -0.002
C  C46  1  0.29616313  0.00039322  0.87336262  1  -0.192882  -0.001247  3.754716  -0.002  -0.222687  -0.000279  4.026052  0.0  -0.230167  -0.00034  4.045804  0.0  -0.10222  -0.21767  -0.000257  4.012875  0.0
C  C47  1  0.79616909  0.49960469  0.12665408  1  -0.192571  0.00125  3.75573  0.002  -0.222383  0.00028  4.027073  0.0  -0.229847  0.000339  4.046809  0.0  -0.102151  -0.217366  0.000257  4.013892  0.0
C  C48  1  0.70384379  0.99961579  0.12663450  1  -0.19284  -0.001246  3.754548  -0.002  -0.222674  -0.000279  4.02584  0.0  -0.230158  -0.000338  4.045597  0.0  -0.10223  -0.217656  -0.000257  4.012663  0.0
C  C49  1  0.20383323  0.50040058  0.87334694  1  -0.192636  0.001248  3.755833  0.002  -0.222406  0.00028  4.027159  0.0  -0.229874  0.000336  4.046905  0.0  -0.102123  -0.217392  0.000257  4.013972  0.0
C  C50  1  0.23391954  0.91127588  0.78611014  1  -0.029342  0.002146  3.729796  0.003  -0.05079  0.000999  3.977714  0.001  -0.047967  0.000795  3.999415  0.001  -0.077182  -0.052635  0.001369  3.963129  0.002
C  C51  1  0.73390857  0.58871648  0.21388766  1  -0.029315  -0.002152  3.729707  -0.003  -0.050769  -0.001001  3.977594  -0.001  -0.047943  -0.000795  3.999283  -0.001  -0.077094  -0.052622  -0.001372  3.963012  -0.002
C  C52  1  0.76607817  0.08873057  0.21388915  1  -0.029313  0.002144  3.729797  0.003  -0.050759  0.000998  3.97771  0.001  -0.047938  0.000794  3.999412  0.001  -0.077101  -0.052603  0.001368  3.963124  0.002
C  C53  1  0.26608607  0.41128879  0.78611336  1  -0.029207  -0.00215  3.729717  -0.003  -0.050674  -0.001001  3.977585  -0.001  -0.04785  -0.000795  3.999277  -0.001  -0.077091  -0.052517  -0.001372  3.962995  -0.002
O  O54  1  0.11897836  0.72778378  0.60933385  1  -0.595714  -0.027375  2.051314  -0.048  -0.561114  -0.01971  2.31446  -0.031  -0.593023  -0.01625  2.302036  -0.025  -0.296123  -0.536613  -0.023081  2.322452  -0.037
O  O55  1  0.61902406  0.77224854  0.39066394  1  -0.595265  0.027365  2.052271  0.048  -0.560663  0.019705  2.315531  0.031  -0.59257  0.01625  2.303109  0.025  -0.295844  -0.536164  0.023074  2.323501  0.037
O  O56  1  0.88102396  0.27220663  0.39066404  1  -0.595639  -0.02737  2.051244  -0.048  -0.561075  -0.019707  2.314381  -0.031  -0.592978  -0.016247  2.301962  -0.025  -0.296073  -0.536571  -0.023078  2.322372  -0.037
O  O57  1  0.38097672  0.22775821  0.60933725  1  -0.595243  0.027364  2.052322  0.048  -0.56069  0.019705  2.315591  0.031  -0.592587  0.016249  2.303155  0.025  -0.295809  -0.536186  0.023074  2.323559  0.037
O  O58  1  0.72263433  0.53098560  0.56230362  1  -0.813185  -0.034544  1.968038  -0.055  -0.775394  -0.028975  2.180353  -0.042  -0.804217  -0.023595  2.145882  -0.034  -0.571879  -0.752239  -0.034156  2.204057  -0.05
O  O59  1  0.22262138  0.96899031  0.43769216  1  -0.813123  0.034559  1.968067  0.055  -0.775299  0.028979  2.180424  0.042  -0.804126  0.0236  2.145968  0.034  -0.57195  -0.752148  0.034163  2.204132  0.05
O  O60  1  0.27736645  0.46901010  0.43769121  1  -0.813171  -0.034545  1.96812  -0.055  -0.775243  -0.028975  2.18062  -0.042  -0.804065  -0.023596  2.146152  -0.034  -0.571856  -0.752091  -0.034156  2.204318  -0.05
O  O61  1  0.77737172  0.03101213  0.56230912  1  -0.813092  0.034561  1.968143  0.055  -0.775273  0.028981  2.180487  0.042  -0.804102  0.023602  2.146032  0.034  -0.572012  -0.752122  0.034166  2.204195  0.05
O  O62  1  0.42745717  0.78512672  0.55951280  1  -0.714572  0.021496  2.173187  0.033  -0.654944  0.017274  2.423113  0.023  -0.687433  0.014316  2.407273  0.018  -0.323623  -0.630437  0.020262  2.434223  0.027
O  O63  1  0.92744791  0.71486799  0.44050250  1  -0.714656  -0.021504  2.172596  -0.033  -0.654957  -0.017281  2.422524  -0.023  -0.687412  -0.014324  2.406659  -0.018  -0.323729  -0.630436  -0.02027  2.433621  -0.027
O  O64  1  0.57254361  0.21486926  0.44048393  1  -0.714526  0.021495  2.173334  0.033  -0.654923  0.017274  2.423235  0.023  -0.687416  0.014316  2.407407  0.018  -0.323601  -0.630412  0.020261  2.434357  0.027
O  O65  1  0.07254827  0.28513308  0.55949922  1  -0.714628  -0.021504  2.172621  -0.033  -0.654889  -0.017279  2.422502  -0.023  -0.687335  -0.014322  2.406632  -0.018  -0.323672  -0.630371  -0.02027  2.433605  -0.027
F  F66  1  0.55425311  0.17182345  0.97424794  1  -0.220502  0.000193  1.204874  0.0  -0.163798  0.000172  1.363538  0.0  -0.173413  0.000109  1.352797  0.0  -0.097912  -0.156729  0.000274  1.370813  0.0
F  F67  1  0.05422600  0.32816383  0.02576240  1  -0.220325  -0.000193  1.204866  0.0  -0.163738  -0.000172  1.363531  0.0  -0.173356  -0.000109  1.352791  0.0  -0.097852  -0.156662  -0.000274  1.370803  0.0
F  F68  1  0.44575689  0.82816011  0.02575220  1  -0.220489  0.000193  1.204809  0.0  -0.163832  0.000172  1.363495  0.0  -0.173446  0.000109  1.352753  0.0  -0.097941  -0.156759  0.000274  1.370767  0.0
F  F69  1  0.94577478  0.67183294  0.97423940  1  -0.220392  -0.000193  1.204821  0.0  -0.163797  -0.000172  1.363497  0.0  -0.173415  -0.000108  1.352758  0.0  -0.097901  -0.156723  -0.000274  1.370771  0.0
