# generated using pymatgen
data_FeH6PdC12(N4F)2
_symmetry_space_group_name_H-M   'P 1'
_cell_length_a   6.98494684
_cell_length_b   7.16755950
_cell_length_c   15.09160434
_cell_angle_alpha   89.99986511
_cell_angle_beta   89.99861976
_cell_angle_gamma   90.00004174
_symmetry_Int_Tables_number   1
_chemical_formula_structural   FeH6PdC12(N4F)2
_chemical_formula_sum   'Fe2 H12 Pd2 C24 N16 F4'
_cell_volume   755.56150462
_cell_formula_units_Z   2
loop_
 _symmetry_equiv_pos_site_id
 _symmetry_equiv_pos_as_xyz
  1  'x, y, z'
loop_
 _atom_site_type_symbol
 _atom_site_label
 _atom_site_symmetry_multiplicity
 _atom_site_fract_x
 _atom_site_fract_y
 _atom_site_fract_z
 _atom_site_occupancy
 _atom_site_hle17_bader_spin_density
 _atom_site_hle17_ddec_charge
 _atom_site_hle17_ddec_spin_density
 _atom_site_hle17_ddec_sum_bond_order
 _atom_site_hle17_magmom
 _atom_site_hse06_10hf_bader_spin_density
 _atom_site_hse06_10hf_ddec_charge
 _atom_site_hse06_10hf_ddec_spin_density
 _atom_site_hse06_10hf_ddec_sum_bond_order
 _atom_site_hse06_10hf_magmom
 _atom_site_hse06_bader_spin_density
 _atom_site_hse06_ddec_charge
 _atom_site_hse06_ddec_spin_density
 _atom_site_hse06_ddec_sum_bond_order
 _atom_site_hse06_magmom
 _atom_site_pbe_bader_spin_density
 _atom_site_pbe_cm5_charge
 _atom_site_pbe_ddec_charge
 _atom_site_pbe_ddec_spin_density
 _atom_site_pbe_ddec_sum_bond_order
 _atom_site_pbe_magmom
Fe  Fe0  1  0.48827992  0.50000158  0.01190876  1  0  0.643799  0  3.17853  0  0  0.609978  0  3.67199  0  0  0.653861  0  3.611869  0  0  0.813964  0.58695  0  3.705291  0
Fe  Fe1  1  0.48828989  0.99999905  0.48808913  1  0  0.644201  0  3.178245  0  0  0.609992  0  3.671933  0  0  0.653866  0  3.611804  0  0  0.813993  0.586974  0  3.70523  0
H  H2  1  0.10754326  0.49999843  0.10106919  1  0  0.138886  0  0.923305  0  0  0.144019  0  0.982666  0  0  0.146751  0  0.980922  0  0  0.134574  0.142137  0  0.984074  0
H  H3  1  0.89359578  0.99999472  0.60429043  1  0  0.132065  0  0.917351  0  0  0.137823  0  0.97774  0  0  0.139144  0  0.978333  0  0  0.131962  0.137146  0  0.977264  0
H  H4  1  0.89361564  0.49999955  0.89574017  1  0  0.131864  0  0.917961  0  0  0.137856  0  0.978033  0  0  0.139248  0  0.978533  0  0  0.131908  0.137177  0  0.97757  0
H  H5  1  0.10754759  0.99999913  0.39892657  1  0  0.138866  0  0.923314  0  0  0.143952  0  0.982705  0  0  0.146709  0  0.980927  0  0  0.134597  0.142072  0  0.984111  0
H  H6  1  0.67710455  0.49999982  0.18676977  1  0  0.111737  0  0.954714  0  0  0.112658  0  1.024874  0  0  0.115705  0  1.021307  0  0  0.123752  0.110513  0  1.027609  0
H  H7  1  0.33120663  0.00000399  0.69589159  1  0  0.104636  0  0.951652  0  0  0.106796  0  1.020974  0  0  0.10941  0  1.018596  0  0  0.119799  0.10511  0  1.022686  0
H  H8  1  0.33129149  0.49999399  0.80407596  1  0  0.105102  0  0.951689  0  0  0.107198  0  1.020998  0  0  0.109812  0  1.018608  0  0  0.120062  0.105526  0  1.02272  0
H  H9  1  0.67709734  0.99999675  0.31321927  1  0  0.111871  0  0.954606  0  0  0.112778  0  1.024783  0  0  0.115823  0  1.021224  0  0  0.1238  0.110636  0  1.02752  0
H  H10  1  0.56369535  0.49999799  0.34568264  1  0  0.10617  0  0.92514  0  0  0.111995  0  0.984143  0  0  0.113991  0  0.983768  0  0  0.123249  0.110672  0  0.984449  0
H  H11  1  0.45183212  0.00000922  0.85585267  1  0  0.105882  0  0.915359  0  0  0.114092  0  0.971558  0  0  0.115069  0  0.971998  0  0  0.12586  0.113595  0  0.971163  0
H  H12  1  0.45200643  0.49999861  0.64412804  1  0  0.105893  0  0.915336  0  0  0.114078  0  0.971523  0  0  0.115062  0  0.971953  0  0  0.125726  0.113579  0  0.971124  0
H  H13  1  0.56367982  0.00000122  0.15431095  1  0  0.10615  0  0.925125  0  0  0.111924  0  0.984186  0  0  0.113917  0  0.983812  0  0  0.123205  0.110601  0  0.984497  0
Pd  Pd14  1  0.99045127  0.00000314  0.00291035  1  0  0.186508  0  3.577882  0  0  0.147497  0  4.183852  0  0  0.152692  0  4.135767  0  0  0.63858  0.146684  0  4.217286  0
Pd  Pd15  1  0.99046653  0.50000056  0.49709676  1  0  0.186419  0  3.578043  0  0  0.147525  0  4.183807  0  0  0.15272  0  4.135719  0  0  0.638472  0.146713  0  4.217252  0
C  C16  1  0.18626961  0.80541405  0.98453990  1  0  0.060646  0  3.45406  0  0  0.037316  0  3.813411  0  0  0.049958  0  3.816372  0  0  -0.021286  0.027644  0  3.812683  0
C  C17  1  0.79598749  0.69482418  0.47547120  1  0  0.060614  0  3.447471  0  0  0.039156  0  3.803665  0  0  0.051272  0  3.80835  0  0  -0.020217  0.029923  0  3.80155  0
C  C18  1  0.79597855  0.80517108  0.02452903  1  0  0.060776  0  3.447415  0  0  0.03933  0  3.803632  0  0  0.051444  0  3.808321  0  0  -0.020209  0.03012  0  3.801483  0
C  C19  1  0.18628251  0.69458250  0.51545994  1  0  0.060751  0  3.454079  0  0  0.037418  0  3.813403  0  0  0.05007  0  3.816344  0  0  -0.02123  0.027774  0  3.812634  0
C  C20  1  0.79597689  0.19483363  0.02452871  1  0  0.060812  0  3.447506  0  0  0.039358  0  3.803742  0  0  0.051475  0  3.808425  0  0  -0.020144  0.030145  0  3.801597  0
C  C21  1  0.18628666  0.30541935  0.51545685  1  0  0.060543  0  3.454197  0  0  0.037194  0  3.813535  0  0  0.049844  0  3.816481  0  0  -0.021337  0.027515  0  3.81282  0
C  C22  1  0.18626509  0.19458968  0.98453958  1  0  0.060696  0  3.454057  0  0  0.037368  0  3.813408  0  0  0.050012  0  3.816367  0  0  -0.021274  0.027702  0  3.812673  0
C  C23  1  0.79598878  0.30517412  0.47546745  1  0  0.060596  0  3.447641  0  0  0.039144  0  3.803822  0  0  0.051258  0  3.808509  0  0  -0.020293  0.029918  0  3.801702  0
C  C24  1  0.21103450  0.49999694  0.15479315  1  0  -0.031435  0  3.596504  0  0  -0.071433  0  3.8543  0  0  -0.064407  0  3.864972  0  0  0.046768  -0.077282  0  3.84866  0
C  C25  1  0.79415629  0.99999734  0.65998821  1  0  -0.028534  0  3.652718  0  0  -0.062819  0  3.9116  0  0  -0.0637  0  3.930657  0  0  0.056984  -0.062606  0  3.898744  0
C  C26  1  0.79422470  0.49999825  0.84003230  1  0  -0.0288  0  3.653429  0  0  -0.06299  0  3.912152  0  0  -0.063908  0  3.931137  0  0  0.057066  -0.062748  0  3.899224  0
C  C27  1  0.21103717  0.99999930  0.34520205  1  0  -0.03137  0  3.596885  0  0  -0.0713  0  3.854592  0  0  -0.064288  0  3.865238  0  0  0.046787  -0.07716  0  3.848939  0
C  C28  1  0.52606219  0.49999972  0.20358465  1  0  0.041709  0  3.626677  0  0  0.000261  0  3.899177  0  0  0.007152  0  3.911233  0  0  0.04267  -0.005167  0  3.892497  0
C  C29  1  0.48287239  0.00000400  0.71212224  1  0  0.041177  0  3.678921  0  0  0.005542  0  3.949905  0  0  0.007012  0  3.968743  0  0  0.049909  0.004099  0  3.937398  0
C  C30  1  0.48297093  0.49999269  0.78786407  1  0  0.040591  0  3.679071  0  0  0.005031  0  3.950432  0  0  0.006539  0  3.969216  0  0  0.049565  0.00356  0  3.937949  0
C  C31  1  0.52605293  0.99999813  0.29640684  1  0  0.041452  0  3.627  0  0  2.8e-05  0  3.899518  0  0  0.006922  0  3.911562  0  0  0.042561  -0.005418  0  3.892833  0
C  C32  1  0.15755160  0.49999810  0.24348251  1  0  0.411664  0  3.832932  0  0  0.381789  0  4.134667  0  0  0.394486  0  4.13781  0  0  0.228022  0.372455  0  4.133924  0
C  C33  1  0.85323509  0.00000265  0.74832628  1  0  0.407395  0  3.82991  0  0  0.378433  0  4.126754  0  0  0.392512  0  4.133984  0  0  0.229788  0.368722  0  4.121991  0
C  C34  1  0.85335688  0.50000407  0.75169807  1  0  0.407477  0  3.831181  0  0  0.378593  0  4.127933  0  0  0.39275  0  4.135078  0  0  0.229692  0.368891  0  4.123165  0
C  C35  1  0.15755396  0.00000082  0.25651984  1  0  0.411611  0  3.833156  0  0  0.381796  0  4.134783  0  0  0.394479  0  4.137936  0  0  0.227967  0.372461  0  4.134047  0
C  C36  1  0.46218555  0.49999809  0.29073215  1  0  0.104476  0  3.670798  0  0  0.083042  0  3.934243  0  0  0.085784  0  3.948134  0  0  0.057517  0.080643  0  3.925906  0
C  C37  1  0.54945486  0.00000800  0.79933457  1  0  0.109781  0  3.658947  0  0  0.088293  0  3.917394  0  0  0.09086  0  3.937257  0  0  0.064546  0.086536  0  3.903929  0
C  C38  1  0.54959347  0.49999572  0.70065757  1  0  0.10967  0  3.658526  0  0  0.088326  0  3.916921  0  0  0.0909  0  3.936734  0  0  0.064607  0.086564  0  3.903471  0
C  C39  1  0.46217304  0.00000244  0.20926197  1  0  0.104451  0  3.670977  0  0  0.083061  0  3.934474  0  0  0.085802  0  3.94836  0  0  0.057539  0.080658  0  3.926146  0
N  N40  1  0.30392114  0.68886536  0.98480034  1  0  -0.355587  0  3.284527  0  0  -0.322383  0  3.601484  0  0  -0.342418  0  3.611168  0  0  -0.393013  -0.309652  0  3.593515  0
N  N41  1  0.67840910  0.81094876  0.47028550  1  0  -0.35671  0  3.281313  0  0  -0.32223  0  3.596009  0  0  -0.343109  0  3.607494  0  0  -0.390943  -0.308675  0  3.586414  0
N  N42  1  0.67839982  0.68904363  0.02971147  1  0  -0.356829  0  3.281369  0  0  -0.322393  0  3.596064  0  0  -0.343276  0  3.607555  0  0  -0.390955  -0.308847  0  3.586478  0
N  N43  1  0.30392841  0.81113686  0.51519877  1  0  -0.355681  0  3.284525  0  0  -0.322449  0  3.601507  0  0  -0.342486  0  3.611191  0  0  -0.393013  -0.309729  0  3.593544  0
N  N44  1  0.67839252  0.31095817  0.02971036  1  0  -0.356875  0  3.281479  0  0  -0.322437  0  3.596171  0  0  -0.343319  0  3.607666  0  0  -0.391013  -0.308889  0  3.586583  0
N  N45  1  0.30393391  0.18886787  0.51519648  1  0  -0.355499  0  3.284582  0  0  -0.322252  0  3.601541  0  0  -0.342289  0  3.611229  0  0  -0.392914  -0.309519  0  3.593567  0
N  N46  1  0.30391957  0.31113707  0.98480055  1  0  -0.355616  0  3.284514  0  0  -0.322414  0  3.601473  0  0  -0.34245  0  3.611156  0  0  -0.392999  -0.309685  0  3.593505  0
N  N47  1  0.67841316  0.18904530  0.47028320  1  0  -0.356717  0  3.281483  0  0  -0.322237  0  3.596175  0  0  -0.343116  0  3.607659  0  0  -0.390883  -0.308682  0  3.586577  0
N  N48  1  0.40015883  0.50000124  0.13495452  1  0  -0.133954  0  3.345077  0  0  -0.082746  0  3.617506  0  0  -0.103207  0  3.636586  0  0  -0.302745  -0.069331  0  3.603624  0
N  N49  1  0.60616776  0.00000003  0.64406712  1  0  -0.167338  0  3.174961  0  0  -0.122778  0  3.44246  0  0  -0.139332  0  3.463518  0  0  -0.258107  -0.110298  0  3.427523  0
N  N50  1  0.60622288  0.49999396  0.85592966  1  0  -0.166833  0  3.174928  0  0  -0.122719  0  3.442782  0  0  -0.139279  0  3.463856  0  0  -0.258229  -0.110231  0  3.427859  0
N  N51  1  0.40016196  0.99999653  0.36504110  1  0  -0.133933  0  3.345083  0  0  -0.0827  0  3.617467  0  0  -0.103156  0  3.636537  0  0  -0.302716  -0.069246  0  3.60355  0
N  N52  1  0.27459449  0.49999797  0.31143682  1  0  -0.328691  0  3.059338  0  0  -0.307362  0  3.336343  0  0  -0.312718  0  3.346186  0  0  -0.304816  -0.304136  0  3.330604  0
N  N53  1  0.73805143  0.00000663  0.81693199  1  0  -0.333973  0  3.091996  0  0  -0.309294  0  3.368955  0  0  -0.321699  0  3.383192  0  0  -0.30103  -0.300553  0  3.359205  0
N  N54  1  0.73821381  0.50000002  0.68308510  1  0  -0.33412  0  3.09238  0  0  -0.309426  0  3.369259  0  0  -0.321836  0  3.383523  0  0  -0.30078  -0.300672  0  3.359479  0
N  N55  1  0.27458873  0.00000103  0.18855554  1  0  -0.328558  0  3.059187  0  0  -0.307272  0  3.336196  0  0  -0.312614  0  3.34603  0  0  -0.30477  -0.304051  0  3.330464  0
F  F56  1  0.96726238  0.49999276  0.26238295  1  0  -0.219015  0  1.196446  0  0  -0.164022  0  1.356301  0  0  -0.173838  0  1.344336  0  0  -0.085539  -0.156731  0  1.3646  0
F  F57  1  0.04380257  0.00000092  0.76642256  1  0  -0.221022  0  1.201167  0  0  -0.165472  0  1.360554  0  0  -0.176907  0  1.349743  0  0  -0.084794  -0.157673  0  1.368569  0
F  F58  1  0.04394100  0.50000662  0.73362060  1  0  -0.220754  0  1.201947  0  0  -0.165423  0  1.361457  0  0  -0.177057  0  1.350788  0  0  -0.084693  -0.157633  0  1.369473  0
F  F59  1  0.96726317  0.99999844  0.23762188  1  0  -0.219095  0  1.196383  0  0  -0.164086  0  1.356198  0  0  -0.173905  0  1.344239  0  0  -0.085548  -0.156798  0  1.364502  0
