# generated using pymatgen
data_Zn2H17C34N2O8F
_symmetry_space_group_name_H-M   'P 1'
_cell_length_a   9.82929842
_cell_length_b   10.90131350
_cell_length_c   15.93916616
_cell_angle_alpha   87.56513965
_cell_angle_beta   88.91653215
_cell_angle_gamma   88.80052788
_symmetry_Int_Tables_number   1
_chemical_formula_structural   Zn2H17C34N2O8F
_chemical_formula_sum   'Zn2 H17 C34 N2 O8 F1'
_cell_volume   1705.72423968
_cell_formula_units_Z   1
loop_
 _symmetry_equiv_pos_site_id
 _symmetry_equiv_pos_as_xyz
  1  'x, y, z'
loop_
 _atom_site_type_symbol
 _atom_site_label
 _atom_site_symmetry_multiplicity
 _atom_site_fract_x
 _atom_site_fract_y
 _atom_site_fract_z
 _atom_site_occupancy
 _atom_site_pbe_bader_charge
 _atom_site_pbe_bader_spin_density
 _atom_site_pbe_cm5_charge
 _atom_site_pbe_ddec_charge
 _atom_site_pbe_ddec_spin_density
 _atom_site_pbe_ddec_sum_bond_order
 _atom_site_pbe_magmom
Zn  Zn0  1  0.64977629  0.50091080  0.49819606  1  1.293008  0  0.67577  0.837565  0  2.368898  0
Zn  Zn1  1  0.35637955  0.51114763  0.51183149  1  1.292982  0  0.674908  0.838627  0  2.384781  0
H  H2  1  0.35134218  0.33563291  0.97075459  1  0.043861  0  0.10085  0.087612  0  0.991478  0
H  H3  1  0.87441663  0.65849011  0.43551206  1  0.126895  0  0.136732  0.115008  0  0.9719  0
H  H4  1  0.56618713  0.32318199  0.08762400  1  0.061321  0  0.103282  0.092559  0  0.987985  0
H  H5  1  0.25568674  0.55727817  0.04068443  1  0.082469  0  0.10114  0.088956  0  0.991187  0
H  H6  1  0.42204345  0.69179275  0.92345446  1  0.069483  0  0.102367  0.089849  0  0.988391  0
H  H7  1  0.63684266  0.67943587  0.04037672  1  0.075308  0  0.101122  0.08807  0  0.990982  0
H  H8  1  0.73279081  0.45770003  0.97005802  1  0.040031  0  0.101176  0.088749  0  0.991705  0
H  H9  1  0.35136342  0.13027223  0.58149666  1  0.057876  0  0.101432  0.103515  0  1.018034  0
H  H10  1  0.73762711  0.09973718  0.22742128  1  0.072843  0  0.108828  0.1282  0  0.987228  0
H  H11  1  0.76456732  0.87057590  0.25225172  1  0.064014  0  0.102871  0.100093  0  0.987811  0
H  H12  1  0.65510098  0.76780857  0.37575420  1  0.114016  0  0.098942  0.113475  0  1.049695  0
H  H13  1  0.36264025  0.90125759  0.60003731  1  0.075643  0  0.105464  0.110736  0  0.991378  0
H  H14  1  0.13094453  0.66872470  0.44865018  1  0.12333  0  0.139742  0.119731  0  0.957554  0
H  H15  1  0.25043041  0.33436290  0.62336954  1  0.161995  0  0.112863  0.134384  0  1.043222  0
H  H16  1  0.12755542  0.15082732  0.68021847  1  0.075857  0  0.110951  0.105176  0  0.978088  0
H  H17  1  0.88366601  0.12281490  0.64649627  1  0.075279  0  0.114025  0.109778  0  0.972444  0
H  H18  1  0.75843171  0.28136941  0.56087694  1  0.194404  0  0.11419  0.139101  0  1.045323  0
C  C19  1  0.48345889  0.27390612  0.47645974  1  1.611458  0  0.21775  0.59856  0  4.188774  0
C  C20  1  0.69389483  0.05299178  0.28305342  1  0.023305  0  -0.10972  -0.227431  0  4.056085  0
C  C21  1  0.70773468  0.92481702  0.29750288  1  -0.079372  0  -0.094821  -0.058636  0  4.072046  0
C  C22  1  0.52600036  0.46790606  0.66667784  1  1.659446  0  0.21773  0.671022  0  4.240035  0
C  C23  1  0.64721137  0.86712571  0.36680400  1  -0.053138  0  -0.102745  -0.159742  0  3.988477  0
C  C24  1  0.57164564  0.93548084  0.42654717  1  -0.000176  0  0.002302  0.083545  0  3.939812  0
C  C25  1  0.55909057  0.06720587  0.41408611  1  0.05999  0  -0.008929  -0.052558  0  3.956809  0
C  C26  1  0.48273216  0.13642712  0.47332487  1  -0.032245  0  -0.006991  -0.036995  0  3.930771  0
C  C27  1  0.41172003  0.07604460  0.53795919  1  -0.032678  0  -0.089999  -0.10727  0  4.008404  0
C  C28  1  0.41929644  0.94769269  0.54897468  1  0.01299  0  -0.087721  -0.098954  0  4.019218  0
C  C29  1  0.50062504  0.87814657  0.49659248  1  -0.027966  0  -0.010683  -0.066426  0  3.920562  0
C  C30  1  0.50726265  0.48699144  0.92108096  1  0.127917  0  0.006114  0.122167  0  3.797542  0
C  C31  1  0.14411469  0.32078878  0.60926275  1  -0.005725  0  -0.077885  -0.147931  0  3.93423  0
C  C32  1  0.07462154  0.22013910  0.64094073  1  -0.063974  0  -0.072269  -0.056801  0  3.998256  0
C  C33  1  0.93589572  0.20472220  0.62252732  1  0.020855  0  -0.070414  -0.052229  0  3.985559  0
C  C34  1  0.50657345  0.74186840  0.51388286  1  1.569457  0  0.218327  0.606629  0  4.157492  0
C  C35  1  0.86500007  0.29255773  0.57545127  1  -0.050499  0  -0.076879  -0.142535  0  3.916313  0
C  C36  1  0.93257235  0.39847344  0.54360487  1  0.436684  0  0.129494  0.1767  0  3.926504  0
C  C37  1  0.07540991  0.41047121  0.55808223  1  0.449997  0  0.128401  0.177094  0  3.924995  0
C  C38  1  0.07403503  0.59288139  0.47782392  1  0.56758  0  0.080357  0.068739  0  3.880141  0
C  C39  1  0.93195100  0.58534394  0.46852933  1  0.556765  0  0.079843  0.069427  0  3.877969  0
C  C40  1  0.48854375  0.54911904  0.34350680  1  1.698006  0  0.217422  0.67006  0  4.235009  0
C  C41  1  0.57400597  0.60272361  0.02393463  1  -0.026594  0  -0.069236  -0.075201  0  3.634103  0
C  C42  1  0.53477766  0.40455886  0.04978160  1  -0.012964  0  -0.067692  -0.071645  0  3.622519  0
C  C43  1  0.41458037  0.41224969  0.98688756  1  -0.010367  0  -0.069421  -0.076756  0  3.634182  0
C  C44  1  0.52492672  0.46493425  0.75729588  1  0.191491  0  -0.0619  -0.210382  0  4.009567  0
C  C45  1  0.47963295  0.55289286  0.25322247  1  0.045211  0  -0.057332  -0.20092  0  4.007836  0
C  C46  1  0.62686804  0.47999848  0.98643210  1  -0.023374  0  -0.071531  -0.081835  0  3.639747  0
C  C47  1  0.48158769  0.52793278  0.08975322  1  0.118298  0  0.007571  0.124616  0  3.798278  0
C  C48  1  0.45377203  0.61037630  0.96114768  1  -0.018637  0  -0.067485  -0.072244  0  3.627514  0
C  C49  1  0.36172891  0.53497923  0.02456750  1  -0.068755  0  -0.072063  -0.082445  0  3.638458  0
C  C50  1  0.51765623  0.47205793  0.83343683  1  -0.498898  0  -0.037501  -0.054914  0  4.104829  0
C  C51  1  0.47608248  0.54433669  0.17728572  1  -0.356755  0  -0.037416  -0.057003  0  4.099021  0
C  C52  1  0.62004639  0.11986805  0.33986192  1  0.44623  0  0.098279  0.244762  0  4.048998  0
N  N53  1  0.14386746  0.50793212  0.52190744  1  -1.214975  0  -0.286517  -0.192592  0  3.44707  0
N  N54  1  0.86316356  0.48990375  0.49970154  1  -1.202523  0  -0.284183  -0.190445  0  3.441875  0
O  O55  1  0.59933829  0.32122445  0.48561065  1  -1.165819  0  -0.310327  -0.552871  0  2.402204  0
O  O56  1  0.36948206  0.33046862  0.47686678  1  -1.160554  0  -0.310477  -0.538737  0  2.328558  0
O  O57  1  0.63971376  0.48093405  0.62844076  1  -1.145807  0  -0.310843  -0.538667  0  2.274316  0
O  O58  1  0.41008704  0.45854685  0.63257449  1  -1.170981  0  -0.315108  -0.557667  0  2.318557  0
O  O59  1  0.62212229  0.68751157  0.50842626  1  -1.17028  0  -0.315453  -0.552181  0  2.338716  0
O  O60  1  0.39381518  0.69115554  0.53337729  1  -1.162603  0  -0.323594  -0.557268  0  2.301467  0
O  O61  1  0.60810942  0.53413879  0.37281832  1  -1.147173  0  -0.316803  -0.548107  0  2.263001  0
O  O62  1  0.37744913  0.55956327  0.38545623  1  -1.157387  0  -0.318512  -0.551802  0  2.263568  0
F  F63  1  0.60026502  0.24229346  0.32203108  1  -0.636071  0  -0.097793  -0.133311  0  1.371946  0
