# generated using pymatgen
data_Zn4H2C24S4Cl4O13F2
_symmetry_space_group_name_H-M   'P 1'
_cell_length_a   19.65849350
_cell_length_b   19.79230968
_cell_length_c   33.35294653
_cell_angle_alpha   78.78271467
_cell_angle_beta   79.17722924
_cell_angle_gamma   63.95520021
_symmetry_Int_Tables_number   1
_chemical_formula_structural   Zn4H2C24S4Cl4O13F2
_chemical_formula_sum   'Zn16 H8 C96 S16 Cl16 O52 F8'
_cell_volume   11359.23927143
_cell_formula_units_Z   4
loop_
 _symmetry_equiv_pos_site_id
 _symmetry_equiv_pos_as_xyz
  1  'x, y, z'
loop_
 _atom_site_type_symbol
 _atom_site_label
 _atom_site_symmetry_multiplicity
 _atom_site_fract_x
 _atom_site_fract_y
 _atom_site_fract_z
 _atom_site_occupancy
 _atom_site_pbe_bader_charge
 _atom_site_pbe_bader_spin_density
 _atom_site_pbe_cm5_charge
 _atom_site_pbe_ddec_charge
 _atom_site_pbe_ddec_spin_density
 _atom_site_pbe_ddec_sum_bond_order
 _atom_site_pbe_magmom
Zn  Zn0  1  0.05560194  0.40100974  0.47813416  1  1.316091  0  0.673031  0.972945  0  2.335626  0
Zn  Zn1  1  0.98537159  0.48364645  0.56019547  1  1.31664  0  0.674008  0.966939  0  2.374324  0
Zn  Zn2  1  0.05858463  0.56150124  0.48214461  1  1.321274  0  0.675422  0.969576  0  2.36898  0
Zn  Zn3  1  0.89991133  0.55475671  0.47944117  1  1.317129  0  0.676001  0.971726  0  2.366068  0
Zn  Zn4  1  0.69380912  0.34900393  0.27188236  1  1.316383  0  0.672881  0.972555  0  2.337193  0
Zn  Zn5  1  0.69073315  0.18861080  0.26635818  1  1.318765  0  0.673469  0.969487  0  2.356347  0
Zn  Zn6  1  0.76904520  0.26624130  0.18968661  1  1.322668  0  0.676076  0.971281  0  2.365157  0
Zn  Zn7  1  0.84778761  0.19555586  0.27196925  1  1.317721  0  0.675825  0.965056  0  2.395059  0
Zn  Zn8  1  0.26484941  0.76603497  0.68995273  1  1.322252  0  0.673899  0.96576  0  2.37887  0
Zn  Zn9  1  0.34936730  0.69711868  0.77146179  1  1.319308  0  0.673709  0.970287  0  2.354639  0
Zn  Zn10  1  0.19220873  0.84930090  0.77121210  1  1.319985  0  0.675146  0.972471  0  2.352753  0
Zn  Zn11  1  0.19128578  0.68831803  0.76786458  1  1.319366  0  0.675944  0.970751  0  2.36752  0
Zn  Zn12  1  0.55877346  0.06188305  0.98368142  1  1.318654  0  0.673308  0.969528  0  2.354308  0
Zn  Zn13  1  0.40249170  0.05268583  0.97715182  1  1.31565  0  0.674053  0.966874  0  2.375287  0
Zn  Zn14  1  0.55760444  0.90050905  0.97909852  1  1.322232  0  0.67505  0.973135  0  2.349519  0
Zn  Zn15  1  0.48133201  0.98370743  0.06027636  1  1.321802  0  0.675579  0.96973  0  2.367905  0
H  H16  1  0.74854044  0.45134242  0.34962485  1  0.167167  0  0.122323  0.153279  0  0.972986  0
H  H17  1  0.00087669  0.29970777  0.40019138  1  0.127387  0  0.122521  0.153242  0  0.973333  0
H  H18  1  0.20085790  0.70041418  0.59970254  1  0.15815  0  0.12244  0.153078  0  0.974468  0
H  H19  1  0.04929838  0.54984145  0.65011820  1  0.132383  0  0.121857  0.151785  0  0.975007  0
H  H20  1  0.64990903  0.15078941  0.04920782  1  0.114299  0  0.122231  0.152942  0  0.973719  0
H  H21  1  0.60052368  0.09913766  0.20072804  1  0.116004  0  0.122005  0.152677  0  0.97391  0
H  H22  1  0.30012681  0.99977140  0.89984949  1  0.142152  0  0.122123  0.152768  0  0.975011  0
H  H23  1  0.45054570  0.74969232  0.84972062  1  0.138371  0  0.122183  0.152921  0  0.97479  0
C  C24  1  0.06172994  0.31688698  0.56196567  1  1.578786  0  0.215847  0.622939  0  4.207593  0
C  C25  1  0.07011566  0.57049728  0.56805509  1  1.579288  0  0.23023  0.621597  0  4.163658  0
C  C26  1  0.18337775  0.43985153  0.43838699  1  1.619022  0  0.217003  0.62407  0  4.208453  0
C  C27  1  0.93609062  0.68393927  0.43852425  1  1.593975  0  0.215873  0.622006  0  4.213026  0
C  C28  1  0.92946634  0.43181629  0.43113445  1  1.599435  0  0.231764  0.623941  0  4.158706  0
C  C29  1  0.81731073  0.56069966  0.56286630  1  1.581188  0  0.216367  0.621534  0  4.210113  0
C  C30  1  0.56621505  0.30940749  0.31118939  1  1.590624  0  0.215956  0.621826  0  4.209654  0
C  C31  1  0.68283549  0.18072080  0.18003698  1  1.584081  0  0.230325  0.621352  0  4.162694  0
C  C32  1  0.68985143  0.43304691  0.18830901  1  1.631713  0  0.216211  0.623357  0  4.209658  0
C  C33  1  0.93542228  0.18803037  0.18958662  1  1.565324  0  0.215639  0.618823  0  4.215612  0
C  C34  1  0.81955528  0.31876350  0.31919304  1  1.582888  0  0.23139  0.623486  0  4.162326  0
C  C35  1  0.81203723  0.06599930  0.31127819  1  1.57963  0  0.21539  0.620126  0  4.213898  0
C  C36  1  0.43273901  0.68967215  0.68799877  1  1.589817  0  0.216332  0.623557  0  4.20714  0
C  C37  1  0.31727936  0.82138579  0.81877383  1  1.588079  0  0.231581  0.624076  0  4.159366  0
C  C38  1  0.18821629  0.93281611  0.68757862  1  1.57626  0  0.216422  0.622612  0  4.209432  0
C  C39  1  0.06550581  0.80952941  0.81124219  1  1.596696  0  0.21609  0.620543  0  4.212616  0
C  C40  1  0.18005308  0.67959049  0.68181437  1  1.57961  0  0.229947  0.621449  0  4.165328  0
C  C41  1  0.31465429  0.56651765  0.81164740  1  1.581238  0  0.216748  0.623838  0  4.20506  0
C  C42  1  0.43691336  0.18364777  0.93842550  1  1.617592  0  0.215793  0.620374  0  4.2143  0
C  C43  1  0.43342227  0.92815530  0.93075787  1  1.580054  0  0.231268  0.623563  0  4.159773  0
C  C44  1  0.68388668  0.94148030  0.93917665  1  1.587309  0  0.216971  0.624637  0  4.207328  0
C  C45  1  0.56086677  0.81681958  0.06245965  1  1.580341  0  0.215963  0.621891  0  4.211412  0
C  C46  1  0.56758240  0.06925207  0.06989691  1  1.575134  0  0.230566  0.621983  0  4.16279  0
C  C47  1  0.31496588  0.06133043  0.05990976  1  1.569014  0  0.215953  0.62062  0  4.212782  0
C  C48  1  0.89994901  0.40452881  0.40223942  1  0.083743  0  -0.014507  -0.111333  0  3.954107  0
C  C49  1  0.84938099  0.34651752  0.34768035  1  0.084869  0  -0.014174  -0.111611  0  3.954781  0
C  C50  1  0.82868337  0.44608184  0.38719728  1  0.474502  0  0.106813  0.270089  0  4.041417  0
C  C51  1  0.92080358  0.30508476  0.36257343  1  0.490567  0  0.107428  0.271733  0  4.038054  0
C  C52  1  0.80401273  0.41788430  0.36065273  1  -0.063301  0  -0.085948  -0.200028  0  3.969527  0
C  C53  1  0.94541374  0.33324670  0.38916266  1  0.00231  0  -0.086621  -0.201402  0  3.969177  0
C  C54  1  0.09906100  0.59936014  0.59639719  1  0.092379  0  -0.01448  -0.111548  0  3.955524  0
C  C55  1  0.15104683  0.65088947  0.65342258  1  0.08446  0  -0.014062  -0.110873  0  3.958166  0
C  C56  1  0.14217824  0.64225849  0.58313576  1  0.456418  0  0.107115  0.270346  0  4.041306  0
C  C57  1  0.10789882  0.60803175  0.66668074  1  0.464422  0  0.107277  0.269569  0  4.042846  0
C  C58  1  0.16753621  0.66738440  0.61086407  1  -0.022652  0  -0.086018  -0.199558  0  3.968192  0
C  C59  1  0.08257448  0.58289396  0.63894681  1  0.001789  0  -0.085628  -0.197439  0  3.965509  0
C  C60  1  0.30515708  0.45389667  0.40042265  1  0.152717  0  0.011362  0.104227  0  4.077928  0
C  C61  1  0.44448567  0.29520361  0.34931042  1  0.135724  0  0.010713  0.104647  0  4.078469  0
C  C62  1  0.25832103  0.41567053  0.41363505  1  -0.134239  0  -0.028829  -0.186828  0  3.930249  0
C  C63  1  0.49135479  0.33338065  0.33608607  1  -0.119026  0  -0.028398  -0.185865  0  3.929184  0
C  C64  1  0.37659794  0.33919766  0.37278052  1  -0.097222  0  -0.027765  -0.072817  0  4.096366  0
C  C65  1  0.37306987  0.40985596  0.37696790  1  -0.14075  0  -0.02761  -0.072084  0  4.094025  0
C  C66  1  0.72552303  0.57583732  0.63078214  1  0.133734  0  0.010134  0.104096  0  4.080991  0
C  C67  1  0.52451177  0.67399394  0.62012702  1  0.163911  0  0.010988  0.106181  0  4.07654  0
C  C68  1  0.74296188  0.58506140  0.58817604  1  -0.110016  0  -0.028208  -0.185188  0  3.931226  0
C  C69  1  0.50715328  0.66493916  0.66275874  1  -0.138311  0  -0.028571  -0.186898  0  3.930578  0
C  C70  1  0.60423104  0.64147319  0.60847001  1  -0.120018  0  -0.027211  -0.07501  0  4.097058  0
C  C71  1  0.64581578  0.60834629  0.64240798  1  -0.114113  0  -0.027613  -0.072101  0  4.096475  0
C  C72  1  0.07671510  0.22460851  0.62989757  1  0.154326  0  0.010859  0.106076  0  4.076949  0
C  C73  1  0.17394157  0.02485929  0.61961246  1  0.145212  0  0.010389  0.104728  0  4.077752  0
C  C74  1  0.08591415  0.24247698  0.58727034  1  -0.057359  0  -0.028241  -0.186803  0  3.929974  0
C  C75  1  0.16454760  0.00710972  0.66222936  1  -0.119007  0  -0.028151  -0.186747  0  3.932248  0
C  C76  1  0.14184390  0.10425656  0.60784506  1  -0.114212  0  -0.027474  -0.071991  0  4.096716  0
C  C77  1  0.10887549  0.14519715  0.64165014  1  -0.174501  0  -0.027529  -0.074656  0  4.100008  0
C  C78  1  0.84181744  0.80179492  0.39686436  1  0.148218  0  0.010294  0.10396  0  4.083147  0
C  C79  1  0.90627491  0.94823829  0.35292497  1  0.087206  0  0.012016  0.10664  0  4.077633  0
C  C80  1  0.91031502  0.75858110  0.41360744  1  -0.113841  0  -0.028952  -0.188053  0  3.934657  0
C  C81  1  0.83774599  0.99132500  0.33616548  1  -0.097749  0  -0.028473  -0.186166  0  3.935131  0
C  C82  1  0.90778941  0.87895570  0.37502479  1  -0.06849  0  -0.027598  -0.074893  0  4.098415  0
C  C83  1  0.84050027  0.87089534  0.37466678  1  -0.120864  0  -0.027087  -0.071289  0  4.0989  0
C  C84  1  0.65419436  0.15278814  0.15101920  1  0.013627  0  -0.014637  -0.111515  0  3.952568  0
C  C85  1  0.59635519  0.09701156  0.09891690  1  0.061435  0  -0.014491  -0.111986  0  3.953391  0
C  C86  1  0.66707422  0.16636051  0.10786256  1  0.528341  0  0.10708  0.27063  0  4.040367  0
C  C87  1  0.58342231  0.08349143  0.14208760  1  0.480193  0  0.10666  0.270539  0  4.040413  0
C  C88  1  0.63896673  0.13925887  0.08248091  1  0.031071  0  -0.085639  -0.199285  0  3.967445  0
C  C89  1  0.61156457  0.11056016  0.16746252  1  0.016298  0  -0.085685  -0.199406  0  3.967411  0
C  C90  1  0.67386763  0.52503194  0.12032504  1  0.106139  0  0.011129  0.104868  0  4.079273  0
C  C91  1  0.57606790  0.72482446  0.13046870  1  0.153227  0  0.010654  0.10422  0  4.079653  0
C  C92  1  0.66498494  0.50735694  0.16297122  1  -0.09727  0  -0.028726  -0.186658  0  3.931185  0
C  C93  1  0.58516775  0.74255637  0.08783735  1  -0.118095  0  -0.027637  -0.185559  0  3.930817  0
C  C94  1  0.60848530  0.64544518  0.14227351  1  -0.115745  0  -0.027685  -0.071981  0  4.096797  0
C  C95  1  0.64137786  0.60442310  0.10850277  1  -0.127937  0  -0.027467  -0.074178  0  4.098887  0
C  C96  1  0.08298697  0.12334382  0.17776559  1  0.093718  0  0.010478  0.103141  0  4.080943  0
C  C97  1  0.16739624  0.12640654  0.07191023  1  0.083482  0  0.01051  0.104756  0  4.082704  0
C  C98  1  0.01043901  0.16266304  0.16507940  1  -0.075105  0  -0.027767  -0.184023  0  3.934232  0
C  C99  1  0.23998194  0.08707399  0.08449815  1  -0.025442  0  -0.028487  -0.185452  0  3.933708  0
C  C100  1  0.11016717  0.13959187  0.10596671  1  -0.148311  0  -0.02793  -0.073804  0  4.10091  0
C  C101  1  0.14030095  0.11013678  0.14372570  1  -0.164598  0  -0.026911  -0.072105  0  4.096602  0
C  C102  1  0.34544330  0.85035291  0.84749759  1  0.044049  0  -0.015098  -0.11297  0  3.954141  0
C  C103  1  0.40523427  0.89904479  0.90211916  1  0.056061  0  -0.015225  -0.113419  0  3.955562  0
C  C104  1  0.30429365  0.92103601  0.86232465  1  0.466515  0  0.106855  0.270523  0  4.039566  0
C  C105  1  0.44637767  0.82839832  0.88728692  1  0.459733  0  0.10739  0.27124  0  4.039632  0
C  C106  1  0.33332724  0.94478051  0.88891828  1  0.040673  0  -0.085317  -0.198564  0  3.966865  0
C  C107  1  0.41734749  0.80463489  0.86069502  1  0.032525  0  -0.085611  -0.199599  0  3.967316  0
C  C108  1  0.40868922  0.44793088  0.85322008  1  0.099767  0  0.009971  0.104215  0  4.080265  0
C  C109  1  0.34295655  0.30220037  0.89682175  1  0.107084  0  0.010948  0.104928  0  4.079659  0
C  C110  1  0.34037535  0.49160575  0.83639104  1  -0.077716  0  -0.028044  -0.18649  0  3.930631  0
C  C111  1  0.41129834  0.25854965  0.91366668  1  -0.104219  0  -0.028146  -0.184175  0  3.931047  0
C  C112  1  0.34199772  0.37134466  0.87478766  1  -0.096326  0  -0.027555  -0.073841  0  4.096421  0
C  C113  1  0.40952030  0.37888270  0.87531374  1  -0.129186  0  -0.027471  -0.071999  0  4.095935  0
C  C114  1  0.94371088  0.79586132  0.84958486  1  0.143712  0  0.010693  0.10398  0  4.07884  0
C  C115  1  0.80550038  0.95520995  0.90052940  1  0.134117  0  0.010354  0.10404  0  4.080558  0
C  C116  1  0.99070461  0.83382957  0.83606461  1  -0.118844  0  -0.028746  -0.186428  0  3.933048  0
C  C117  1  0.75847296  0.91732546  0.91410310  1  -0.124843  0  -0.028313  -0.186895  0  3.930967  0
C  C118  1  0.87303818  0.91085423  0.87697477  1  -0.103146  0  -0.027599  -0.072851  0  4.098933  0
C  C119  1  0.87609616  0.84022073  0.87310754  1  -0.097831  0  -0.027711  -0.073166  0  4.096616  0
S  S120  1  0.29738864  0.32619908  0.39739279  1  0.321263  0  0.094059  0.160024  0  2.771177  0
S  S121  1  0.45232188  0.42279883  0.35238265  1  0.300168  0  0.094958  0.160699  0  2.77124  0
S  S122  1  0.66201944  0.63315200  0.56243526  1  0.308673  0  0.097805  0.165626  0  2.770924  0
S  S123  1  0.58811287  0.61685066  0.68846384  1  0.304923  0  0.094946  0.161299  0  2.7728  0
S  S124  1  0.13366500  0.16229822  0.56174948  1  0.299795  0  0.094644  0.160878  0  2.771095  0
S  S125  1  0.11688167  0.08725245  0.68776000  1  0.304754  0  0.098029  0.166164  0  2.772422  0
S  S126  1  0.97277705  0.80248074  0.40226822  1  0.305656  0  0.097112  0.165189  0  2.772087  0
S  S127  1  0.77549215  0.94724570  0.34738120  1  0.308877  0  0.093986  0.159782  0  2.775981  0
S  S128  1  0.61699021  0.58758469  0.18842973  1  0.305015  0  0.093478  0.158919  0  2.772172  0
S  S129  1  0.63305648  0.66232673  0.06236205  1  0.303773  0  0.096697  0.163885  0  2.771246  0
S  S130  1  0.01232015  0.18334664  0.11175991  1  0.365659  0  0.09634  0.163236  0  2.774673  0
S  S131  1  0.23819199  0.06651143  0.13784623  1  0.332794  0  0.097505  0.164128  0  2.771802  0
S  S132  1  0.27745253  0.44821819  0.84749112  1  0.305163  0  0.097412  0.165183  0  2.771675  0
S  S133  1  0.47402953  0.30211041  0.90265724  1  0.30807  0  0.094656  0.160104  0  2.77599  0
S  S134  1  0.95222223  0.92346808  0.85201116  1  0.302977  0  0.096261  0.163163  0  2.773471  0
S  S135  1  0.79683686  0.82771565  0.89808795  1  0.306188  0  0.09709  0.164233  0  2.76994  0
Cl  Cl136  1  0.28726137  0.54208557  0.41002572  1  -0.150159  0  0.015118  -0.020549  0  1.490888  0
Cl  Cl137  1  0.46247357  0.20689660  0.33981778  1  -0.159274  0  0.011598  -0.025202  0  1.489748  0
Cl  Cl138  1  0.78876192  0.53157486  0.66630111  1  -0.155684  0  0.011554  -0.02545  0  1.492765  0
Cl  Cl139  1  0.46133962  0.71817978  0.58456733  1  -0.151442  0  0.011749  -0.025079  0  1.49245  0
Cl  Cl140  1  0.03282311  0.28685411  0.66535395  1  -0.15542  0  0.012032  -0.025035  0  1.492317  0
Cl  Cl141  1  0.21770613  0.96241707  0.58424755  1  -0.15074  0  0.011501  -0.025534  0  1.491951  0
Cl  Cl142  1  0.76676221  0.77839260  0.40116055  1  -0.149756  0  0.014639  -0.021328  0  1.491578  0
Cl  Cl143  1  0.98127938  0.97171539  0.34865478  1  -0.148546  0  0.014632  -0.021722  0  1.495263  0
Cl  Cl144  1  0.71725446  0.46262280  0.08495142  1  -0.150672  0  0.015025  -0.020886  0  1.491244  0
Cl  Cl145  1  0.53260644  0.78727123  0.16581566  1  -0.150903  0  0.014247  -0.021832  0  1.49032  0
Cl  Cl146  1  0.10445830  0.09313441  0.22716761  1  -0.144735  0  0.014609  -0.021404  0  1.494931  0
Cl  Cl147  1  0.14564102  0.15696606  0.02255267  1  -0.152661  0  0.011439  -0.025747  0  1.49387  0
Cl  Cl148  1  0.48409709  0.47080305  0.84904153  1  -0.15325  0  0.011713  -0.025286  0  1.48883  0
Cl  Cl149  1  0.26750308  0.27940572  0.90100746  1  -0.152534  0  0.011946  -0.025028  0  1.493301  0
Cl  Cl150  1  0.96132647  0.70763953  0.84016301  1  -0.14783  0  0.014733  -0.021359  0  1.489099  0
Cl  Cl151  1  0.78804707  0.04350947  0.90978372  1  -0.162203  0  0.011168  -0.025686  0  1.489171  0
O  O152  1  0.00037360  0.49927425  0.49976972  1  -1.231078  0  -0.570195  -1.03225  0  2.519695  0
O  O153  1  0.07671607  0.31571135  0.52292179  1  -1.166866  0  -0.319674  -0.546314  0  2.319264  0
O  O154  1  0.03334768  0.53098136  0.58542116  1  -1.171421  0  -0.312223  -0.540262  0  2.329313  0
O  O155  1  0.15498250  0.50545409  0.44988751  1  -1.167063  0  -0.312882  -0.536941  0  2.373102  0
O  O156  1  0.02849378  0.37529394  0.58079755  1  -1.15367  0  -0.313789  -0.537867  0  2.369859  0
O  O157  1  0.15350685  0.39197753  0.44603698  1  -1.169467  0  -0.320582  -0.546996  0  2.319118  0
O  O158  1  0.08414659  0.58729039  0.52957836  1  -1.145735  0  -0.307697  -0.53473  0  2.361782  0
O  O159  1  0.00329217  0.65791731  0.44918198  1  -1.168307  0  -0.317693  -0.540356  0  2.328581  0
O  O160  1  0.88624459  0.49592429  0.44316060  1  -1.165123  0  -0.30921  -0.536471  0  2.364386  0
O  O161  1  0.89037632  0.65196935  0.44732395  1  -1.176925  0  -0.313123  -0.538755  0  2.370824  0
O  O162  1  0.99592799  0.38773382  0.44127511  1  -1.175682  0  -0.313298  -0.543524  0  2.318579  0
O  O163  1  0.87678760  0.52687911  0.58146300  1  -1.167563  0  -0.314614  -0.54032  0  2.366301  0
O  O164  1  0.81493470  0.57622947  0.52386244  1  -1.137268  0  -0.316782  -0.539424  0  2.325017  0
O  O165  1  0.74892766  0.25089834  0.25009538  1  -1.230117  0  -0.570368  -1.032013  0  2.520692  0
O  O166  1  0.59623008  0.35711465  0.30404748  1  -1.168679  0  -0.319227  -0.5444  0  2.321987  0
O  O167  1  0.66549463  0.16368019  0.21835204  1  -1.163404  0  -0.311767  -0.540629  0  2.326649  0
O  O168  1  0.72580987  0.37467881  0.16959277  1  -1.175151  0  -0.31322  -0.537474  0  2.372366  0
O  O169  1  0.59429650  0.24431473  0.29905477  1  -1.167396  0  -0.314035  -0.538954  0  2.367552  0
O  O170  1  0.67275801  0.43431797  0.22729965  1  -1.17257  0  -0.320319  -0.546648  0  2.322964  0
O  O171  1  0.72158939  0.21861635  0.16437926  1  -1.156017  0  -0.308048  -0.535036  0  2.362852  0
O  O172  1  0.87795505  0.22318465  0.16904280  1  -1.172327  0  -0.317846  -0.541014  0  2.325197  0
O  O173  1  0.86211674  0.25373598  0.30816661  1  -1.156158  0  -0.308565  -0.533398  0  2.371806  0
O  O174  1  0.93380828  0.17319435  0.22856528  1  -1.140013  0  -0.312173  -0.533995  0  2.374635  0
O  O175  1  0.75358117  0.36310022  0.30848235  1  -1.165632  0  -0.312746  -0.544107  0  2.31691  0
O  O176  1  0.74581113  0.09153394  0.29938185  1  -1.171561  0  -0.319654  -0.544929  0  2.321786  0
O  O177  1  0.85717306  0.09854052  0.30380798  1  -1.152374  0  -0.312483  -0.533898  0  2.376982  0
O  O178  1  0.24957643  0.75043432  0.75037892  1  -1.233929  0  -0.570368  -1.03174  0  2.521975  0
O  O179  1  0.37352909  0.72258740  0.66918166  1  -1.160044  0  -0.314187  -0.538725  0  2.37021  0
O  O180  1  0.36283919  0.75660443  0.80772291  1  -1.174287  0  -0.313395  -0.542316  0  2.324798  0
O  O181  1  0.17206915  0.93432780  0.72655100  1  -1.152856  0  -0.317361  -0.541417  0  2.322908  0
O  O182  1  0.43472066  0.67543160  0.72706151  1  -1.170576  0  -0.319182  -0.544749  0  2.322189  0
O  O183  1  0.22207468  0.87420363  0.66891645  1  -1.162331  0  -0.314965  -0.5397  0  2.370574  0
O  O184  1  0.25128749  0.86294598  0.80788621  1  -1.156995  0  -0.308367  -0.536565  0  2.360997  0
O  O185  1  0.09455046  0.85807609  0.80297310  1  -1.168059  0  -0.317872  -0.541745  0  2.326206  0
O  O186  1  0.16578163  0.66290138  0.72027687  1  -1.140916  0  -0.307948  -0.535521  0  2.362907  0
O  O187  1  0.09465905  0.74343610  0.80026976  1  -1.168563  0  -0.31313  -0.536611  0  2.370019  0
O  O188  1  0.21713676  0.71881178  0.66449109  1  -1.174895  0  -0.311717  -0.539115  0  2.330641  0
O  O189  1  0.35961351  0.59935796  0.80367507  1  -1.153919  0  -0.314499  -0.541221  0  2.361085  0
O  O190  1  0.24799187  0.59188986  0.80039380  1  -1.169104  0  -0.317717  -0.541208  0  2.32798  0
O  O191  1  0.50063357  0.99950952  0.99986427  1  -1.230317  0  -0.569984  -1.031575  0  2.519842  0
O  O192  1  0.50264128  0.15875509  0.95081716  1  -1.169098  0  -0.319055  -0.543757  0  2.324755  0
O  O193  1  0.38867847  0.99394357  0.94073243  1  -1.167927  0  -0.312063  -0.540125  0  2.329751  0
O  O194  1  0.65450243  0.89324906  0.94691600  1  -1.156743  0  -0.318319  -0.542758  0  2.325813  0
O  O195  1  0.39251071  0.15029820  0.94525874  1  -1.162792  0  -0.313611  -0.53723  0  2.370103  0
O  O196  1  0.65537622  0.00699056  0.95085927  1  -1.171597  0  -0.314842  -0.541379  0  2.366218  0
O  O197  1  0.49849564  0.88590231  0.94265679  1  -1.161129  0  -0.308549  -0.537116  0  2.355613  0
O  O198  1  0.57889832  0.81529963  0.02354212  1  -1.156118  0  -0.318513  -0.542845  0  2.323967  0
O  O199  1  0.52901321  0.03117093  0.08552668  1  -1.154225  0  -0.307782  -0.534252  0  2.362696  0
O  O200  1  0.52454036  0.87541720  0.08098287  1  -1.161235  0  -0.3128  -0.537367  0  2.370102  0
O  O201  1  0.58461835  0.08660025  0.03158053  1  -1.157793  0  -0.312247  -0.541481  0  2.324842  0
O  O202  1  0.31659630  0.07447093  0.02087842  1  -1.152137  0  -0.314548  -0.539395  0  2.369512  0
O  O203  1  0.37236533  0.02738462  0.08053188  1  -1.173193  0  -0.317456  -0.539872  0  2.328307  0
F  F204  1  0.78105916  0.51552992  0.39802948  1  -0.619094  0  -0.09828  -0.13255  0  1.35054  0
F  F205  1  0.96860639  0.23577798  0.35161418  1  -0.622327  0  -0.098151  -0.132561  0  1.351564  0
F  F206  1  0.16085528  0.66074698  0.54263529  1  -0.622338  0  -0.098479  -0.132852  0  1.348465  0
F  F207  1  0.08921949  0.58955447  0.70718352  1  -0.617769  0  -0.098386  -0.132328  0  1.349284  0
F  F208  1  0.70754444  0.20662415  0.08922838  1  -0.622962  0  -0.098721  -0.133029  0  1.349266  0
F  F209  1  0.54278051  0.04338866  0.16072885  1  -0.620527  0  -0.098453  -0.132876  0  1.34988  0
F  F210  1  0.23452306  0.96904377  0.85114363  1  -0.620779  0  -0.098746  -0.132895  0  1.346657  0
F  F211  1  0.51625898  0.78056024  0.89836999  1  -0.620717  0  -0.098555  -0.132635  0  1.346375  0
