# generated using pymatgen
data_NiH36C24(NO)6
_symmetry_space_group_name_H-M   'P 1'
_cell_length_a   8.42165407
_cell_length_b   11.45207642
_cell_length_c   15.66126548
_cell_angle_alpha   89.99976973
_cell_angle_beta   89.99927046
_cell_angle_gamma   92.00147584
_symmetry_Int_Tables_number   1
_chemical_formula_structural   NiH36C24(NO)6
_chemical_formula_sum   'Ni2 H72 C48 N12 O12'
_cell_volume   1509.53593237
_cell_formula_units_Z   2
loop_
 _symmetry_equiv_pos_site_id
 _symmetry_equiv_pos_as_xyz
  1  'x, y, z'
loop_
 _atom_site_type_symbol
 _atom_site_label
 _atom_site_symmetry_multiplicity
 _atom_site_fract_x
 _atom_site_fract_y
 _atom_site_fract_z
 _atom_site_occupancy
 _atom_site_hle17_ddec_charge
 _atom_site_hle17_ddec_spin_density
 _atom_site_hle17_ddec_sum_bond_order
 _atom_site_hle17_magmom
 _atom_site_hse06_10hf_ddec_charge
 _atom_site_hse06_10hf_ddec_spin_density
 _atom_site_hse06_10hf_ddec_sum_bond_order
 _atom_site_hse06_10hf_magmom
 _atom_site_hse06_ddec_charge
 _atom_site_hse06_ddec_spin_density
 _atom_site_hse06_ddec_sum_bond_order
 _atom_site_hse06_magmom
 _atom_site_pbe_cm5_charge
 _atom_site_pbe_ddec_charge
 _atom_site_pbe_ddec_spin_density
 _atom_site_pbe_ddec_sum_bond_order
 _atom_site_pbe_magmom
Ni  Ni0  1  0.49999963  0.50000006  0.49999994  1  0.684836  -1.786286  2.106901  -1.441  0.671936  -1.82558  2.488138  -1.557  0.757116  -1.891549  2.430599  -1.65  0.645689  0.612888  -1.769456  2.528473  -1.483
Ni  Ni1  1  0.00000132  0.50000046  0.99999893  1  0.684872  1.786289  2.107309  1.441  0.671944  1.825565  2.488597  1.557  0.757123  1.891537  2.431044  1.65  0.645718  0.612881  1.768682  2.52894  1.483
H  H2  1  0.78308641  0.24549027  0.78935206  1  0.360973  -2.1e-05  0.945268  0.0  0.337615  -1.6e-05  1.018269  0.0  0.347474  -9e-06  1.003742  0.0  0.283825  0.330653  -2.7e-05  1.02854  0.0
H  H3  1  0.71691938  0.75450232  0.28935237  1  0.361239  2.2e-05  0.945251  0.0  0.33783  1.6e-05  1.01808  0.0  0.347699  9e-06  1.003532  0.0  0.28392  0.330873  2.6e-05  1.028346  0.0
H  H4  1  0.21691290  0.75451073  0.21064781  1  0.360952  -2.2e-05  0.945292  0.0  0.337594  -1.6e-05  1.018302  0.0  0.34745  -9e-06  1.003778  0.0  0.283818  0.33064  -2.2e-05  1.028564  0.0
H  H5  1  0.28308231  0.24549867  0.71064814  1  0.3613  2.1e-05  0.945151  0.0  0.337901  1.6e-05  1.017981  0.0  0.347775  9e-06  1.003424  0.0  0.283946  0.330958  2e-05  1.028223  0.0
H  H6  1  0.53872185  0.37754936  0.63228431  1  0.271578  0.000527  0.92698  0.002  0.260025  -0.000115  0.986593  0.001  0.267526  6.1e-05  0.981678  0.001  0.293165  0.254643  -0.0003  0.990243  0.0
H  H7  1  0.96126673  0.62245134  0.13228268  1  0.271575  -0.000526  0.926881  -0.002  0.259973  0.000115  0.986553  -0.001  0.267467  -6.2e-05  0.981646  -0.001  0.293167  0.254582  0.000281  0.990212  0.0
H  H8  1  0.46127633  0.62245252  0.36771748  1  0.27156  0.000525  0.926971  0.002  0.260007  -0.000115  0.986601  0.001  0.267506  6.2e-05  0.981688  0.001  0.293175  0.254627  -0.000293  0.990266  0.0
H  H9  1  0.03873728  0.37754876  0.86771592  1  0.271583  -0.000525  0.92689  -0.002  0.259965  0.000115  0.986554  -0.001  0.267463  -6.2e-05  0.981643  -0.001  0.293198  0.254601  0.000292  0.990198  0.0
H  H10  1  0.62681403  0.32323110  0.44059779  1  0.253887  0.001014  0.88853  0.002  0.254798  9.1e-05  0.929909  0.001  0.259985  0.000216  0.927891  0.001  0.30467  0.250976  -3.5e-05  0.931698  0.0
H  H11  1  0.87318372  0.67676583  0.94059817  1  0.253809  -0.001013  0.888602  -0.002  0.254751  -9.1e-05  0.930006  -0.001  0.259938  -0.000216  0.927991  -0.001  0.304628  0.250942  3.5e-05  0.931779  0.0
H  H12  1  0.37318523  0.67676903  0.55940209  1  0.253845  0.001013  0.888559  0.002  0.254769  9.1e-05  0.92996  0.001  0.259956  0.000216  0.927942  0.001  0.304659  0.250966  -3.7e-05  0.931717  0.0
H  H13  1  0.12681668  0.32323342  0.05939979  1  0.253813  -0.001013  0.888588  -0.002  0.254734  -9.1e-05  0.929987  -0.001  0.259921  -0.000216  0.927971  -0.001  0.3046  0.250919  3.5e-05  0.931762  0.0
H  H14  1  0.57360298  0.62719848  0.67478806  1  0.061541  5.8e-05  0.925776  0.0  0.079526  0.00011  0.986788  0.0  0.080347  8.9e-05  0.985849  0.0  0.103551  0.078783  0.000126  0.987675  0.0
H  H15  1  0.92639409  0.37280189  0.17478866  1  0.061534  -5.6e-05  0.925826  0.0  0.079511  -0.00011  0.986837  0.0  0.080334  -8.9e-05  0.985896  0.0  0.103558  0.078767  -0.000131  0.987719  0.0
H  H16  1  0.42639639  0.37280340  0.32521373  1  0.061522  5.7e-05  0.925791  0.0  0.079489  0.00011  0.986834  0.0  0.080312  8.9e-05  0.985894  0.0  0.10353  0.078757  0.000127  0.987715  0.0
H  H17  1  0.07360868  0.62719734  0.82520930  1  0.061525  -6e-05  0.925846  0.0  0.07951  -0.00011  0.986853  0.0  0.080333  -8.9e-05  0.985913  0.0  0.103549  0.078754  -0.000132  0.987741  0.0
H  H18  1  0.51706441  0.51196061  0.74640013  1  0.058099  -0.002022  0.931153  -0.003  0.076737  -0.001398  0.992603  -0.002  0.076992  -0.001008  0.992721  -0.001  0.101041  0.076428  -0.00174  0.99275  -0.002
H  H19  1  0.98293132  0.48804543  0.24639810  1  0.058105  0.002027  0.931194  0.003  0.076728  0.001398  0.992641  0.002  0.076981  0.001009  0.992763  0.001  0.101031  0.076435  0.001736  0.992774  0.002
H  H20  1  0.48293259  0.48804128  0.25360102  1  0.058122  -0.002023  0.931127  -0.003  0.076747  -0.001398  0.99259  -0.002  0.077004  -0.001008  0.992708  -0.001  0.101049  0.076446  -0.00174  0.992729  -0.002
H  H21  1  0.01707270  0.51195466  0.75359986  1  0.058132  0.002019  0.931134  0.003  0.076758  0.001398  0.992586  0.002  0.077013  0.001009  0.992708  0.001  0.101013  0.076425  0.001703  0.99271  0.002
H  H22  1  0.80119022  0.55358882  0.60826849  1  0.052163  -0.000269  0.953807  -0.001  0.064521  -0.000248  1.027464  -0.001  0.064838  -0.000155  1.026275  0.0  0.110021  0.064119  -0.000338  1.028509  -0.001
H  H23  1  0.69880787  0.44640235  0.10826598  1  0.052187  0.00027  0.953634  0.001  0.064497  0.000248  1.027332  0.001  0.064833  0.000156  1.026131  0.0  0.110024  0.064072  0.000347  1.02839  0.001
H  H24  1  0.19881142  0.44641129  0.39173138  1  0.052127  -0.00027  0.953821  -0.001  0.064472  -0.000248  1.027495  -0.001  0.064781  -0.000155  1.026322  0.0  0.10999  0.064068  -0.000352  1.028527  -0.001
H  H25  1  0.30119836  0.55359511  0.89173262  1  0.052194  0.00027  0.953621  0.001  0.064574  0.000248  1.027288  0.001  0.064892  0.000156  1.026098  0.0  0.110045  0.06415  0.000349  1.028351  0.001
H  H26  1  0.79845135  0.44125798  0.68881068  1  0.050011  -0.002893  0.968807  -0.004  0.062314  -0.002088  1.039038  -0.003  0.062419  -0.001537  1.038162  -0.002  0.108134  0.062166  -0.002564  1.03982  -0.003
H  H27  1  0.70154369  0.55873357  0.18880847  1  0.050009  0.002893  0.968837  0.004  0.062378  0.002088  1.038935  0.003  0.062487  0.001537  1.038068  0.002  0.10814  0.062209  0.002552  1.039715  0.003
H  H28  1  0.20154905  0.55874126  0.31118983  1  0.050002  -0.002893  0.968822  -0.004  0.062301  -0.002088  1.039054  -0.003  0.062407  -0.001537  1.038176  -0.002  0.108131  0.062147  -0.002561  1.039848  -0.003
H  H29  1  0.29846017  0.44126390  0.81118885  1  0.049996  0.002895  0.968824  0.004  0.062371  0.002089  1.03898  0.003  0.062482  0.001537  1.038109  0.002  0.108156  0.062219  0.002561  1.039752  0.003
H  H30  1  0.91448932  0.36127313  0.44194465  1  0.042175  -0.002828  0.926969  -0.004  0.055054  -0.002219  0.997469  -0.003  0.054867  -0.001636  0.997036  -0.002  0.102357  0.055126  -0.002764  0.99795  -0.003
H  H31  1  0.58551295  0.63872026  0.94194202  1  0.042174  0.00283  0.926935  0.004  0.055087  0.002219  0.997454  0.003  0.054898  0.001636  0.997025  0.002  0.102398  0.055201  0.002755  0.997933  0.003
H  H32  1  0.08550866  0.63872525  0.55805586  1  0.042158  -0.002827  0.927009  -0.004  0.055059  -0.002219  0.997492  -0.003  0.054871  -0.001636  0.99706  -0.002  0.102388  0.055155  -0.002746  0.997972  -0.003
H  H33  1  0.41448859  0.36127811  0.05805658  1  0.042216  0.002829  0.926964  0.004  0.055117  0.002219  0.997454  0.003  0.054929  0.001636  0.99702  0.002  0.102382  0.055187  0.002731  0.99794  0.003
H  H34  1  0.87189322  0.50860335  0.46910523  1  0.067065  -0.000206  0.933534  -0.001  0.076727  -0.000202  1.007238  0.0  0.077144  -0.000132  1.00667  0.0  0.117051  0.07634  -0.00027  1.007759  -0.001
H  H35  1  0.62810840  0.49138987  0.96910209  1  0.067131  0.00021  0.933545  0.001  0.076851  0.000202  1.00718  0.0  0.07727  0.000132  1.006611  0.0  0.117151  0.076487  0.000279  1.007715  0.001
H  H36  1  0.12810718  0.49139590  0.53089529  1  0.067067  -0.000204  0.933533  -0.001  0.076731  -0.000202  1.007243  0.0  0.077148  -0.000132  1.006673  0.0  0.117061  0.076346  -0.000277  1.007751  -0.001
H  H37  1  0.37189546  0.50860760  0.03089587  1  0.067163  0.000206  0.933582  0.001  0.076861  0.000202  1.007203  0.0  0.077279  0.000132  1.006635  0.0  0.117111  0.076462  0.000267  1.00775  0.001
H  H38  1  0.27744563  0.61604415  0.69750054  1  0.047969  -0.001834  0.925655  -0.003  0.067404  -0.001385  0.9853  -0.002  0.067664  -0.000998  0.98516  -0.001  0.095505  0.06714  -0.001738  0.985587  -0.002
H  H39  1  0.22255325  0.38396181  0.19749741  1  0.047825  0.001834  0.925724  0.003  0.067382  0.001385  0.985302  0.002  0.067643  0.000998  0.985159  0.001  0.095502  0.067117  0.001713  0.985585  0.002
H  H40  1  0.72255503  0.38395946  0.30249997  1  0.047966  -0.001832  0.925669  -0.003  0.067423  -0.001385  0.985309  -0.002  0.06768  -0.000998  0.985171  -0.001  0.095537  0.067167  -0.001731  0.985596  -0.002
H  H41  1  0.77745072  0.61603742  0.80249991  1  0.04789  0.001835  0.925646  0.003  0.067381  0.001385  0.98527  0.002  0.067639  0.000998  0.985131  0.001  0.095521  0.067135  0.00173  0.985553  0.002
H  H42  1  0.27208235  0.46963079  0.65899175  1  0.081315  3e-05  0.919728  0.0  0.097212  6.2e-05  0.983245  0.0  0.098275  5.1e-05  0.982595  0.0  0.11332  0.096272  6.6e-05  0.983981  0.0
H  H43  1  0.22791383  0.53037456  0.15899135  1  0.081266  -3.4e-05  0.919821  0.0  0.097211  -6.2e-05  0.983341  0.0  0.098277  -5.2e-05  0.982674  0.0  0.113317  0.09625  -7.3e-05  0.984104  0.0
H  H44  1  0.72791475  0.53037285  0.34100940  1  0.081317  3.3e-05  0.919768  0.0  0.097223  6.2e-05  0.983293  0.0  0.098293  5.2e-05  0.982627  0.0  0.113311  0.096279  6.8e-05  0.984043  0.0
H  H45  1  0.77209013  0.46962466  0.84100597  1  0.081259  -3.3e-05  0.919771  0.0  0.097203  -6.2e-05  0.983267  0.0  0.098269  -5.2e-05  0.982599  0.0  0.11331  0.096248  -7.6e-05  0.984032  0.0
H  H46  1  0.86953073  0.21169956  0.53427728  1  0.054745  -5.2e-05  0.97888  0.0  0.068781  -6.2e-05  1.050308  0.0  0.067152  -4.7e-05  1.054112  0.0  0.097531  0.069899  -7.6e-05  1.047724  0.0
H  H47  1  0.63045256  0.78829305  0.03428000  1  0.05477  5e-05  0.978774  0.0  0.068792  6.2e-05  1.050257  0.0  0.067165  4.7e-05  1.054064  0.0  0.097542  0.069904  7.6e-05  1.047684  0.0
H  H48  1  0.13046735  0.78830058  0.46572387  1  0.054791  -5.4e-05  0.978746  0.0  0.068794  -6.2e-05  1.050226  0.0  0.067167  -4.7e-05  1.054033  0.0  0.097519  0.069902  -9.2e-05  1.047633  0.0
H  H49  1  0.36954537  0.21170446  0.96572051  1  0.054753  4.8e-05  0.97882  0.0  0.068769  6.2e-05  1.050281  0.0  0.067143  4.7e-05  1.054089  0.0  0.097568  0.069893  8.4e-05  1.047706  0.0
H  H50  1  0.67396964  0.23300967  0.57304363  1  0.06212  9.2e-05  0.926467  0.0  0.077441  7e-05  0.988203  0.0  0.07834  6.1e-05  0.987297  0.0  0.096266  0.076694  7.5e-05  0.98903  0.0
H  H51  1  0.82601536  0.76698705  0.07304315  1  0.062108  -9.4e-05  0.926446  0.0  0.077412  -6.9e-05  0.988231  0.0  0.07831  -6e-05  0.987328  0.0  0.096282  0.076668  -7.2e-05  0.98907  0.0
H  H52  1  0.32602844  0.76699047  0.42695625  1  0.062139  8.6e-05  0.92646  0.0  0.077477  7e-05  0.988192  0.0  0.078377  6.1e-05  0.987286  0.0  0.096276  0.076723  7.8e-05  0.989032  0.0
H  H53  1  0.17398505  0.23301219  0.92695545  1  0.062126  -9e-05  0.926465  0.0  0.077419  -7e-05  0.988235  0.0  0.078316  -6.1e-05  0.987329  0.0  0.096278  0.076683  -6.9e-05  0.989071  0.0
H  H54  1  0.86220117  0.12483692  0.66863886  1  0.029317  9e-06  0.937092  0.0  0.043665  9e-06  1.001515  0.0  0.043416  6e-06  1.001869  0.0  0.084868  0.0438  8e-06  1.001342  0.0
H  H55  1  0.63778593  0.87515306  0.16864192  1  0.029291  -1e-05  0.93714  0.0  0.04362  -9e-06  1.001531  0.0  0.043378  -6e-06  1.00188  0.0  0.084818  0.043742  -2.9e-05  1.001348  0.0
H  H56  1  0.13779448  0.87516236  0.33136229  1  0.029303  1.6e-05  0.937122  0.0  0.043639  9e-06  1.001528  0.0  0.043395  6e-06  1.001882  0.0  0.084854  0.043767  -6e-06  1.001342  0.0
H  H57  1  0.36221313  0.12484357  0.83135796  1  0.029325  -3e-06  0.937153  0.0  0.043648  -9e-06  1.001555  0.0  0.043406  -6e-06  1.001919  0.0  0.084877  0.043796  -3e-06  1.001385  0.0
H  H58  1  0.96819579  0.25979636  0.68645295  1  0.049143  -9e-06  0.933759  0.0  0.062315  -2e-05  1.001126  0.0  0.063172  -1.3e-05  1.000159  0.0  0.093483  0.061588  -2.6e-05  1.001977  0.0
H  H59  1  0.53179801  0.74019346  0.18645841  1  0.049151  7e-06  0.933775  0.0  0.062307  2e-05  1.001113  0.0  0.063148  1.3e-05  1.000177  0.0  0.093488  0.061554  1.7e-05  1.001969  0.0
H  H60  1  0.03180223  0.74020290  0.31354692  1  0.049194  -2e-06  0.933717  0.0  0.062347  -2e-05  1.001071  0.0  0.063205  -1.3e-05  1.000114  0.0  0.093486  0.06161  -2.6e-05  1.001932  0.0
H  H61  1  0.46820337  0.25980228  0.81354147  1  0.049141  1.2e-05  0.933838  0.0  0.062294  2e-05  1.001177  0.0  0.063154  1.3e-05  1.000235  0.0  0.093487  0.061569  2.1e-05  1.00202  0.0
H  H62  1  0.82293697  0.75561345  0.61441769  1  0.089495  -0.000144  0.966518  0.0  0.097514  -0.000136  1.033068  0.0  0.101739  -7.8e-05  1.029389  0.0  0.096068  0.09434  -0.000252  1.035875  0.0
H  H63  1  0.67706397  0.24438815  0.11441847  1  0.089459  0.000143  0.966496  0.0  0.097477  0.000136  1.033049  0.0  0.101701  7.8e-05  1.029375  0.0  0.096126  0.094373  0.000204  1.035843  0.0
H  H64  1  0.17705621  0.24438409  0.38558665  1  0.089545  -0.000141  0.966516  0.0  0.097532  -0.000136  1.033094  0.0  0.101755  -7.8e-05  1.029419  0.0  0.096116  0.094395  -0.000226  1.035908  0.0
H  H65  1  0.32294015  0.75561369  0.88557949  1  0.089468  0.000142  0.966497  0.0  0.097474  0.000136  1.033071  0.0  0.1017  7.8e-05  1.029391  0.0  0.096109  0.094365  0.0002  1.035861  0.0
H  H66  1  0.02808335  0.90396942  0.66251020  1  0.094291  -1e-06  0.937247  0.0  0.107559  -6e-06  0.990509  0.0  0.110734  -2e-06  0.989281  0.0  0.101873  0.105234  -9e-06  0.991621  0.0
H  H67  1  0.47191017  0.09603242  0.16250682  1  0.094344  2e-06  0.937252  0.0  0.107625  6e-06  0.990485  0.0  0.110799  2e-06  0.989257  0.0  0.101908  0.105322  4e-06  0.991559  0.0
H  H68  1  0.97190518  0.09602990  0.33749542  1  0.094309  1e-06  0.937257  0.0  0.107579  -6e-06  0.990508  0.0  0.110753  -2e-06  0.989281  0.0  0.101862  0.105253  -1.2e-05  0.991615  0.0
H  H69  1  0.52809276  0.90396943  0.83749242  1  0.094402  4e-06  0.937223  0.0  0.107642  6e-06  0.990509  0.0  0.110815  2e-06  0.989283  0.0  0.101937  0.105356  1.2e-05  0.991583  0.0
H  H70  1  0.80036601  0.91974423  0.36852042  1  0.107232  -1.3e-05  0.944127  0.0  0.115665  -5e-06  1.006422  0.0  0.119953  -4e-06  1.003021  0.0  0.109714  0.112528  -7e-06  1.009003  0.0
H  H71  1  0.69963016  0.08025753  0.86851541  1  0.107143  1.5e-05  0.944288  0.0  0.115594  5e-06  1.006558  0.0  0.119881  4e-06  1.003156  0.0  0.109688  0.112485  9e-06  1.009119  0.0
H  H72  1  0.19962624  0.08025768  0.63148457  1  0.107198  -1.3e-05  0.944263  0.0  0.11563  -5e-06  1.006537  0.0  0.119916  -4e-06  1.003141  0.0  0.109694  0.112499  -7e-06  1.009122  0.0
H  H73  1  0.30036808  0.91974523  0.13148063  1  0.107179  1.3e-05  0.944179  0.0  0.115612  5e-06  1.006476  0.0  0.119899  4e-06  1.003077  0.0  0.109681  0.112497  6e-06  1.009032  0.0
C  C74  1  0.50961112  0.54189163  0.67959325  1  0.015145  0.001298  3.642689  0.004  -0.043082  -0.000212  3.912737  0.001  -0.038483  0.000132  3.925001  0.002  -0.068791  -0.046154  -0.000569  3.904373  0.001
C  C75  1  0.99038362  0.45811135  0.17958997  1  0.015064  -0.001318  3.642878  -0.004  -0.0431  0.000214  3.912908  -0.001  -0.038502  -0.00013  3.925169  -0.002  -0.068787  -0.046162  0.000541  3.90452  -0.001
C  C76  1  0.49038706  0.45811025  0.32040854  1  0.015118  0.001305  3.642705  0.004  -0.043087  -0.000213  3.912791  0.001  -0.038488  0.000131  3.925049  0.002  -0.068816  -0.046172  -0.000572  3.904429  0.001
C  C77  1  0.00962034  0.54188788  0.82040798  1  0.015029  -0.001288  3.642872  -0.004  -0.043181  0.000213  3.912902  -0.001  -0.038582  -0.000131  3.925157  -0.002  -0.068866  -0.046273  0.000485  3.904506  -0.001
C  C78  1  0.76056728  0.46395979  0.62399163  1  0.127351  0.001686  3.667411  0.004  0.050929  9.9e-05  3.938639  0.002  0.061747  0.000431  3.947765  0.002  0.016405  0.043594  -0.000236  3.932452  0.002
C  C79  1  0.73943287  0.53603214  0.12398858  1  0.127345  -0.001686  3.667202  -0.004  0.05097  -0.0001  3.938327  -0.002  0.061759  -0.000433  3.947459  -0.002  0.016386  0.043625  0.000235  3.932132  -0.002
C  C80  1  0.23943436  0.53604032  0.37600889  1  0.127447  0.001688  3.667355  0.004  0.051056  0.0001  3.938554  0.002  0.061874  0.000432  3.94768  0.002  0.016454  0.043703  -0.000245  3.932367  0.002
C  C81  1  0.26056981  0.46396534  0.87600938  1  0.12733  -0.001695  3.667113  -0.004  0.050738  -9.9e-05  3.938521  -0.002  0.061545  -0.000432  3.947656  -0.002  0.016353  0.04339  0.000236  3.93233  -0.002
C  C82  1  0.83084557  0.41697024  0.47626776  1  0.130556  0.001746  3.666877  0.004  0.056499  0.000174  3.943693  0.002  0.06719  0.000475  3.952545  0.002  0.022787  0.049105  -0.000152  3.937769  0.002
C  C83  1  0.66915706  0.58302293  0.97626471  1  0.130548  -0.00176  3.666705  -0.004  0.056338  -0.000173  3.943841  -0.002  0.067034  -0.000475  3.952689  -0.002  0.022748  0.048957  0.000193  3.937943  -0.002
C  C84  1  0.16915245  0.58302902  0.52373276  1  0.130556  0.001734  3.666861  0.004  0.056468  0.000174  3.94373  0.002  0.067162  0.000475  3.95258  0.002  0.022765  0.049063  -0.000155  3.93782  0.002
C  C85  1  0.33084680  0.41697455  0.02373325  1  0.130292  -0.001755  3.666959  -0.004  0.056184  -0.000173  3.943885  -0.002  0.066879  -0.000475  3.952735  -0.002  0.022669  0.048765  0.000123  3.937996  -0.002
C  C86  1  0.33582107  0.55489378  0.65399181  1  0.009999  0.001202  3.63943  0.003  -0.049518  -0.000208  3.914463  0.001  -0.045228  0.000141  3.926251  0.002  -0.069607  -0.052447  -0.000567  3.906527  0.001
C  C87  1  0.16417405  0.44511161  0.15398954  1  0.010301  -0.00119  3.639303  -0.003  -0.049451  0.000208  3.914573  -0.001  -0.045154  -0.000141  3.926357  -0.002  -0.0696  -0.052393  0.000522  3.906631  -0.001
C  C88  1  0.66417711  0.44510810  0.34600934  1  0.010011  0.001193  3.639414  0.003  -0.049583  -0.000208  3.914523  0.001  -0.045288  0.00014  3.926309  0.002  -0.069637  -0.052515  -0.000569  3.906599  0.001
C  C89  1  0.83583002  0.55488936  0.84600842  1  0.01022  -0.001199  3.639332  -0.003  -0.049414  0.000209  3.914571  -0.001  -0.045115  -0.000141  3.926355  -0.002  -0.069577  -0.052365  0.000527  3.906644  -0.001
C  C90  1  0.80084689  0.25954818  0.58161717  1  -0.036405  9.5e-05  3.668471  0.0  -0.093424  4.4e-05  3.933314  0.0  -0.090209  4.8e-05  3.945659  0.0  -0.07613  -0.095479  3.4e-05  3.924632  0.0
C  C91  1  0.69914471  0.74044320  0.08161892  1  -0.036298  -8.9e-05  3.66841  0.0  -0.093438  -4.6e-05  3.933377  0.0  -0.090224  -5e-05  3.945735  0.0  -0.076219  -0.095515  -5.1e-05  3.924718  0.0
C  C92  1  0.19915346  0.74045019  0.41838206  1  -0.036429  0.000112  3.668332  0.0  -0.093513  4.4e-05  3.93326  0.0  -0.090297  4.8e-05  3.945614  0.0  -0.076182  -0.095586  1.6e-05  3.924583  0.0
C  C93  1  0.30085559  0.25955430  0.91838159  1  -0.036396  -8.4e-05  3.668519  0.0  -0.093455  -4.5e-05  3.933403  0.0  -0.09023  -4.9e-05  3.945759  0.0  -0.076197  -0.095506  -2.8e-05  3.924745  0.0
C  C94  1  0.85032483  0.22060823  0.67025038  1  0.131185  -6.5e-05  3.665551  0.0  0.07723  -8.7e-05  3.939959  0.0  0.083948  -6.2e-05  3.946105  0.0  -0.082064  0.072705  -0.000122  3.935628  0.0
C  C95  1  0.64965986  0.77938175  0.17024980  1  0.131226  7.1e-05  3.665452  0.0  0.077459  8.8e-05  3.939602  0.0  0.084166  6.3e-05  3.945779  0.0  -0.081974  0.072924  5.4e-05  3.935249  0.0
C  C96  1  0.14967083  0.77939104  0.32975013  1  0.131089  -9.5e-05  3.665601  0.0  0.077236  -8.7e-05  3.9399  0.0  0.083935  -6.2e-05  3.946071  0.0  -0.082076  0.072693  -0.000143  3.935567  0.0
C  C97  1  0.35034033  0.22061400  0.82975007  1  0.131192  4.6e-05  3.665491  0.0  0.077406  8.7e-05  3.939665  0.0  0.084072  6.3e-05  3.945878  0.0  -0.081964  0.072887  0.000122  3.93534  0.0
C  C98  1  0.67986267  0.73671923  0.45919129  1  0.630201  0.001879  3.912537  0.004  0.583619  -0.000265  4.214075  0.001  0.619433  -0.000119  4.20596  0.001  0.205835  0.558805  -0.000265  4.218937  0.001
C  C99  1  0.82014434  0.26328101  0.95918238  1  0.630255  -0.001878  3.913082  -0.004  0.583674  0.000264  4.214614  -0.001  0.619488  0.000119  4.20649  -0.001  0.205824  0.558834  0.000253  4.219531  -0.001
C  C100  1  0.32013076  0.26328268  0.54080986  1  0.630285  0.001881  3.91222  0.004  0.58368  -0.000265  4.21377  0.001  0.619491  -0.000119  4.205652  0.001  0.205892  0.558842  -0.000249  4.218674  0.001
C  C101  1  0.17985627  0.73672173  0.04081622  1  0.630208  -0.001874  3.913226  -0.004  0.583617  0.000264  4.214784  -0.001  0.619422  0.000118  4.206674  -0.001  0.205833  0.558787  0.000231  4.219653  -0.001
C  C102  1  0.80018132  0.82903994  0.48810795  1  -0.055763  -0.004896  3.757507  -0.006  -0.034185  -0.003063  3.99058  -0.004  -0.04094  -0.002238  4.012443  -0.003  -0.019744  -0.030001  -0.003831  3.976342  -0.005
C  C103  1  0.69982159  0.17096276  0.98811098  1  -0.055673  0.004902  3.757244  0.006  -0.034167  0.003065  3.990428  0.004  -0.040894  0.002238  4.012246  0.003  -0.01975  -0.029961  0.003847  3.976204  0.005
C  C104  1  0.19981546  0.17095845  0.51189576  1  -0.05577  -0.004869  3.757459  -0.006  -0.03416  -0.003064  3.990519  -0.004  -0.040876  -0.002236  4.012317  -0.003  -0.019798  -0.029966  -0.003832  3.976294  -0.005
C  C105  1  0.30018485  0.82903819  0.01188698  1  -0.05565  0.004865  3.757161  0.006  -0.03415  0.003065  3.990362  0.004  -0.040883  0.002238  4.012195  0.003  -0.019746  -0.029958  0.003826  3.976121  0.005
C  C106  1  0.86519890  0.82518989  0.57179701  1  -0.086607  0.0003  3.786525  0.001  -0.110146  -8.4e-05  4.039643  0.0  -0.109908  -1e-06  4.058651  0.0  -0.09464  -0.110357  -0.000284  4.027208  0.0
C  C107  1  0.63480166  0.17480849  0.07179572  1  -0.086571  -0.000296  3.786644  -0.001  -0.110095  8.4e-05  4.039799  0.0  -0.109863  2e-06  4.0588  0.0  -0.094588  -0.110288  0.000185  4.027358  0.0
C  C108  1  0.13479443  0.17481028  0.42820670  1  -0.086776  0.000268  3.786383  0.001  -0.1103  -8.4e-05  4.039503  0.0  -0.110071  -2e-06  4.058498  0.0  -0.094696  -0.110508  -0.000238  4.027088  0.0
C  C109  1  0.36520715  0.82519245  0.92820160  1  -0.086595  -0.000252  3.786648  0.0  -0.11011  8.4e-05  4.039804  0.0  -0.109878  2e-06  4.058807  0.0  -0.094584  -0.110292  0.000184  4.027366  0.0
C  C110  1  0.97863014  0.90695891  0.59810472  1  -0.12436  -0.000208  3.775489  0.0  -0.143967  -0.000108  4.02775  0.0  -0.146983  -0.000106  4.048034  0.0  -0.092238  -0.14206  -0.000159  4.014282  0.0
C  C111  1  0.52136752  0.09304106  0.09810381  1  -0.124366  0.000203  3.775535  0.0  -0.144014  0.000108  4.027757  0.0  -0.14703  0.000106  4.048043  0.0  -0.092216  -0.142066  0.000103  4.014234  0.0
C  C112  1  0.02136319  0.09304125  0.40189899  1  -0.124204  -0.000183  3.775478  0.0  -0.143806  -0.000109  4.027713  0.0  -0.14682  -0.000105  4.048002  0.0  -0.092124  -0.141886  -0.000165  4.014235  0.0
C  C113  1  0.47864005  0.90695901  0.90189607  1  -0.124428  0.000156  3.775551  0.0  -0.144047  0.000108  4.027773  0.0  -0.147061  0.000106  4.048058  0.0  -0.092243  -0.142117  0.000132  4.01429  0.0
C  C114  1  0.85005729  0.91722035  0.43284392  1  -0.105559  0.000727  3.692494  0.001  -0.135611  3.9e-05  3.938317  0.0  -0.135653  6.8e-05  3.95668  0.0  -0.075006  -0.135499  0.000106  3.926091  0.0
C  C115  1  0.64994349  0.08278447  0.93283733  1  -0.105519  -0.000741  3.692421  -0.001  -0.135613  -4.1e-05  3.938238  0.0  -0.135662  -6.8e-05  3.956591  0.0  -0.074905  -0.135491  -0.000116  3.926  0.0
C  C116  1  0.14993862  0.08278329  0.56716107  1  -0.105512  0.000698  3.692772  0.001  -0.135583  4e-05  3.938581  0.0  -0.135634  6.7e-05  3.956932  0.0  -0.074919  -0.135477  0.000115  3.926364  0.0
C  C117  1  0.35005939  0.91721651  0.06715935  1  -0.105555  -0.000697  3.692372  -0.001  -0.135627  -4.1e-05  3.9382  0.0  -0.135676  -6.8e-05  3.956557  0.0  -0.074909  -0.135501  -0.000138  3.925935  0.0
C  C118  1  0.03343331  0.99742328  0.54213280  1  0.055347  -8.1e-05  3.789198  0.0  0.072261  -9.4e-05  4.017278  0.0  0.072105  -5.9e-05  4.041123  0.0  -0.005572  0.072332  -0.000137  4.001205  0.0
C  C119  1  0.46656076  0.00258020  0.04212589  1  0.055144  8.6e-05  3.789483  0.0  0.072129  9.4e-05  4.017401  0.0  0.07197  5.9e-05  4.041247  0.0  -0.005663  0.072206  9.8e-05  4.001318  0.0
C  C120  1  0.96656384  0.00258123  0.45787474  1  0.05502  -0.00011  3.789349  0.0  0.071912  -9.3e-05  4.017484  0.0  0.071752  -5.9e-05  4.041332  0.0  -0.005736  0.07199  -0.000141  4.001394  0.0
C  C121  1  0.53344099  0.99742166  0.95787334  1  0.055165  0.000114  3.789462  0.0  0.072168  9.4e-05  4.017349  0.0  0.072009  6e-05  4.041194  0.0  -0.005656  0.072245  0.00012  4.0013  0.0
N  N122  1  0.58421129  0.46101559  0.62008259  1  -0.404681  -0.062581  3.242726  -0.091  -0.359971  -0.041974  3.516619  -0.062  -0.387524  -0.034263  3.528007  -0.052  -0.499266  -0.340939  -0.047595  3.508755  -0.068
N  N123  1  0.91578435  0.53897902  0.12007960  1  -0.404728  0.062573  3.243073  0.091  -0.359949  0.041971  3.516862  0.062  -0.387494  0.034262  3.528263  0.052  -0.499311  -0.340922  0.047492  3.508996  0.068
N  N124  1  0.41578921  0.53898540  0.37991856  1  -0.404684  -0.062576  3.242861  -0.091  -0.359978  -0.041973  3.516732  -0.062  -0.38753  -0.034263  3.528125  -0.052  -0.499236  -0.340912  -0.047536  3.508864  -0.068
N  N125  1  0.08421966  0.46102108  0.87991900  1  -0.404781  0.06256  3.243232  0.091  -0.359865  0.041971  3.517005  0.062  -0.38741  0.034263  3.528396  0.052  -0.499313  -0.34082  0.04752  3.509114  0.068
N  N126  1  0.83280909  0.38460977  0.56509076  1  -0.262104  9e-06  3.302136  -0.001  -0.190084  -0.000201  3.577015  -0.001  -0.207198  -8.4e-05  3.596055  -0.001  -0.342818  -0.177982  -0.000341  3.563444  -0.001
N  N127  1  0.66718307  0.61538433  0.06509053  1  -0.26225  -4e-06  3.302017  0.001  -0.19014  0.000201  3.576866  0.001  -0.207252  8.3e-05  3.595912  0.001  -0.342768  -0.177981  0.000384  3.56328  0.001
N  N128  1  0.16718770  0.61538862  0.43490975  1  -0.262201  1.4e-05  3.302102  -0.001  -0.19014  -0.0002  3.576966  -0.001  -0.207252  -8.3e-05  3.596004  -0.001  -0.342834  -0.177997  -0.000292  3.563387  -0.001
N  N129  1  0.33281961  0.38461315  0.93490806  1  -0.262003  -1e-06  3.301957  0.001  -0.189951  0.0002  3.576881  0.001  -0.207064  8.4e-05  3.595919  0.001  -0.342828  -0.177847  0.000324  3.563323  0.001
N  N130  1  0.67091552  0.40744546  0.43582395  1  -0.393104  -0.059007  3.259816  -0.086  -0.347456  -0.040921  3.528806  -0.06  -0.374114  -0.03347  3.542015  -0.051  -0.49185  -0.328942  -0.046549  3.519805  -0.066
N  N131  1  0.82908818  0.59254971  0.93582169  1  -0.39298  0.059002  3.259886  0.086  -0.34749  0.040918  3.529158  0.06  -0.374152  0.033469  3.54237  0.051  -0.491857  -0.328975  0.046544  3.520158  0.066
N  N132  1  0.32908256  0.59255467  0.56417720  1  -0.392985  -0.059005  3.259791  -0.086  -0.347411  -0.04092  3.528842  -0.06  -0.374069  -0.033471  3.542057  -0.051  -0.491839  -0.328911  -0.046561  3.519829  -0.066
N  N133  1  0.17091459  0.40744952  0.06417627  1  -0.392965  0.059004  3.259828  0.086  -0.347372  0.040919  3.528973  0.06  -0.374032  0.03347  3.542186  0.051  -0.491804  -0.328858  0.046531  3.519957  0.066
O  O134  1  0.73346311  0.25111477  0.73196031  1  -0.574782  -0.000186  2.030105  0.0  -0.527141  -0.000207  2.251716  0.0  -0.542778  -0.000149  2.237817  0.0  -0.433161  -0.51591  -0.000303  2.261119  0.0
O  O135  1  0.76652609  0.74887567  0.23196540  1  -0.575135  0.000184  2.030005  0.0  -0.527526  0.000207  2.25136  0.0  -0.543161  0.000149  2.237456  0.0  -0.433347  -0.516278  0.000256  2.260744  0.0
O  O136  1  0.26653388  0.74888712  0.26804084  1  -0.574721  -0.000183  2.030176  0.0  -0.527097  -0.000207  2.251741  0.0  -0.542732  -0.000148  2.237861  0.0  -0.433101  -0.515846  -0.000276  2.261132  0.0
O  O137  1  0.23347302  0.25112183  0.76803447  1  -0.575145  0.000188  2.029895  0.0  -0.527543  0.000207  2.251259  0.0  -0.543169  0.000149  2.237364  0.0  -0.433362  -0.516311  0.00023  2.260646  0.0
O  O138  1  0.64253082  0.65765738  0.51424839  1  -0.614148  -0.04594  2.086697  -0.071  -0.580232  -0.033155  2.359521  -0.053  -0.615796  -0.025457  2.351386  -0.042  -0.316639  -0.553936  -0.040608  2.364046  -0.063
O  O139  1  0.85747989  0.34234917  0.01425019  1  -0.614313  0.04596  2.086509  0.071  -0.580357  0.033166  2.359284  0.053  -0.615934  0.025464  2.351157  0.042  -0.316672  -0.554042  0.040582  2.363823  0.063
O  O140  1  0.35746710  0.34234013  0.48575149  1  -0.614132  -0.045936  2.086525  -0.071  -0.580206  -0.033153  2.359341  -0.053  -0.615769  -0.025455  2.351208  -0.042  -0.316644  -0.553915  -0.040591  2.363881  -0.063
O  O141  1  0.14252413  0.65765093  0.98574841  1  -0.614323  0.045957  2.086555  0.071  -0.580312  0.033167  2.359284  0.053  -0.615889  0.025465  2.351158  0.042  -0.316657  -0.553993  0.040578  2.363805  0.063
O  O142  1  0.62367258  0.74209663  0.38433418  1  -0.617677  0.00139  2.009286  0.002  -0.566367  0.000775  2.230784  0.001  -0.590011  0.00083  2.219842  0.001  -0.312785  -0.54992  0.000752  2.23806  0.001
O  O143  1  0.87633168  0.25790760  0.88434150  1  -0.617556  -0.001394  2.010181  -0.002  -0.566255  -0.000776  2.231679  -0.001  -0.589898  -0.000831  2.220744  -0.001  -0.312764  -0.549824  -0.000799  2.238984  -0.001
O  O144  1  0.37632684  0.25790611  0.61566761  1  -0.617804  0.001391  2.009181  0.002  -0.566475  0.000775  2.230672  0.001  -0.590136  0.00083  2.21974  0.001  -0.312886  -0.55006  0.00068  2.237978  0.001
O  O145  1  0.12367007  0.74209426  0.11565710  1  -0.617518  -0.001395  2.010385  -0.002  -0.566256  -0.000776  2.231928  -0.001  -0.589873  -0.000831  2.220987  -0.001  -0.312753  -0.549783  -0.000733  2.239194  -0.001
