# generated using pymatgen
data_ZnH18C14S4(NO)2
_symmetry_space_group_name_H-M   'P 1'
_cell_length_a   7.02074917
_cell_length_b   9.59117329
_cell_length_c   16.70081913
_cell_angle_alpha   93.59909905
_cell_angle_beta   99.10354309
_cell_angle_gamma   92.87173315
_symmetry_Int_Tables_number   1
_chemical_formula_structural   ZnH18C14S4(NO)2
_chemical_formula_sum   'Zn2 H36 C28 S8 N4 O4'
_cell_volume   1106.17316931
_cell_formula_units_Z   2
loop_
 _symmetry_equiv_pos_site_id
 _symmetry_equiv_pos_as_xyz
  1  'x, y, z'
loop_
 _atom_site_type_symbol
 _atom_site_label
 _atom_site_symmetry_multiplicity
 _atom_site_fract_x
 _atom_site_fract_y
 _atom_site_fract_z
 _atom_site_occupancy
 _atom_site_hle17_bader_spin_density
 _atom_site_hle17_ddec_charge
 _atom_site_hle17_ddec_spin_density
 _atom_site_hle17_ddec_sum_bond_order
 _atom_site_hle17_magmom
 _atom_site_hse06_10hf_bader_spin_density
 _atom_site_hse06_10hf_ddec_charge
 _atom_site_hse06_10hf_ddec_spin_density
 _atom_site_hse06_10hf_ddec_sum_bond_order
 _atom_site_hse06_10hf_magmom
 _atom_site_hse06_bader_spin_density
 _atom_site_hse06_ddec_charge
 _atom_site_hse06_ddec_spin_density
 _atom_site_hse06_ddec_sum_bond_order
 _atom_site_hse06_magmom
 _atom_site_pbe_bader_spin_density
 _atom_site_pbe_cm5_charge
 _atom_site_pbe_ddec_charge
 _atom_site_pbe_ddec_spin_density
 _atom_site_pbe_ddec_sum_bond_order
 _atom_site_pbe_magmom
Zn  Zn0  1  0.57128325  0.79499346  0.24672946  1  0  0.716661  0  2.220099  0  0  0.583807  0  2.647955  0  0  0.625006  0  2.613207  0  0  0.480694  0.555052  0  2.672195  0
Zn  Zn1  1  0.42871954  0.20500236  0.75326768  1  0  0.71658  0  2.220095  0  0  0.583698  0  2.647937  0  0  0.624891  0  2.61321  0  0  0.480698  0.554948  0  2.672177  0
H  H2  1  0.64378876  0.49439033  0.49006825  1  0  0.084074  0  1.002032  0  0  0.090558  0  1.07577  0  0  0.093995  0  1.073229  0  0  0.089928  0.087943  0  1.077886  0
H  H3  1  0.35629928  0.50562252  0.50990957  1  0  0.084396  0  1.001299  0  0  0.090888  0  1.075062  0  0  0.094341  0  1.072522  0  0  0.090121  0.088271  0  1.077188  0
H  H4  1  0.16363380  0.63306092  0.40485115  1  0  0.093708  0  0.992661  0  0  0.100994  0  1.062859  0  0  0.104686  0  1.059932  0  0  0.086112  0.098209  0  1.065312  0
H  H5  1  0.83643538  0.36695084  0.59512895  1  0  0.093756  0  0.992595  0  0  0.100964  0  1.062937  0  0  0.104643  0  1.060041  0  0  0.086153  0.09825  0  1.065315  0
H  H6  1  0.89559603  0.67814419  0.09631667  1  0  0.10617  0  0.965666  0  0  0.112453  0  1.034325  0  0  0.116595  0  1.031146  0  0  0.093586  0.109591  0  1.036451  0
H  H7  1  0.10438153  0.32182734  0.90369816  1  0  0.106155  0  0.965738  0  0  0.112518  0  1.034289  0  0  0.11666  0  1.03111  0  0  0.093629  0.109618  0  1.036459  0
H  H8  1  0.34501534  0.44931456  0.01065856  1  0  0.08556  0  1.002279  0  0  0.09365  0  1.072879  0  0  0.096711  0  1.071232  0  0  0.089504  0.09156  0  1.073948  0
H  H9  1  0.65495328  0.55067061  0.98935261  1  0  0.085611  0  1.002047  0  0  0.093706  0  1.072641  0  0  0.096768  0  1.070996  0  0  0.089473  0.091581  0  1.073741  0
H  H10  1  0.27814386  0.89377594  0.34953501  1  0  0.035468  0  0.970196  0  0  0.03761  0  1.054635  0  0  0.039784  0  1.048969  0  0  0.107282  0.035972  0  1.058378  0
H  H11  1  0.72188430  0.10623030  0.65046964  1  0  0.035261  0  0.97013  0  0  0.037462  0  1.054566  0  0  0.039645  0  1.048888  0  0  0.107178  0.035824  0  1.058311  0
H  H12  1  0.62058595  0.19075212  0.40260772  1  0  0.117099  0  0.932268  0  0  0.136415  0  0.990691  0  0  0.138505  0  0.989075  0  0  0.110528  0.134729  0  0.992046  0
H  H13  1  0.37942804  0.80925726  0.59739550  1  0  0.117138  0  0.93233  0  0  0.136432  0  0.990752  0  0  0.138517  0  0.989142  0  0  0.110515  0.134747  0  0.992104  0
H  H14  1  0.53234173  0.22743872  0.49682965  1  0  0.09149  0  0.970497  0  0  0.107983  0  1.043987  0  0  0.107815  0  1.045676  0  0  0.093245  0.107989  0  1.042675  0
H  H15  1  0.46766937  0.77257065  0.50317457  1  0  0.091608  0  0.970451  0  0  0.108029  0  1.043962  0  0  0.10786  0  1.04565  0  0  0.093231  0.108036  0  1.042648  0
H  H16  1  0.42294052  0.30010909  0.40636998  1  0  0.098743  0  0.934022  0  0  0.117075  0  1.000736  0  0  0.117378  0  1.000996  0  0  0.10095  0.116717  0  1.000673  0
H  H17  1  0.57706600  0.69989716  0.59363141  1  0  0.098785  0  0.934031  0  0  0.117114  0  1.000719  0  0  0.117417  0  1.000977  0  0  0.100945  0.116755  0  1.000658  0
H  H18  1  0.10556980  0.16921359  0.44068364  1  0  0.104755  0  0.919383  0  0  0.126798  0  0.974704  0  0  0.12704  0  0.975674  0  0  0.105732  0.126517  0  0.974214  0
H  H19  1  0.89443545  0.83079381  0.55930693  1  0  0.10476  0  0.919427  0  0  0.126805  0  0.974743  0  0  0.127054  0  0.975704  0  0  0.105697  0.126518  0  0.97426  0
H  H20  1  0.10113134  0.98234907  0.43110030  1  0  0.098929  0  0.969704  0  0  0.114977  0  1.041154  0  0  0.1159  0  1.041145  0  0  0.100602  0.114309  0  1.041108  0
H  H21  1  0.89888230  0.01765520  0.56889071  1  0  0.098903  0  0.969706  0  0  0.114954  0  1.041166  0  0  0.115874  0  1.041159  0  0  0.1006  0.114278  0  1.041132  0
H  H22  1  0.23625051  0.07863132  0.51957990  1  0  0.103372  0  0.942176  0  0  0.119085  0  1.010506  0  0  0.119488  0  1.011621  0  0  0.099622  0.118812  0  1.009634  0
H  H23  1  0.76374713  0.92137183  0.48041657  1  0  0.103413  0  0.942162  0  0  0.119098  0  1.010512  0  0  0.119498  0  1.011631  0  0  0.099646  0.118825  0  1.00964  0
H  H24  1  0.46957567  0.05785004  0.16248065  1  0  0.040762  0  0.928572  0  0  0.049009  0  0.997963  0  0  0.05144  0  0.991935  0  0  0.117143  0.046846  0  1.002878  0
H  H25  1  0.53038260  0.94214882  0.83752198  1  0  0.040553  0  0.928839  0  0  0.048801  0  0.998213  0  0  0.051223  0  0.992199  0  0  0.117099  0.046637  0  1.003125  0
H  H26  1  0.64053081  0.32629289  0.07526360  1  0  0.101388  0  0.957059  0  0  0.118198  0  1.024262  0  0  0.118628  0  1.024954  0  0  0.09703  0.117589  0  1.024387  0
H  H27  1  0.35940419  0.67370294  0.92472716  1  0  0.101383  0  0.95721  0  0  0.118187  0  1.024462  0  0  0.118611  0  1.025163  0  0  0.097051  0.117598  0  1.024567  0
H  H28  1  0.42524028  0.23620648  0.09256171  1  0  0.098624  0  0.937074  0  0  0.11841  0  1.000495  0  0  0.119341  0  0.999733  0  0  0.105532  0.117346  0  1.001808  0
H  H29  1  0.57469338  0.76377360  0.90743313  1  0  0.098602  0  0.937212  0  0  0.11852  0  1.000471  0  0  0.119455  0  0.999702  0  0  0.105597  0.117457  0  1.001788  0
H  H30  1  0.49681731  0.21922661  0.99425863  1  0  0.10506  0  0.942726  0  0  0.121768  0  1.010186  0  0  0.121944  0  1.011659  0  0  0.099754  0.12193  0  1.008946  0
H  H31  1  0.50312594  0.78074722  0.00573361  1  0  0.105072  0  0.942509  0  0  0.121779  0  1.010005  0  0  0.121957  0  1.011477  0  0  0.099743  0.121942  0  1.00876  0
H  H32  1  0.93711238  0.17414210  0.06749461  1  0  0.099365  0  0.917532  0  0  0.123376  0  0.972091  0  0  0.12318  0  0.973317  0  0  0.105657  0.123526  0  0.971094  0
H  H33  1  0.06284648  0.82586404  0.93251314  1  0  0.099306  0  0.917514  0  0  0.123423  0  0.971972  0  0  0.123226  0  0.973203  0  0  0.105702  0.123574  0  0.970972  0
H  H34  1  0.79510178  0.07714372  0.98276667  1  0  0.090375  0  0.96086  0  0  0.105589  0  1.035262  0  0  0.105619  0  1.036479  0  0  0.094713  0.105459  0  1.034483  0
H  H35  1  0.20486863  0.92286244  0.01724066  1  0  0.090272  0  0.960871  0  0  0.105484  0  1.035291  0  0  0.105525  0  1.036499  0  0  0.094678  0.105344  0  1.034517  0
H  H36  1  0.89083886  0.98903948  0.07170592  1  0  0.112634  0  0.953504  0  0  0.127654  0  1.021651  0  0  0.129666  0  1.020081  0  0  0.107832  0.126214  0  1.022628  0
H  H37  1  0.10913053  0.01097189  0.92830274  1  0  0.112566  0  0.953544  0  0  0.127594  0  1.021719  0  0  0.129606  0  1.020154  0  0  0.107773  0.126155  0  1.022696  0
C  C38  1  0.77355905  0.65110630  0.37707173  1  0  0.118059  0  3.748502  0  0  0.117499  0  4.031527  0  0  0.136692  0  4.045557  0  0  0.018  0.105263  0  4.021042  0
C  C39  1  0.22650903  0.34891055  0.62292226  1  0  0.118242  0  3.747896  0  0  0.117724  0  4.030984  0  0  0.136924  0  4.04501  0  0  0.018134  0.105493  0  4.020494  0
C  C40  1  0.88888218  0.57361036  0.43963440  1  0  0.050293  0  3.760731  0  0  0.069775  0  3.989576  0  0  0.065774  0  4.012565  0  0  -0.013911  0.072318  0  3.973765  0
C  C41  1  0.11119411  0.42641807  0.56035462  1  0  0.050656  0  3.760375  0  0  0.070002  0  3.989513  0  0  0.065989  0  4.012518  0  0  -0.013788  0.072542  0  3.973718  0
C  C42  1  0.80021575  0.49656082  0.49421676  1  0  -0.092272  0  3.736493  0  0  -0.110935  0  3.980488  0  0  -0.11175  0  4.000426  0  0  -0.089876  -0.110052  0  3.966806  0
C  C43  1  0.19984722  0.50346342  0.50577059  1  0  -0.092713  0  3.736436  0  0  -0.11142  0  3.980486  0  0  -0.112275  0  4.000495  0  0  -0.089992  -0.110533  0  3.966779  0
C  C44  1  0.09163756  0.57535702  0.44687371  1  0  -0.09349  0  3.725573  0  0  -0.111402  0  3.965009  0  0  -0.112297  0  3.984257  0  0  -0.090726  -0.110806  0  3.952165  0
C  C45  1  0.90845164  0.42467038  0.55311433  1  0  -0.093636  0  3.72546  0  0  -0.111581  0  3.965205  0  0  -0.112467  0  3.984452  0  0  -0.090833  -0.111038  0  3.952328  0
C  C46  1  0.28458089  0.64874296  0.12478407  1  0  0.120422  0  3.754352  0  0  0.12005  0  4.036093  0  0  0.139489  0  4.049796  0  0  0.018871  0.107258  0  4.025952  0
C  C47  1  0.71539741  0.35123701  0.87522515  1  0  0.120363  0  3.754213  0  0  0.12005  0  4.035937  0  0  0.139469  0  4.049678  0  0  0.018846  0.107271  0  4.025782  0
C  C48  1  0.13853551  0.57237922  0.06163927  1  0  0.050041  0  3.763855  0  0  0.069346  0  3.993718  0  0  0.065253  0  4.016761  0  0  -0.015079  0.071831  0  3.978108  0
C  C49  1  0.86143645  0.42759441  0.93837467  1  0  0.050086  0  3.763992  0  0  0.06927  0  3.993978  0  0  0.065176  0  4.01704  0  0  -0.015095  0.071751  0  3.978357  0
C  C50  1  0.94184882  0.60087981  0.05374283  1  0  -0.09071  0  3.712607  0  0  -0.109171  0  3.955028  0  0  -0.110025  0  3.97357  0  0  -0.088676  -0.108604  0  3.942358  0
C  C51  1  0.05811994  0.39908968  0.94626594  1  0  -0.090926  0  3.712789  0  0  -0.10942  0  3.955249  0  0  -0.110268  0  3.973783  0  0  -0.088845  -0.108823  0  3.942609  0
C  C52  1  0.19293052  0.47022934  0.00663616  1  0  -0.098441  0  3.746695  0  0  -0.117389  0  3.990896  0  0  -0.118087  0  4.010555  0  0  -0.090642  -0.116627  0  3.977457  0
C  C53  1  0.80705644  0.52975064  0.99337245  1  0  -0.098804  0  3.746923  0  0  -0.117729  0  3.991163  0  0  -0.118428  0  4.010822  0  0  -0.090824  -0.116936  0  3.977756  0
C  C54  1  0.38939688  0.98151560  0.35880156  1  0  0.377151  0  3.811185  0  0  0.305057  0  4.093227  0  0  0.333614  0  4.093617  0  0  0.164829  0.286356  0  4.091396  0
C  C55  1  0.61059620  0.01848630  0.64121432  1  0  0.377496  0  3.811752  0  0  0.305302  0  4.093901  0  0  0.333853  0  4.094289  0  0  0.16495  0.286603  0  4.092072  0
C  C56  1  0.49221150  0.20775540  0.43063345  1  0  -0.169249  0  3.645639  0  0  -0.269142  0  3.891082  0  0  -0.265943  0  3.901545  0  0  -0.137445  -0.270972  0  3.884029  0
C  C57  1  0.50780095  0.79225292  0.56937141  1  0  -0.169737  0  3.64599  0  0  -0.269506  0  3.8914  0  0  -0.266305  0  3.901864  0  0  -0.137599  -0.271334  0  3.884344  0
C  C58  1  0.19129024  0.07792313  0.45339289  1  0  -0.173787  0  3.649806  0  0  -0.27002  0  3.893778  0  0  -0.267153  0  3.905169  0  0  -0.133196  -0.271615  0  3.885902  0
C  C59  1  0.80871192  0.92208213  0.54660277  1  0  -0.173854  0  3.649996  0  0  -0.27006  0  3.894019  0  0  -0.267197  0  3.905407  0  0  -0.133228  -0.271644  0  3.886158  0
C  C60  1  0.60115502  0.02669988  0.13926731  1  0  0.389664  0  3.80596  0  0  0.314895  0  4.088226  0  0  0.343716  0  4.088516  0  0  0.17192  0.294869  0  4.088496  0
C  C61  1  0.39881022  0.97329586  0.86073387  1  0  0.390057  0  3.805569  0  0  0.315305  0  4.087795  0  0  0.344129  0  4.088082  0  0  0.172151  0.295284  0  4.088056  0
C  C62  1  0.54889115  0.22911452  0.06012716  1  0  -0.176443  0  3.669988  0  0  -0.278654  0  3.922656  0  0  -0.275418  0  3.933929  0  0  -0.134852  -0.280956  0  3.915647  0
C  C63  1  0.45104348  0.77087709  0.93986581  1  0  -0.176226  0  3.669952  0  0  -0.278558  0  3.922609  0  0  -0.275319  0  3.933904  0  0  -0.134851  -0.28088  0  3.915578  0
C  C64  1  0.83035244  0.08519896  0.04955511  1  0  -0.163086  0  3.641146  0  0  -0.259351  0  3.881433  0  0  -0.25602  0  3.892091  0  0  -0.132694  -0.261199  0  3.87386  0
C  C65  1  0.16961108  0.91481133  0.95045611  1  0  -0.162792  0  3.641428  0  0  -0.259167  0  3.88177  0  0  -0.255846  0  3.892421  0  0  -0.132728  -0.261009  0  3.874204  0
S  S66  1  0.88817488  0.76107727  0.32169634  1  0  -0.294064  0  2.142776  0  0  -0.264303  0  2.469543  0  0  -0.28183  0  2.464919  0  0  -0.140128  -0.252687  0  2.472488  0
S  S67  1  0.11184813  0.23893448  0.67828183  1  0  -0.294227  0  2.14252  0  0  -0.264439  0  2.469283  0  0  -0.281967  0  2.46466  0  0  -0.140197  -0.252831  0  2.472242  0
S  S68  1  0.52916556  0.62954913  0.35922869  1  0  -0.333022  0  2.094502  0  0  -0.30346  0  2.412246  0  0  -0.322474  0  2.411191  0  0  -0.143319  -0.29084  0  2.412919  0
S  S69  1  0.47090015  0.37045718  0.64077131  1  0  -0.333189  0  2.094637  0  0  -0.30362  0  2.412375  0  0  -0.322626  0  2.411316  0  0  -0.143431  -0.291012  0  2.413067  0
S  S70  1  0.22857306  0.79740200  0.17413805  1  0  -0.331815  0  2.095528  0  0  -0.3027  0  2.415762  0  0  -0.321292  0  2.411951  0  0  -0.151068  -0.289599  0  2.418013  0
S  S71  1  0.77140848  0.20258216  0.82587096  1  0  -0.331594  0  2.095443  0  0  -0.30249  0  2.415674  0  0  -0.321075  0  2.411875  0  0  -0.150985  -0.289387  0  2.417915  0
S  S72  1  0.50771039  0.58836889  0.14746103  1  0  -0.301152  0  2.134743  0  0  -0.268269  0  2.450071  0  0  -0.287485  0  2.449734  0  0  -0.130773  -0.254858  0  2.450738  0
S  S73  1  0.49228075  0.41162585  0.85253826  1  0  -0.301137  0  2.134704  0  0  -0.26826  0  2.45001  0  0  -0.287468  0  2.449685  0  0  -0.130792  -0.254847  0  2.450668  0
N  N74  1  0.35960704  0.08419616  0.41245129  1  0  -0.077114  0  3.492456  0  0  0.030096  0  3.718228  0  0  0.010352  0  3.742945  0  0  -0.27752  0.043166  0  3.700958  0
N  N75  1  0.64041077  0.91580697  0.58754894  1  0  -0.077133  0  3.492137  0  0  0.030091  0  3.717948  0  0  0.010339  0  3.742672  0  0  -0.277423  0.043168  0  3.700669  0
N  N76  1  0.65688495  0.10927100  0.08465744  1  0  -0.084858  0  3.507605  0  0  0.022102  0  3.73563  0  0  0.002099  0  3.760489  0  0  -0.281818  0.035596  0  3.718507  0
N  N77  1  0.34306456  0.89072677  0.91534874  1  0  -0.085274  0  3.507621  0  0  0.021644  0  3.73579  0  0  0.001637  0  3.760648  0  0  -0.281926  0.035141  0  3.718668  0
O  O78  1  0.53104614  0.98247390  0.32111705  1  0  -0.515111  0  2.136084  0  0  -0.455147  0  2.386255  0  0  -0.480256  0  2.379548  0  0  -0.307192  -0.436795  0  2.38944  0
O  O79  1  0.46901522  0.01751559  0.67888978  1  0  -0.514953  0  2.137472  0  0  -0.454979  0  2.387717  0  0  -0.480071  0  2.381004  0  0  -0.30718  -0.43664  0  2.390907  0
O  O80  1  0.68734448  0.92167193  0.16299151  1  0  -0.495037  0  2.148326  0  0  -0.433964  0  2.406143  0  0  -0.459342  0  2.399712  0  0  -0.299994  -0.417041  0  2.410895  0
O  O81  1  0.31263477  0.07833634  0.83701411  1  0  -0.495038  0  2.148058  0  0  -0.433936  0  2.405841  0  0  -0.459311  0  2.399411  0  0  -0.300052  -0.417013  0  2.410589  0
