# generated using pymatgen
data_ZnH9C13NO5
_symmetry_space_group_name_H-M   'P 1'
_cell_length_a   9.62931656
_cell_length_b   10.19355368
_cell_length_c   13.55330000
_cell_angle_alpha   109.48806209
_cell_angle_beta   90.00000000
_cell_angle_gamma   90.00000000
_symmetry_Int_Tables_number   1
_chemical_formula_structural   ZnH9C13NO5
_chemical_formula_sum   'Zn4 H36 C52 N4 O20'
_cell_volume   1254.13623078
_cell_formula_units_Z   4
loop_
 _symmetry_equiv_pos_site_id
 _symmetry_equiv_pos_as_xyz
  1  'x, y, z'
loop_
 _atom_site_type_symbol
 _atom_site_label
 _atom_site_symmetry_multiplicity
 _atom_site_fract_x
 _atom_site_fract_y
 _atom_site_fract_z
 _atom_site_occupancy
 _atom_site_hle17_bader_spin_density
 _atom_site_hle17_ddec_charge
 _atom_site_hle17_ddec_spin_density
 _atom_site_hle17_ddec_sum_bond_order
 _atom_site_hle17_magmom
 _atom_site_hse06_10hf_bader_spin_density
 _atom_site_hse06_10hf_ddec_charge
 _atom_site_hse06_10hf_ddec_spin_density
 _atom_site_hse06_10hf_ddec_sum_bond_order
 _atom_site_hse06_10hf_magmom
 _atom_site_hse06_bader_spin_density
 _atom_site_hse06_ddec_charge
 _atom_site_hse06_ddec_spin_density
 _atom_site_hse06_ddec_sum_bond_order
 _atom_site_hse06_magmom
 _atom_site_pbe_bader_charge
 _atom_site_pbe_bader_spin_density
 _atom_site_pbe_cm5_charge
 _atom_site_pbe_ddec_charge
 _atom_site_pbe_ddec_spin_density
 _atom_site_pbe_ddec_sum_bond_order
 _atom_site_pbe_magmom
Zn  Zn0  1  0.59775063  0.97270791  0.61299495  1  0  1.085536  0  1.761437  0  0  0.902997  0  2.23141  0  0  0.951798  0  2.17264  0  1.282412  0  0.695136  0.867802  0  2.272071  0
Zn  Zn1  1  0.09774837  0.02729049  0.88700362  1  0  1.085491  0  1.761441  0  0  0.902996  0  2.231376  0  0  0.95179  0  2.172606  0  1.282424  0  0.695132  0.867801  0  2.272035  0
Zn  Zn2  1  0.40224973  0.02729049  0.38700509  1  0  1.085584  0  1.761418  0  0  0.90305  0  2.231365  0  0  0.951849  0  2.172596  0  1.282445  0  0.695169  0.867856  0  2.272022  0
Zn  Zn3  1  0.90225303  0.97270895  0.11299447  1  0  1.08555  0  1.761395  0  0  0.903039  0  2.231332  0  0  0.951839  0  2.172562  0  1.282406  0  0.695135  0.867846  0  2.27199  0
H  H4  1  0.15211152  0.94668179  0.59228070  1  0  0.108572  0  0.944591  0  0  0.120526  0  1.005587  0  0  0.123625  0  1.00348  0  0.104679  0  0.111538  0.118135  0  1.007329  0
H  H5  1  0.65211170  0.05332077  0.90771522  1  0  0.108546  0  0.944611  0  0  0.120464  0  1.005656  0  0  0.123561  0  1.003551  0  0.105527  0  0.111495  0.118075  0  1.007398  0
H  H6  1  0.84789195  0.05332077  0.40771891  1  0  0.10858  0  0.944601  0  0  0.120498  0  1.005642  0  0  0.123598  0  1.003534  0  0.10501  0  0.111523  0.118108  0  1.007384  0
H  H7  1  0.34788762  0.94668075  0.09228265  1  0  0.108581  0  0.944576  0  0  0.120526  0  1.00558  0  0  0.123627  0  1.003471  0  0.10548  0  0.111548  0.118136  0  1.007322  0
H  H8  1  0.84282825  0.65691352  0.42289111  1  0  0.105104  0  0.958026  0  0  0.114958  0  1.020444  0  0  0.118716  0  1.017209  0  0.110864  0  0.107691  0.112004  0  1.023396  0
H  H9  1  0.34283015  0.34308592  0.07710846  1  0  0.105113  0  0.95806  0  0  0.114962  0  1.020484  0  0  0.118721  0  1.017249  0  0.110888  0  0.107692  0.112009  0  1.023434  0
H  H10  1  0.15717211  0.34309216  0.57711076  1  0  0.105084  0  0.958027  0  0  0.114951  0  1.020439  0  0  0.118706  0  1.017201  0  0.110838  0  0.107692  0.111999  0  1.023389  0
H  H11  1  0.65716917  0.65690728  0.92289471  1  0  0.105125  0  0.958046  0  0  0.114968  0  1.020478  0  0  0.118725  0  1.017242  0  0.110895  0  0.107692  0.112016  0  1.023427  0
H  H12  1  0.27513895  0.53333782  0.40841265  1  0  0.107601  0  0.937788  0  0  0.119099  0  0.996465  0  0  0.122672  0  0.993864  0  0.086314  0  0.110427  0.116444  0  0.998544  0
H  H13  1  0.77514224  0.46666162  0.09158618  1  0  0.107644  0  0.937781  0  0  0.119142  0  0.996442  0  0  0.122716  0  0.99384  0  0.086463  0  0.110423  0.116487  0  0.998521  0
H  H14  1  0.72486245  0.46666266  0.59158718  1  0  0.107617  0  0.937788  0  0  0.119116  0  0.996462  0  0  0.12269  0  0.99386  0  0.08633  0  0.110439  0.116461  0  0.998541  0
H  H15  1  0.22485916  0.53333678  0.90841460  1  0  0.107589  0  0.937818  0  0  0.119086  0  0.996488  0  0  0.122659  0  0.993888  0  0.086482  0  0.110421  0.116431  0  0.998567  0
H  H16  1  0.79449564  0.45201997  0.36581522  1  0  0.114921  0  0.94988  0  0  0.125575  0  1.008215  0  0  0.129037  0  1.006907  0  0.107385  0  0.112387  0.12298  0  1.009568  0
H  H17  1  0.29449857  0.54797947  0.13418729  1  0  0.114908  0  0.949942  0  0  0.125536  0  1.008294  0  0  0.128998  0  1.006988  0  0.107407  0  0.112384  0.122942  0  1.009647  0
H  H18  1  0.20550160  0.54798051  0.63418681  1  0  0.114903  0  0.949937  0  0  0.125488  0  1.008337  0  0  0.128949  0  1.007032  0  0.107427  0  0.112379  0.122892  0  1.00969  0
H  H19  1  0.70550282  0.45201789  0.86581323  1  0  0.114903  0  0.94993  0  0  0.125502  0  1.008313  0  0  0.128963  0  1.007008  0  0.107404  0  0.112376  0.122908  0  1.009664  0
H  H20  1  0.74136310  0.21616252  0.24608978  1  0  0.091735  0  0.945167  0  0  0.099475  0  1.008836  0  0  0.102482  0  1.006211  0  0.146953  0  0.119626  0.097104  0  1.01098  0
H  H21  1  0.24136604  0.78383796  0.25390783  1  0  0.091704  0  0.945216  0  0  0.099428  0  1.008896  0  0  0.102434  0  1.006271  0  0.14701  0  0.119626  0.097057  0  1.011037  0
H  H22  1  0.25863725  0.78383796  0.75391299  1  0  0.091671  0  0.945227  0  0  0.099417  0  1.008881  0  0  0.102423  0  1.006259  0  0.146972  0  0.119612  0.097047  0  1.011023  0
H  H23  1  0.75863743  0.21616148  0.74608731  1  0  0.091692  0  0.945274  0  0  0.099436  0  1.008926  0  0  0.102442  0  1.006303  0  0.146951  0  0.119621  0.097065  0  1.011068  0
H  H24  1  0.15320194  0.14158690  0.15481478  1  0  0.097961  0  0.942742  0  0  0.104651  0  1.008797  0  0  0.107656  0  1.005621  0  0.147557  0  0.121817  0.102371  0  1.011311  0
H  H25  1  0.65320627  0.85841254  0.34518700  1  0  0.097978  0  0.942647  0  0  0.104735  0  1.008662  0  0  0.107744  0  1.005477  0  0.147545  0  0.121814  0.102453  0  1.011177  0
H  H26  1  0.84679634  0.85841670  0.84518509  1  0  0.097915  0  0.942745  0  0  0.104683  0  1.008734  0  0  0.107692  0  1.005552  0  0.147514  0  0.121793  0.102402  0  1.011249  0
H  H27  1  0.34679720  0.14158690  0.65481552  1  0  0.097963  0  0.942723  0  0  0.104675  0  1.00877  0  0  0.10768  0  1.005594  0  0.147545  0  0.121824  0.102394  0  1.011285  0
H  H28  1  0.22474700  0.37577207  0.26723448  1  0  0.109683  0  0.950319  0  0  0.122118  0  1.006308  0  0  0.125097  0  1.005713  0  0.077104  0  0.111251  0.119943  0  1.007024  0
H  H29  1  0.72475029  0.62422529  0.23276383  1  0  0.109676  0  0.950285  0  0  0.122124  0  1.006275  0  0  0.125102  0  1.005681  0  0.077075  0  0.11125  0.119962  0  1.006976  0
H  H30  1  0.77524920  0.62423153  0.73276466  1  0  0.10965  0  0.950261  0  0  0.122073  0  1.006287  0  0  0.12505  0  1.005694  0  0.077064  0  0.111213  0.11991  0  1.006987  0
H  H31  1  0.27525006  0.37576790  0.76723712  1  0  0.109664  0  0.950265  0  0  0.122103  0  1.006272  0  0  0.125081  0  1.005677  0  0.0771  0  0.111241  0.119942  0  1.006972  0
H  H32  1  0.54269480  0.78420322  0.67252264  1  0  0.413338  0  0.892461  0  0  0.385166  0  0.951012  0  0  0.396669  0  0.934439  0  0.638308  0  0.286092  0.377113  0  0.962554  0
H  H33  1  0.04269566  0.21579622  0.82747545  1  0  0.413344  0  0.892448  0  0  0.385165  0  0.951012  0  0  0.396669  0  0.934437  0  0.638378  0  0.2861  0.377113  0  0.962552  0
H  H34  1  0.45730452  0.21579622  0.32747766  1  0  0.41335  0  0.892429  0  0  0.385176  0  0.950984  0  0  0.39668  0  0.934411  0  0.638315  0  0.286108  0.377125  0  0.962524  0
H  H35  1  0.95730678  0.78420530  0.17252390  1  0  0.413368  0  0.892408  0  0  0.385198  0  0.950956  0  0  0.396701  0  0.934383  0  0.638324  0  0.286112  0.377146  0  0.962497  0
H  H36  1  0.52350652  0.91436194  0.77731465  1  0  0.42274  0  0.884461  0  0  0.390347  0  0.951083  0  0  0.401809  0  0.934609  0  0.651059  0  0.284043  0.382181  0  0.962811  0
H  H37  1  0.02350634  0.08563646  0.72268391  1  0  0.42271  0  0.884509  0  0  0.390312  0  0.951148  0  0  0.401777  0  0.934671  0  0.651055  0  0.284024  0.382146  0  0.962877  0
H  H38  1  0.47649176  0.08563750  0.22268491  1  0  0.422699  0  0.88452  0  0  0.390294  0  0.951161  0  0  0.401758  0  0.934686  0  0.651045  0  0.284039  0.382129  0  0.962889  0
H  H39  1  0.97649609  0.91436610  0.27731570  1  0  0.422673  0  0.884549  0  0  0.390279  0  0.951178  0  0  0.401743  0  0.934703  0  0.651061  0  0.284017  0.382113  0  0.962907  0
C  C40  1  0.37289147  0.77835905  0.54003578  1  0  0.658789  0  3.895354  0  0  0.605981  0  4.189605  0  0  0.64004  0  4.182725  0  1.588461  0  0.212873  0.583356  0  4.192257  0
C  C41  1  0.87289061  0.22164143  0.95996036  1  0  0.658852  0  3.895482  0  0  0.606045  0  4.189764  0  0  0.640105  0  4.182878  0  1.5894  0  0.212881  0.583417  0  4.192419  0
C  C42  1  0.62711096  0.22164247  0.45996283  1  0  0.658868  0  3.895342  0  0  0.606013  0  4.189663  0  0  0.640072  0  4.18278  0  1.589353  0  0.212852  0.583388  0  4.192315  0
C  C43  1  0.12710871  0.77835593  0.04003869  1  0  0.658726  0  3.895459  0  0  0.605974  0  4.189657  0  0  0.640034  0  4.182774  0  1.589417  0  0.212833  0.583348  0  4.192311  0
C  C44  1  0.87034837  0.90715663  0.56584343  1  0  0.652816  0  3.905596  0  0  0.599376  0  4.200115  0  0  0.633488  0  4.194357  0  1.574806  0  0.210731  0.576216  0  4.203396  0
C  C45  1  0.37034716  0.09284385  0.93415418  1  0  0.652911  0  3.90554  0  0  0.599444  0  4.200046  0  0  0.633559  0  4.194285  0  1.574833  0  0.210794  0.576284  0  4.203328  0
C  C46  1  0.12965510  0.09284697  0.43415792  1  0  0.652777  0  3.905689  0  0  0.599403  0  4.200152  0  0  0.633518  0  4.194391  0  1.5749  0  0.210764  0.576242  0  4.203435  0
C  C47  1  0.62965009  0.90715767  0.06584664  1  0  0.652762  0  3.905533  0  0  0.599342  0  4.199982  0  0  0.633454  0  4.194221  0  1.574849  0  0.210698  0.576182  0  4.203267  0
C  C48  1  0.22756132  0.74407866  0.49970343  1  0  -0.056298  0  3.763493  0  0  -0.029572  0  4.003107  0  0  -0.038072  0  4.025685  0  0.005175  0  -0.013507  -0.023717  0  3.986384  0
C  C49  1  0.72756462  0.25592286  0.00029518  1  0  -0.056282  0  3.763401  0  0  -0.029611  0  4.003094  0  0  -0.038115  0  4.025673  0  0.005477  0  -0.01348  -0.02375  0  3.98637  0
C  C50  1  0.77243904  0.25592182  0.50029566  1  0  -0.056443  0  3.76358  0  0  -0.029732  0  4.003243  0  0  -0.038235  0  4.025822  0  0.005139  0  -0.013526  -0.023874  0  3.986519  0
C  C51  1  0.27243678  0.74407450  0.99970386  1  0  -0.056273  0  3.763517  0  0  -0.029588  0  4.003169  0  0  -0.038092  0  4.02575  0  0.005141  0  -0.013464  -0.023729  0  3.986443  0
C  C52  1  0.12401815  0.84387808  0.53926984  1  0  -0.058414  0  3.681093  0  0  -0.098759  0  3.929805  0  0  -0.095908  0  3.948786  0  -0.00803  0  -0.071878  -0.100159  0  3.916836  0
C  C53  1  0.62401936  0.15612344  0.96072582  1  0  -0.058331  0  3.680927  0  0  -0.098665  0  3.929616  0  0  -0.09581  0  3.948601  0  -0.008861  0  -0.071859  -0.100069  0  3.916648  0
C  C54  1  0.87598325  0.15612448  0.46072977  1  0  -0.058232  0  3.680977  0  0  -0.098528  0  3.929701  0  0  -0.095675  0  3.948684  0  -0.008301  0  -0.071791  -0.09993  0  3.916733  0
C  C55  1  0.37598099  0.84387391  0.03927175  1  0  -0.058376  0  3.681029  0  0  -0.098716  0  3.929707  0  0  -0.095865  0  3.948688  0  -0.008779  0  -0.071896  -0.10012  0  3.916739  0
C  C56  1  0.98513949  0.80939476  0.51389841  1  0  -0.062419  0  3.762522  0  0  -0.035933  0  3.999522  0  0  -0.045249  0  4.023105  0  -0.034462  0  -0.017065  -0.030306  0  3.984556  0
C  C57  1  0.48513931  0.19060676  0.98609872  1  0  -0.062541  0  3.762541  0  0  -0.035918  0  3.999366  0  0  -0.045237  0  4.02295  0  -0.034414  0  -0.017048  -0.030291  0  3.984401  0
C  C58  1  0.01486502  0.19060988  0.48610172  1  0  -0.062438  0  3.762506  0  0  -0.036007  0  3.999568  0  0  -0.045326  0  4.023152  0  -0.034491  0  -0.01709  -0.030379  0  3.984603  0
C  C59  1  0.51486105  0.80938956  0.01390153  1  0  -0.06244  0  3.762568  0  0  -0.035868  0  3.999407  0  0  -0.045181  0  4.022986  0  -0.034395  0  -0.017048  -0.030241  0  3.984443  0
C  C60  1  0.95187129  0.67840771  0.44298546  1  0  -0.081341  0  3.661742  0  0  -0.116727  0  3.907123  0  0  -0.114239  0  3.924519  0  -0.064185  0  -0.072592  -0.118307  0  3.896283  0
C  C61  1  0.45187215  0.32159277  0.05701289  1  0  -0.081339  0  3.661735  0  0  -0.11677  0  3.907099  0  0  -0.114284  0  3.924497  0  -0.064179  0  -0.072604  -0.11835  0  3.896259  0
C  C62  1  0.04812906  0.32159589  0.55701736  1  0  -0.081363  0  3.661859  0  0  -0.116752  0  3.907279  0  0  -0.114257  0  3.924669  0  -0.064151  0  -0.072605  -0.118331  0  3.896437  0
C  C63  1  0.54812820  0.67840458  0.94298836  1  0  -0.081455  0  3.661777  0  0  -0.116861  0  3.907145  0  0  -0.114374  0  3.924536  0  -0.064909  0  -0.072625  -0.118441  0  3.896306  0
C  C64  1  0.05465082  0.57760096  0.40086796  1  0  0.032125  0  3.776696  0  0  0.050601  0  4.015505  0  0  0.047034  0  4.039028  0  0.0167  0  -0.008106  0.052991  0  3.999395  0
C  C65  1  0.55465099  0.42240056  0.09913286  1  0  0.032267  0  3.776593  0  0  0.050721  0  4.015391  0  0  0.047155  0  4.038914  0  0.015797  0  -0.008053  0.053112  0  3.999282  0
C  C66  1  0.94535162  0.42240056  0.59913434  1  0  0.032117  0  3.776717  0  0  0.050633  0  4.015515  0  0  0.047065  0  4.039038  0  0.016656  0  -0.00804  0.053023  0  3.999405  0
C  C67  1  0.44534832  0.57759888  0.90086965  1  0  0.032222  0  3.776572  0  0  0.050709  0  4.0154  0  0  0.047144  0  4.03892  0  0.016516  0  -0.008077  0.053097  0  3.999292  0
C  C68  1  0.19294827  0.61104573  0.43287454  1  0  -0.095414  0  3.677313  0  0  -0.132018  0  3.929089  0  0  -0.130362  0  3.947301  0  -0.07104  0  -0.071924  -0.132701  0  3.916225  0
C  C69  1  0.69294845  0.38895371  0.06712428  1  0  -0.095603  0  3.67734  0  0  -0.132181  0  3.929128  0  0  -0.130523  0  3.947339  0  -0.070639  0  -0.071993  -0.132867  0  3.916267  0
C  C70  1  0.80705208  0.38895267  0.56712624  1  0  -0.095417  0  3.677243  0  0  -0.13201  0  3.929005  0  0  -0.130354  0  3.947218  0  -0.071003  0  -0.071965  -0.132695  0  3.916144  0
C  C71  1  0.30704983  0.61104261  0.93287524  1  0  -0.095432  0  3.677377  0  0  -0.13202  0  3.929169  0  0  -0.130363  0  3.947382  0  -0.070398  0  -0.071943  -0.132709  0  3.916313  0
C  C72  1  0.01638849  0.43838045  0.32849490  1  0  0.112918  0  3.748736  0  0  0.122087  0  3.979683  0  0  0.128216  0  4.00274  0  0.012407  0  0.018632  0.118045  0  3.963999  0
C  C73  1  0.51638867  0.56161795  0.17150514  1  0  0.11279  0  3.748912  0  0  0.122035  0  3.979754  0  0  0.128164  0  4.002814  0  0.012365  0  0.018615  0.117993  0  3.964072  0
C  C74  1  0.98360771  0.56162107  0.67150519  1  0  0.112952  0  3.748647  0  0  0.122044  0  3.979682  0  0  0.128175  0  4.002738  0  0.012428  0  0.018565  0.118004  0  3.963997  0
C  C75  1  0.48360961  0.43837733  0.82849706  1  0  0.112912  0  3.748666  0  0  0.122044  0  3.979661  0  0  0.128173  0  4.002724  0  0.012441  0  0.01862  0.118005  0  3.963977  0
C  C76  1  0.87851925  0.39010777  0.31939971  1  0  -0.163092  0  3.706725  0  0  -0.182329  0  3.958306  0  0  -0.191984  0  3.981585  0  -0.007245  0  -0.080767  -0.176377  0  3.94309  0
C  C77  1  0.37851908  0.60989271  0.18059937  1  0  -0.163041  0  3.706795  0  0  -0.182269  0  3.958337  0  0  -0.191924  0  3.981614  0  -0.007281  0  -0.080749  -0.176318  0  3.943119  0
C  C78  1  0.12147695  0.60989167  0.68059985  1  0  -0.163068  0  3.706652  0  0  -0.18221  0  3.958237  0  0  -0.191865  0  3.981515  0  -0.007253  0  -0.080722  -0.176259  0  3.94302  0
C  C79  1  0.62148024  0.39010673  0.81940093  1  0  -0.163069  0  3.706773  0  0  -0.182237  0  3.958346  0  0  -0.191891  0  3.981624  0  -0.007336  0  -0.08074  -0.176287  0  3.943128  0
C  C80  1  0.84688876  0.25705090  0.25372616  1  0  0.132276  0  3.712117  0  0  0.099156  0  3.967425  0  0  0.106724  0  3.986491  0  0.41389  0  0.047731  0.094359  0  3.9547  0
C  C81  1  0.34688962  0.74294854  0.24627340  1  0  0.13235  0  3.71218  0  0  0.099266  0  3.967491  0  0  0.106833  0  3.986558  0  0.413855  0  0.047761  0.094468  0  3.954765  0
C  C82  1  0.15310848  0.74295270  0.74627371  1  0  0.132302  0  3.712009  0  0  0.099222  0  3.967312  0  0  0.106789  0  3.986377  0  0.413913  0  0.047783  0.094422  0  3.954591  0
C  C83  1  0.65310969  0.25704882  0.75372638  1  0  0.132221  0  3.712178  0  0  0.099147  0  3.967475  0  0  0.106714  0  3.986538  0  0.413906  0  0.047714  0.094348  0  3.954753  0
C  C84  1  0.07746863  0.21440177  0.20292113  1  0  0.154466  0  3.667003  0  0  0.120322  0  3.91723  0  0  0.129398  0  3.933886  0  0.391862  0  0.053235  0.114465  0  3.906027  0
C  C85  1  0.57746985  0.78559767  0.29707770  1  0  0.154495  0  3.666784  0  0  0.12028  0  3.917071  0  0  0.129353  0  3.933729  0  0.391921  0  0.053239  0.114422  0  3.905872  0
C  C86  1  0.92252757  0.78560287  0.79707605  1  0  0.154395  0  3.666822  0  0  0.120207  0  3.917096  0  0  0.129278  0  3.933756  0  0.391919  0  0.053218  0.114351  0  3.905894  0
C  C87  1  0.42252843  0.21439969  0.70292430  1  0  0.154394  0  3.666904  0  0  0.120237  0  3.91721  0  0  0.129312  0  3.933867  0  0.391831  0  0.053178  0.11438  0  3.906011  0
C  C88  1  0.11600304  0.34647421  0.26646916  1  0  -0.15208  0  3.680055  0  0  -0.168323  0  3.922679  0  0  -0.177201  0  3.943672  0  0.059537  0  -0.077364  -0.162617  0  3.90903  0
C  C89  1  0.61600322  0.65352315  0.23352766  1  0  -0.152092  0  3.680051  0  0  -0.168376  0  3.922706  0  0  -0.177255  0  3.943701  0  0.059541  0  -0.077381  -0.162681  0  3.90905  0
C  C90  1  0.88399420  0.65352835  0.73353045  1  0  -0.152034  0  3.679817  0  0  -0.168247  0  3.922514  0  0  -0.177126  0  3.94351  0  0.059565  0  -0.077307  -0.162549  0  3.908853  0
C  C91  1  0.38399610  0.34647212  0.76647159  1  0  -0.15202  0  3.679847  0  0  -0.168252  0  3.922524  0  0  -0.17713  0  3.943518  0  0.059573  0  -0.077322  -0.162558  0  3.908868  0
N  N92  1  0.94474825  0.16954235  0.19701834  1  0  -0.353516  0  3.34018  0  0  -0.264431  0  3.622667  0  0  -0.285995  0  3.63712  0  -1.261738  0  -0.339346  -0.250173  0  3.612636  0
N  N93  1  0.44474911  0.83045813  0.30297780  1  0  -0.353525  0  3.340156  0  0  -0.264489  0  3.622742  0  0  -0.286054  0  3.637196  0  -1.261738  0  -0.339364  -0.250231  0  3.612711  0
N  N94  1  0.05524899  0.83046125  0.80298006  1  0  -0.353342  0  3.339992  0  0  -0.264362  0  3.622626  0  0  -0.285922  0  3.637075  0  -1.261875  0  -0.339361  -0.250105  0  3.612599  0
N  N95  1  0.55525021  0.16954339  0.69702007  1  0  -0.35337  0  3.340057  0  0  -0.264389  0  3.622693  0  0  -0.285952  0  3.637145  0  -1.26174  0  -0.339329  -0.250131  0  3.612663  0
O  O96  1  0.43623968  0.69330118  0.57292635  1  0  -0.603722  0  1.897159  0  0  -0.552924  0  2.096355  0  0  -0.575668  0  2.08598  0  -1.173253  0  -0.317406  -0.536347  0  2.102439  0
O  O97  1  0.93623986  0.30669930  0.92707274  1  0  -0.603688  0  1.897265  0  0  -0.552871  0  2.096458  0  0  -0.575614  0  2.08608  0  -1.17338  0  -0.317365  -0.536293  0  2.102544  0
O  O98  1  0.56376171  0.30669721  0.42707369  1  0  -0.603727  0  1.897208  0  0  -0.55291  0  2.096427  0  0  -0.575653  0  2.086054  0  -1.173259  0  -0.317361  -0.536332  0  2.10251  0
O  O99  1  0.06375842  0.69330118  0.07292561  1  0  -0.603649  0  1.89735  0  0  -0.552844  0  2.096503  0  0  -0.575588  0  2.086127  0  -1.173325  0  -0.317341  -0.536268  0  2.102589  0
O  O100  1  0.41825710  0.89880662  0.54212333  1  0  -0.673297  0  2.076828  0  0  -0.597364  0  2.359536  0  0  -0.627257  0  2.344001  0  -1.173739  0  -0.323969  -0.576456  0  2.369456  0
O  O101  1  0.91825520  0.10119594  0.95787554  1  0  -0.673289  0  2.076791  0  0  -0.597408  0  2.359554  0  0  -0.627304  0  2.344028  0  -1.174648  0  -0.323978  -0.576503  0  2.369483  0
O  O102  1  0.58174637  0.10119490  0.45787381  1  0  -0.673347  0  2.076791  0  0  -0.597373  0  2.359487  0  0  -0.627269  0  2.343956  0  -1.174592  0  -0.323998  -0.57647  0  2.369417  0
O  O103  1  0.08174412  0.89880454  0.04212281  1  0  -0.673262  0  2.076608  0  0  -0.59744  0  2.35939  0  0  -0.627333  0  2.34385  0  -1.174653  0  -0.323992  -0.576535  0  2.369318  0
O  O104  1  0.89212147  0.01227526  0.64556928  1  0  -0.632189  0  1.979923  0  0  -0.576598  0  2.207916  0  0  -0.602169  0  2.199121  0  -1.19534  0  -0.308821  -0.558305  0  2.213417  0
O  O105  1  0.39212336  0.98772106  0.85442802  1  0  -0.632284  0  1.979845  0  0  -0.576711  0  2.207848  0  0  -0.602283  0  2.199052  0  -1.19527  0  -0.308916  -0.558411  0  2.213333  0
O  O106  1  0.10787993  0.98772626  0.35443080  1  0  -0.632214  0  1.979863  0  0  -0.576655  0  2.207857  0  0  -0.602228  0  2.199063  0  -1.195392  0  -0.308882  -0.55836  0  2.213355  0
O  O107  1  0.60787595  0.01227838  0.14557228  1  0  -0.632155  0  1.979887  0  0  -0.576571  0  2.207849  0  0  -0.602143  0  2.199052  0  -1.195292  0  -0.30882  -0.558277  0  2.213348  0
O  O108  1  0.74891296  0.87301360  0.52497446  1  0  -0.637345  0  2.067114  0  0  -0.561134  0  2.339988  0  0  -0.590581  0  2.324652  0  -1.158048  0  -0.321163  -0.540553  0  2.350162  0
O  O109  1  0.24891382  0.12698584  0.97502363  1  0  -0.637361  0  2.067149  0  0  -0.561162  0  2.340018  0  0  -0.590607  0  2.324681  0  -1.158138  0  -0.32118  -0.540583  0  2.350192  0
O  O110  1  0.25109051  0.12698792  0.47502562  1  0  -0.637334  0  2.067194  0  0  -0.561167  0  2.340057  0  0  -0.590611  0  2.324719  0  -1.158143  0  -0.321189  -0.540586  0  2.350231  0
O  O111  1  0.75108550  0.87301568  0.02497720  1  0  -0.637347  0  2.067124  0  0  -0.561175  0  2.339986  0  0  -0.590623  0  2.324651  0  -1.158074  0  -0.321165  -0.540595  0  2.35016  0
O  O112  1  0.59321344  0.86643891  0.72167354  1  0  -0.831459  0  1.870072  0  0  -0.766283  0  2.065237  0  0  -0.789734  0  2.030149  0  -1.268401  0  -0.579273  -0.749453  0  2.089952  0
O  O113  1  0.09321222  0.13355949  0.77832429  1  0  -0.831482  0  1.870105  0  0  -0.766313  0  2.065247  0  0  -0.789766  0  2.030155  0  -1.26841  0  -0.579289  -0.749483  0  2.089957  0
O  O114  1  0.40678588  0.13356053  0.27832676  1  0  -0.831453  0  1.870073  0  0  -0.766276  0  2.065242  0  0  -0.78973  0  2.030152  0  -1.268403  0  -0.579296  -0.749449  0  2.089952  0
O  O115  1  0.90678917  0.86644307  0.22167532  1  0  -0.831465  0  1.870085  0  0  -0.766291  0  2.065216  0  0  -0.789745  0  2.030128  0  -1.26839  0  -0.579284  -0.74946  0  2.089926  0
