# generated using pymatgen
data_FeAg2H8(C2N)8
_symmetry_space_group_name_H-M   'P 1'
_cell_length_a   8.58614676
_cell_length_b   15.36889534
_cell_length_c   15.45370000
_cell_angle_alpha   116.39795837
_cell_angle_beta   102.01566208
_cell_angle_gamma   100.05992882
_symmetry_Int_Tables_number   1
_chemical_formula_structural   FeAg2H8(C2N)8
_chemical_formula_sum   'Fe3 Ag6 H24 C48 N24'
_cell_volume   1701.46186131
_cell_formula_units_Z   3
loop_
 _symmetry_equiv_pos_site_id
 _symmetry_equiv_pos_as_xyz
  1  'x, y, z'
loop_
 _atom_site_type_symbol
 _atom_site_label
 _atom_site_symmetry_multiplicity
 _atom_site_fract_x
 _atom_site_fract_y
 _atom_site_fract_z
 _atom_site_occupancy
 _atom_site_hle17_bader_spin_density
 _atom_site_hle17_ddec_charge
 _atom_site_hle17_ddec_spin_density
 _atom_site_hle17_ddec_sum_bond_order
 _atom_site_hle17_magmom
 _atom_site_hse06_10hf_bader_spin_density
 _atom_site_hse06_10hf_ddec_charge
 _atom_site_hse06_10hf_ddec_spin_density
 _atom_site_hse06_10hf_ddec_sum_bond_order
 _atom_site_hse06_10hf_magmom
 _atom_site_hse06_bader_spin_density
 _atom_site_hse06_ddec_charge
 _atom_site_hse06_ddec_spin_density
 _atom_site_hse06_ddec_sum_bond_order
 _atom_site_hse06_magmom
 _atom_site_pbe_bader_charge
 _atom_site_pbe_bader_spin_density
 _atom_site_pbe_cm5_charge
 _atom_site_pbe_ddec_charge
 _atom_site_pbe_ddec_spin_density
 _atom_site_pbe_ddec_sum_bond_order
 _atom_site_pbe_magmom
Fe  Fe0  1  0.49999696  0.50000115  0.00000071  1  0  0.590016  0  3.503625  0  0  0.583236  0  3.963073  0  0  0.601984  0  3.929524  0  1.237067  0  0.919396  0.578229  0  3.97619  0
Fe  Fe1  1  0.99999757  0.49999886  0.50000158  1  0  0.582951  0  3.512019  0  0  0.575578  0  3.972398  0  0  0.595189  0  3.937859  0  1.243383  0  0.915754  0.570145  0  3.985978  0
Fe  Fe2  1  0.50000332  0.00000076  0.49999995  1  0  0.588123  0  3.516082  0  0  0.581077  0  3.976157  0  0  0.599294  0  3.943079  0  1.230602  0  0.92165  0.576395  0  3.988933  0
Ag  Ag3  1  0.99788320  0.30850195  0.69032626  1  0  0.292373  0  2.079351  0  0  0.185486  0  2.591471  0  0  0.201328  0  2.539485  0  0.400047  0  0.319602  0.17484  0  2.628118  0
Ag  Ag4  1  0.69640978  0.39302869  0.69651222  1  0  0.294135  0  2.035201  0  0  0.184091  0  2.539894  0  0  0.200985  0  2.487147  0  0.394653  0  0.314791  0.172826  0  2.576791  0
Ag  Ag5  1  0.31024104  0.30822812  0.61776233  1  0  0.291579  0  2.080047  0  0  0.184579  0  2.592137  0  0  0.200631  0  2.539748  0  0.393313  0  0.318349  0.173936  0  2.628669  0
Ag  Ag6  1  0.00212554  0.69149425  0.30967093  1  0  0.292365  0  2.079364  0  0  0.185475  0  2.591479  0  0  0.201316  0  2.539479  0  0.400068  0  0.319607  0.174826  0  2.628122  0
Ag  Ag7  1  0.30359328  0.60697285  0.30349639  1  0  0.294126  0  2.035082  0  0  0.184077  0  2.539746  0  0  0.200968  0  2.487004  0  0.394641  0  0.314758  0.172812  0  2.57664  0
Ag  Ag8  1  0.68976836  0.69177418  0.38224152  1  0  0.291558  0  2.079994  0  0  0.184548  0  2.592092  0  0  0.2006  0  2.539702  0  0.393299  0  0.318358  0.173904  0  2.628624  0
H  H9  1  0.63680163  0.71654938  0.15916645  1  0  0.089977  0  0.948717  0  0  0.097623  0  1.012715  0  0  0.0992  0  1.01123  0  0.12171  0  0.122801  0.096401  0  1.013898  0
H  H10  1  0.91643719  0.44125722  0.28337800  1  0  0.08892  0  0.952964  0  0  0.096625  0  1.016512  0  0  0.09815  0  1.015199  0  0.144167  0  0.121935  0.095425  0  1.017608  0
H  H11  1  0.48240357  0.84176171  0.55845553  1  0  0.090502  0  0.947626  0  0  0.099222  0  1.00934  0  0  0.100768  0  1.007991  0  0.137331  0  0.12359  0.098022  0  1.010443  0
H  H12  1  0.52416085  0.44128849  0.15784088  1  0  0.089098  0  0.953039  0  0  0.096647  0  1.016769  0  0  0.098053  0  1.015595  0  0.105664  0  0.122257  0.095552  0  1.017741  0
H  H13  1  0.35916134  0.84165645  0.28323670  1  0  0.090604  0  0.948129  0  0  0.098825  0  1.010338  0  0  0.100289  0  1.009076  0  0.140155  0  0.124265  0.097686  0  1.011383  0
H  H14  1  0.08031611  0.71654404  0.55745618  1  0  0.089682  0  0.949273  0  0  0.096858  0  1.01359  0  0  0.098473  0  1.012087  0  0.127201  0  0.12248  0.095609  0  1.014817  0
H  H15  1  0.36319467  0.28345293  0.84083330  1  0  0.090017  0  0.948712  0  0  0.097639  0  1.012759  0  0  0.099219  0  1.011265  0  0.121656  0  0.122796  0.096421  0  1.013945  0
H  H16  1  0.08355750  0.55874661  0.71662806  1  0  0.088896  0  0.95312  0  0  0.096637  0  1.01661  0  0  0.098158  0  1.015301  0  0.144074  0  0.121971  0.095438  0  1.017706  0
H  H17  1  0.51761493  0.15824212  0.44154487  1  0  0.090471  0  0.94764  0  0  0.09919  0  1.009351  0  0  0.100757  0  1.007981  0  0.137537  0  0.123614  0.097991  0  1.010452  0
H  H18  1  0.47583631  0.55871076  0.84215891  1  0  0.089074  0  0.953065  0  0  0.096646  0  1.016752  0  0  0.09805  0  1.015579  0  0.105604  0  0.122246  0.09555  0  1.017725  0
H  H19  1  0.64084168  0.15834738  0.71676127  1  0  0.09066  0  0.948135  0  0  0.098915  0  1.010299  0  0  0.100381  0  1.009035  0  0.14007  0  0.124302  0.097773  0  1.011346  0
H  H20  1  0.91968948  0.28345064  0.44254191  1  0  0.089562  0  0.94952  0  0  0.096791  0  1.013779  0  0  0.098407  0  1.012271  0  0.127069  0  0.122443  0.095542  0  1.015006  0
H  H21  1  0.70393765  0.88429929  0.16557126  1  0  0.119017  0  0.939082  0  0  0.127175  0  0.99772  0  0  0.130593  0  0.996055  0  0.121332  0  0.115011  0.124744  0  0.999109  0
H  H22  1  0.81742498  0.27978787  0.11600256  1  0  0.118304  0  0.939623  0  0  0.126109  0  0.998839  0  0  0.129554  0  0.997137  0  0.120381  0  0.114563  0.123663  0  1.000241  0
H  H23  1  0.54092775  0.83555514  0.72021741  1  0  0.118061  0  0.939714  0  0  0.126149  0  0.998483  0  0  0.129426  0  0.996996  0  0.114491  0  0.114348  0.12382  0  0.999753  0
H  H24  1  0.46218392  0.27987711  0.16376730  1  0  0.118742  0  0.938665  0  0  0.12631  0  0.998122  0  0  0.129687  0  0.9965  0  0.124104  0  0.115097  0.123927  0  0.999458  0
H  H25  1  0.29453335  0.83542471  0.11524705  1  0  0.118941  0  0.938703  0  0  0.127088  0  0.997332  0  0  0.130388  0  0.99581  0  0.135348  0  0.115264  0.124749  0  0.998594  0
H  H26  1  0.18055640  0.88436794  0.71884705  1  0  0.119072  0  0.937928  0  0  0.126826  0  0.99708  0  0  0.130283  0  0.995369  0  0.115604  0  0.114458  0.124369  0  0.998481  0
H  H27  1  0.29605513  0.11570072  0.83442254  1  0  0.119025  0  0.93897  0  0  0.127146  0  0.997649  0  0  0.130563  0  0.995985  0  0.121351  0  0.114996  0.124712  0  0.999041  0
H  H28  1  0.18256699  0.72021291  0.88400637  1  0  0.118329  0  0.939411  0  0  0.126066  0  0.998712  0  0  0.129509  0  0.997012  0  0.120251  0  0.114536  0.12362  0  1.000113  0
H  H29  1  0.45908598  0.16444869  0.27978309  1  0  0.118058  0  0.939673  0  0  0.126117  0  0.998473  0  0  0.129394  0  0.996985  0  0.114474  0  0.114311  0.123789  0  0.999741  0
H  H30  1  0.53781014  0.72011833  0.83622721  1  0  0.118698  0  0.938652  0  0  0.126286  0  0.998091  0  0  0.129661  0  0.996469  0  0.124021  0  0.115071  0.123902  0  0.999427  0
H  H31  1  0.70546333  0.16457836  0.88474984  1  0  0.118949  0  0.938751  0  0  0.127106  0  0.997369  0  0  0.130408  0  0.995849  0  0.135316  0  0.115253  0.124768  0  0.99863  0
H  H32  1  0.81944405  0.11562597  0.28115400  1  0  0.119167  0  0.937762  0  0  0.126886  0  0.996959  0  0  0.130352  0  0.995252  0  0.115773  0  0.114458  0.124426  0  0.998365  0
C  C33  1  0.62666192  0.81589577  0.00089468  1  0  0.027498  0  3.748218  0  0  0.036169  0  3.985985  0  0  0.035918  0  4.007456  0  -0.032298  0  0.009074  0.037082  0  3.970879  0
C  C34  1  0.81111003  0.18412637  0.18498807  1  0  0.027375  0  3.75003  0  0  0.035511  0  3.988531  0  0  0.035402  0  4.009971  0  0.016369  0  0.006072  0.036234  0  3.973601  0
C  C35  1  0.62831600  0.00003738  0.81624870  1  0  0.028151  0  3.743956  0  0  0.035308  0  3.984578  0  0  0.034961  0  4.00599  0  -0.022829  0  0.006222  0.036247  0  3.96953  0
C  C36  1  0.37333090  0.18410196  0.99910135  1  0  0.027488  0  3.748116  0  0  0.036176  0  3.985849  0  0  0.035924  0  4.007323  0  -0.03167  0  0.009056  0.037089  0  3.970739  0
C  C37  1  0.37168779  0.99996798  0.18375067  1  0  0.02803  0  3.743944  0  0  0.035194  0  3.984592  0  0  0.034826  0  4.006029  0  -0.024326  0  0.006148  0.03613  0  3.969543  0
C  C38  1  0.18888275  0.81587365  0.81501091  1  0  0.027432  0  3.74996  0  0  0.035502  0  3.98857  0  0  0.035396  0  4.010013  0  0.016467  0  0.006144  0.036225  0  3.973639  0
C  C39  1  0.61724223  0.72062633  0.08944117  1  0  0.122172  0  3.647786  0  0  0.094148  0  3.89455  0  0  0.102451  0  3.910176  0  0.461394  0  0.053566  0.088687  0  3.88421  0
C  C40  1  0.89464618  0.36769363  0.27971124  1  0  0.122435  0  3.648738  0  0  0.095084  0  3.894152  0  0  0.103232  0  3.909969  0  0.393084  0  0.053654  0.089585  0  3.883803  0
C  C41  1  0.53234829  0.91147108  0.63224190  1  0  0.120219  0  3.650769  0  0  0.092016  0  3.896831  0  0  0.100139  0  3.912508  0  0.448163  0  0.052548  0.086614  0  3.886408  0
C  C42  1  0.47266717  0.36774778  0.08794559  1  0  0.121841  0  3.650544  0  0  0.094195  0  3.896411  0  0  0.102493  0  3.912247  0  0.450185  0  0.052742  0.088763  0  3.885933  0
C  C43  1  0.37900304  0.91134294  0.27917024  1  0  0.120942  0  3.650889  0  0  0.093097  0  3.897324  0  0  0.101351  0  3.912865  0  0.436145  0  0.052179  0.087585  0  3.887006  0
C  C44  1  0.10374404  0.72064692  0.63126321  1  0  0.12152  0  3.649314  0  0  0.094505  0  3.895258  0  0  0.102683  0  3.910988  0  0.462894  0  0.05361  0.088965  0  3.884961  0
C  C45  1  0.38275326  0.27937674  0.91055559  1  0  0.122102  0  3.647925  0  0  0.094012  0  3.89468  0  0  0.102352  0  3.910327  0  0.461316  0  0.053568  0.088544  0  3.884346  0
C  C46  1  0.10534593  0.63230029  0.72029208  1  0  0.122333  0  3.649116  0  0  0.094992  0  3.89445  0  0  0.103143  0  3.910269  0  0.385707  0  0.053596  0.089492  0  3.884099  0
C  C47  1  0.46766311  0.08853046  0.36775667  1  0  0.120283  0  3.650776  0  0  0.092088  0  3.896883  0  0  0.100197  0  3.91255  0  0.448058  0  0.052544  0.086687  0  3.886458  0
C  C48  1  0.52732999  0.63225147  0.91205097  1  0  0.121805  0  3.65059  0  0  0.094186  0  3.896514  0  0  0.102449  0  3.912322  0  0.450104  0  0.052724  0.088754  0  3.886037  0
C  C49  1  0.62100122  0.08865860  0.72082945  1  0  0.12089  0  3.650846  0  0  0.092994  0  3.897282  0  0  0.101247  0  3.912825  0  0.43618  0  0.052103  0.087483  0  3.886963  0
C  C50  1  0.89625912  0.27935004  0.36874338  1  0  0.121703  0  3.649598  0  0  0.094639  0  3.89552  0  0  0.102816  0  3.911251  0  0.463107  0  0.053653  0.0891  0  3.885223  0
C  C51  1  0.65434348  0.81363114  0.09249380  1  0  -0.129876  0  3.70884  0  0  -0.150509  0  3.95708  0  0  -0.156306  0  3.976695  0  -0.007922  0  -0.074496  -0.146895  0  3.943832  0
C  C52  1  0.83947390  0.27765824  0.18684835  1  0  -0.128442  0  3.709697  0  0  -0.148463  0  3.957611  0  0  -0.154447  0  3.977408  0  0.013415  0  -0.072926  -0.144762  0  3.944345  0
C  C53  1  0.56506890  0.90851539  0.72243067  1  0  -0.126981  0  3.707774  0  0  -0.146458  0  3.955583  0  0  -0.152346  0  3.975553  0  -0.044599  0  -0.070869  -0.142768  0  3.942045  0
C  C54  1  0.43814159  0.27772231  0.09077000  1  0  -0.129016  0  3.709445  0  0  -0.148963  0  3.957482  0  0  -0.154889  0  3.97729  0  -0.002445  0  -0.074096  -0.145262  0  3.944047  0
C  C55  1  0.34335583  0.90841699  0.18603843  1  0  -0.130605  0  3.70851  0  0  -0.15025  0  3.956705  0  0  -0.156076  0  3.976504  0  -0.015311  0  -0.073797  -0.146606  0  3.943311  0
C  C56  1  0.15933020  0.81367004  0.72121969  1  0  -0.130607  0  3.707424  0  0  -0.150688  0  3.955468  0  0  -0.156598  0  3.975151  0  -0.047512  0  -0.07324  -0.147032  0  3.942277  0
C  C57  1  0.34565240  0.18637269  0.90750270  1  0  -0.129852  0  3.708656  0  0  -0.150441  0  3.956895  0  0  -0.156237  0  3.976506  0  -0.008057  0  -0.074509  -0.146824  0  3.943645  0
C  C58  1  0.16051502  0.72233644  0.81315041  1  0  -0.128474  0  3.709492  0  0  -0.148432  0  3.957442  0  0  -0.154419  0  3.977242  0  0.021216  0  -0.072944  -0.14473  0  3.944174  0
C  C59  1  0.43494164  0.09148921  0.27756915  1  0  -0.127015  0  3.707898  0  0  -0.146452  0  3.955701  0  0  -0.152333  0  3.97568  0  -0.042298  0  -0.070831  -0.142762  0  3.942163  0
C  C60  1  0.56185480  0.72227542  0.90922580  1  0  -0.129018  0  3.7096  0  0  -0.148968  0  3.957616  0  0  -0.154894  0  3.97743  0  -0.002034  0  -0.074143  -0.145267  0  3.94418  0
C  C61  1  0.65664838  0.09158684  0.81396355  1  0  -0.130695  0  3.708621  0  0  -0.15036  0  3.956845  0  0  -0.156197  0  3.976642  0  -0.014338  0  -0.073801  -0.146718  0  3.943451  0
C  C62  1  0.84067011  0.18633074  0.27878373  1  0  -0.130702  0  3.707266  0  0  -0.150776  0  3.955294  0  0  -0.1567  0  3.97499  0  -0.047933  0  -0.073214  -0.147117  0  3.942104  0
C  C63  1  0.66271589  0.91323840  0.00080752  1  0  0.405609  0  3.760955  0  0  0.387911  0  4.023614  0  0  0.407598  0  4.030092  0  1.120294  0  0.254707  0.374375  0  4.019527  0
C  C64  1  0.74978292  0.08673264  0.08755142  1  0  0.406253  0  3.76221  0  0  0.388175  0  4.025534  0  0  0.407912  0  4.031765  0  1.072106  0  0.256421  0.37453  0  4.021651  0
C  C65  1  0.66313901  0.00000992  0.91383290  1  0  0.406549  0  3.758145  0  0  0.387694  0  4.023439  0  0  0.407697  0  4.029481  0  1.117852  0  0.255187  0.374006  0  4.019526  0
C  C66  1  0.33727417  0.08675857  0.99918721  1  0  0.405549  0  3.761148  0  0  0.387859  0  4.023753  0  0  0.407546  0  4.030233  0  1.120506  0  0.254701  0.37433  0  4.019654  0
C  C67  1  0.33685844  0.99999468  0.08616540  1  0  0.406454  0  3.758158  0  0  0.387532  0  4.023513  0  0  0.40754  0  4.02956  0  1.117784  0  0.255188  0.373848  0  4.0196  0
C  C68  1  0.25020748  0.91326738  0.91244858  1  0  0.406386  0  3.761977  0  0  0.388283  0  4.025372  0  0  0.408007  0  4.031622  0  1.071701  0  0.256472  0.374639  0  4.02149  0
C  C69  1  0.17922881  0.41586648  0.82234770  1  0  -0.094579  0  3.418305  0  0  -0.069073  0  3.767166  0  0  -0.067373  0  3.774093  0  0.744371  0  -0.041027  -0.070078  0  3.762478  0
C  C70  1  0.77278656  0.41432951  0.58953589  1  0  -0.095861  0  3.409082  0  0  -0.068801  0  3.756242  0  0  -0.066892  0  3.762573  0  0.748174  0  -0.040832  -0.069777  0  3.751728  0
C  C71  1  0.35804277  0.17587636  0.59131209  1  0  -0.0931  0  3.416266  0  0  -0.067676  0  3.76443  0  0  -0.066188  0  3.771553  0  0.763412  0  -0.038911  -0.068421  0  3.759344  0
C  C72  1  0.64143801  0.41414874  0.82476597  1  0  -0.092727  0  3.408509  0  0  -0.065234  0  3.755189  0  0  -0.063811  0  3.761966  0  0.762375  0  -0.037151  -0.066005  0  3.75046  0
C  C73  1  0.81769737  0.17603196  0.58464673  1  0  -0.094566  0  3.416752  0  0  -0.06917  0  3.764985  0  0  -0.067725  0  3.772201  0  0.756052  0  -0.039875  -0.070005  0  3.760096  0
C  C74  1  0.23651317  0.41571545  0.59329066  1  0  -0.094142  0  3.420024  0  0  -0.068538  0  3.768886  0  0  -0.066344  0  3.775303  0  0.750136  0  -0.03926  -0.069649  0  3.764222  0
C  C75  1  0.82077031  0.58413430  0.17765300  1  0  -0.094519  0  3.418168  0  0  -0.069  0  3.767014  0  0  -0.067299  0  3.77394  0  0.743802  0  -0.040996  -0.07001  0  3.762332  0
C  C76  1  0.22721170  0.58567432  0.41047382  1  0  -0.095988  0  3.409163  0  0  -0.068923  0  3.756306  0  0  -0.067018  0  3.762641  0  0.748311  0  -0.040902  -0.069896  0  3.751788  0
C  C77  1  0.64196858  0.82412747  0.40869073  1  0  -0.093113  0  3.416414  0  0  -0.067688  0  3.764573  0  0  -0.0662  0  3.771691  0  0.764  0  -0.038889  -0.068433  0  3.759488  0
C  C78  1  0.35855876  0.58584975  0.17523668  1  0  -0.092683  0  3.408561  0  0  -0.065172  0  3.755191  0  0  -0.063749  0  3.761973  0  0.762626  0  -0.037115  -0.065941  0  3.750461  0
C  C79  1  0.18231574  0.82396348  0.41535322  1  0  -0.094488  0  3.416696  0  0  -0.069082  0  3.764918  0  0  -0.067638  0  3.772136  0  0.756098  0  -0.03984  -0.069916  0  3.760024  0
C  C80  1  0.76348875  0.58428381  0.40671098  1  0  -0.094137  0  3.420154  0  0  -0.068525  0  3.769004  0  0  -0.066332  0  3.775423  0  0.750228  0  -0.039253  -0.069635  0  3.764339  0
N  N81  1  0.55426405  0.63043992  0.00067990  1  0  -0.185702  0  3.311506  0  0  -0.135673  0  3.572059  0  0  -0.152818  0  3.589498  0  -1.15664  0  -0.316355  -0.125157  0  3.559506  0
N  N82  1  0.92343050  0.36947772  0.37011623  1  0  -0.183927  0  3.31467  0  0  -0.134529  0  3.575348  0  0  -0.15168  0  3.59262  0  -1.147615  0  -0.316053  -0.123894  0  3.562811  0
N  N83  1  0.55881572  0.00006941  0.63046797  1  0  -0.183715  0  3.311771  0  0  -0.134038  0  3.572715  0  0  -0.150809  0  3.589827  0  -1.140956  0  -0.315328  -0.12357  0  3.560207  0
N  N84  1  0.44573115  0.36955781  0.99931770  1  0  -0.185822  0  3.311695  0  0  -0.135648  0  3.572111  0  0  -0.152912  0  3.589674  0  -1.156808  0  -0.316401  -0.125129  0  3.559557  0
N  N85  1  0.44119054  0.99993137  0.36952838  1  0  -0.183681  0  3.311699  0  0  -0.134095  0  3.572755  0  0  -0.150867  0  3.589872  0  -1.140801  0  -0.315362  -0.123626  0  3.560247  0
N  N86  1  0.07656752  0.63051848  0.62989137  1  0  -0.183777  0  3.314705  0  0  -0.134379  0  3.575311  0  0  -0.151532  0  3.592584  0  -1.147718  0  -0.316002  -0.123742  0  3.562772  0
N  N87  1  0.29654633  0.45415701  0.89583634  1  0  -0.301249  0  3.400944  0  0  -0.275056  0  3.684033  0  0  -0.290806  0  3.70642  0  -1.301613  0  -0.38783  -0.265497  0  3.667146  0
N  N88  1  0.84779488  0.44465074  0.54807662  1  0  -0.296113  0  3.388724  0  0  -0.269518  0  3.669744  0  0  -0.285461  0  3.691913  0  -1.301775  0  -0.381701  -0.259853  0  3.652958  0
N  N89  1  0.40178003  0.10325782  0.55640922  1  0  -0.302101  0  3.403954  0  0  -0.275988  0  3.687281  0  0  -0.291708  0  3.709977  0  -1.316205  0  -0.388085  -0.266418  0  3.670123  0
N  N90  1  0.59684846  0.44452793  0.89657343  1  0  -0.300042  0  3.388253  0  0  -0.273942  0  3.669743  0  0  -0.289701  0  3.692187  0  -1.315162  0  -0.385059  -0.264329  0  3.652817  0
N  N91  1  0.70133105  0.10342182  0.54690631  1  0  -0.300613  0  3.403735  0  0  -0.274498  0  3.686913  0  0  -0.290196  0  3.709583  0  -1.311489  0  -0.387993  -0.264994  0  3.669881  0
N  N92  1  0.15752145  0.45405099  0.55812464  1  0  -0.301703  0  3.406267  0  0  -0.275561  0  3.689867  0  0  -0.291438  0  3.7119  0  -1.30624  0  -0.389889  -0.26594  0  3.673072  0
N  N93  1  0.70344764  0.54584301  0.10416277  1  0  -0.301317  0  3.40077  0  0  -0.275136  0  3.683873  0  0  -0.290883  0  3.70626  0  -1.301185  0  -0.387874  -0.265574  0  3.666985  0
N  N94  1  0.15220305  0.55535004  0.45192912  1  0  -0.296027  0  3.388849  0  0  -0.269434  0  3.669858  0  0  -0.285373  0  3.692026  0  -1.301834  0  -0.381625  -0.25977  0  3.653071  0
N  N95  1  0.59823018  0.89674372  0.44359116  1  0  -0.302081  0  3.404066  0  0  -0.275966  0  3.687381  0  0  -0.29168  0  3.710071  0  -1.316707  0  -0.388122  -0.266395  0  3.670223  0
N  N96  1  0.40314784  0.55547437  0.10343085  1  0  -0.300037  0  3.388394  0  0  -0.273944  0  3.669876  0  0  -0.289703  0  3.692319  0  -1.315485  0  -0.385064  -0.264331  0  3.652951  0
N  N97  1  0.29867807  0.89657515  0.45309257  1  0  -0.300731  0  3.403682  0  0  -0.274623  0  3.686869  0  0  -0.290317  0  3.709535  0  -1.3115  0  -0.388062  -0.265117  0  3.669834  0
N  N98  1  0.84247414  0.54594751  0.44187787  1  0  -0.301668  0  3.406337  0  0  -0.275524  0  3.689905  0  0  -0.291401  0  3.711938  0  -1.306319  0  -0.389873  -0.265902  0  3.673109  0
N  N99  1  0.63130985  0.90911873  0.90979133  1  0  -0.448286  0  2.959109  0  0  -0.416836  0  3.216886  0  0  -0.431396  0  3.222967  0  -1.196473  0  -0.30619  -0.407857  0  3.21363  0
N  N100  1  0.72242710  0.00001068  0.09179806  1  0  -0.447247  0  2.957511  0  0  -0.416448  0  3.215499  0  0  -0.430812  0  3.221349  0  -1.18958  0  -0.306311  -0.407485  0  3.212398  0
N  N101  1  0.72265890  0.09093392  0.00071167  1  0  -0.448811  0  2.958717  0  0  -0.417372  0  3.216858  0  0  -0.4319  0  3.222691  0  -1.211785  0  -0.305819  -0.408287  0  3.213718  0
N  N102  1  0.27756173  0.99998858  0.90819819  1  0  -0.447183  0  2.957412  0  0  -0.41638  0  3.215403  0  0  -0.430738  0  3.221255  0  -1.189877  0  -0.306271  -0.407419  0  3.212298  0
N  N103  1  0.36868450  0.09088205  0.09020428  1  0  -0.448187  0  2.959262  0  0  -0.416694  0  3.217024  0  0  -0.431254  0  3.223104  0  -1.196396  0  -0.306186  -0.407721  0  3.213767  0
N  N104  1  0.27733464  0.90906763  0.99928807  1  0  -0.448866  0  2.958659  0  0  -0.417375  0  3.216803  0  0  -0.431901  0  3.222638  0  -1.211656  0  -0.305835  -0.408293  0  3.213664  0
