# generated using pymatgen
data_Zn2H46C65N7(ClO4)3
_symmetry_space_group_name_H-M   'P 1'
_cell_length_a   14.64693453
_cell_length_b   16.02527329
_cell_length_c   28.06316774
_cell_angle_alpha   89.95887484
_cell_angle_beta   89.54749334
_cell_angle_gamma   90.00511081
_symmetry_Int_Tables_number   1
_chemical_formula_structural   Zn2H46C65N7(ClO4)3
_chemical_formula_sum   'Zn2 H46 C65 N7 Cl3 O12'
_cell_volume   6586.81125454
_cell_formula_units_Z   1
loop_
 _symmetry_equiv_pos_site_id
 _symmetry_equiv_pos_as_xyz
  1  'x, y, z'
loop_
 _atom_site_type_symbol
 _atom_site_label
 _atom_site_symmetry_multiplicity
 _atom_site_fract_x
 _atom_site_fract_y
 _atom_site_fract_z
 _atom_site_occupancy
 _atom_site_pbe_bader_charge
 _atom_site_pbe_bader_spin_density
 _atom_site_pbe_cm5_charge
 _atom_site_pbe_ddec_charge
 _atom_site_pbe_ddec_spin_density
 _atom_site_pbe_ddec_sum_bond_order
 _atom_site_pbe_magmom
Zn  Zn0  1  0.40587742  0.49875583  0.50149540  1  1.290398  0  0.677018  0.883769  0  2.438834  0
Zn  Zn1  1  0.59474607  0.50019047  0.50250954  1  1.310926  0  0.679483  0.888748  0  2.428881  0
H  H2  1  0.35075192  0.51784698  0.65173819  1  0.103197  0  0.102719  0.106203  0  1.003015  0
H  H3  1  0.45556320  0.92587681  0.43066325  1  0.027743  0  0.092523  0.092914  0  0.97793  0
H  H4  1  0.61383247  0.92789305  0.45678873  1  0.058387  0  0.095996  0.09804  0  0.971906  0
H  H5  1  0.64526958  0.92189446  0.51673655  1  0.018511  0  0.0926  0.086731  0  0.995308  0
H  H6  1  0.36443658  0.92907654  0.47255819  1  0.084583  0  0.091027  0.090671  0  1.008926  0
H  H7  1  0.34568265  0.52207793  0.74127962  1  0.070208  0  0.105358  0.111563  0  0.986585  0
H  H8  1  0.64197550  0.06876702  0.52365324  1  0.020123  0  0.088566  0.08478  0  0.985469  0
H  H9  1  0.36792917  0.07483370  0.46999332  1  0.015814  0  0.092877  0.091973  0  0.976698  0
H  H10  1  0.39564063  0.07387653  0.55790985  1  0.056337  0  0.098707  0.109888  0  1.000667  0
H  H11  1  0.50741437  0.07261382  0.58061722  1  0.055091  0  0.095929  0.103527  0  0.993317  0
H  H12  1  0.08508188  0.63110639  0.47589418  1  0.089029  0  0.10519  0.116455  0  0.975803  0
H  H13  1  0.63822277  0.50196732  0.74454880  1  0.061769  0  0.107452  0.115281  0  0.983695  0
H  H14  1  0.92725498  0.62338865  0.46514367  1  0.073021  0  0.104447  0.114726  0  0.973108  0
H  H15  1  0.92998219  0.38922058  0.45495279  1  0.114194  0  0.117752  0.103211  0  0.941344  0
H  H16  1  0.08294370  0.39981279  0.44521914  1  0.12383  0  0.118811  0.104105  0  0.941451  0
H  H17  1  0.92476644  0.48602977  0.57342261  1  0.043049  0  0.11141  0.117702  0  0.954301  0
H  H18  1  0.08336783  0.46718774  0.57179743  1  0.080451  0  0.112716  0.119983  0  0.954107  0
H  H19  1  0.91521525  0.39066038  0.54234630  1  0.075489  0  0.11035  0.1151  0  0.958449  0
H  H20  1  0.07412391  0.38105727  0.53297721  1  0.032943  0  0.108431  0.111938  0  0.959198  0
H  H21  1  0.91577925  0.62519722  0.52794776  1  0.066251  0  0.110743  0.118416  0  0.953822  0
H  H22  1  0.07447224  0.61402665  0.53796921  1  0.079603  0  0.108191  0.114186  0  0.956603  0
H  H23  1  0.37158507  0.55181257  0.35492662  1  0.099273  0  0.108837  0.11401  0  0.989629  0
H  H24  1  0.42114629  0.31562787  0.87769750  1  0.12719  0  0.113158  0.11851  0  0.985623  0
H  H25  1  0.36321938  0.56093562  0.26592591  1  0.058604  0  0.109859  0.118631  0  0.980001  0
H  H26  1  0.52937385  0.71405343  0.12629427  1  0.107918  0  0.115871  0.121313  0  0.980725  0
H  H27  1  0.53012861  0.71947445  0.03836654  1  0.055454  0  0.10382  0.103451  0  1.007777  0
H  H28  1  0.53508802  0.71907877  0.96961379  1  0.034556  0  0.104856  0.103449  0  1.024891  0
H  H29  1  0.64225956  0.49643080  0.65506482  1  0.123404  0  0.103621  0.107068  0  1.001062  0
H  H30  1  0.37635038  0.85602144  0.56906163  1  0.393607  0  0.295878  0.244322  0  0.961757  0
H  H31  1  0.24961785  0.91652275  0.59953687  1  0.028446  0  0.099127  0.103346  0  0.98627  0
H  H32  1  0.27548370  0.01461762  0.57435828  1  -0.002351  0  0.089315  0.088323  0  1.004426  0
H  H33  1  0.33120475  0.98224289  0.62740135  1  0.0267  0  0.080216  0.070822  0  1.029947  0
H  H34  1  0.59260992  0.93219420  0.58156626  1  0.366162  0  0.282715  0.226668  0  0.989787  0
H  H35  1  0.44330141  0.30338531  0.03412535  1  0.032639  0  0.10617  0.104904  0  1.007637  0
H  H36  1  0.56458436  0.91132834  0.66131072  1  0.045925  0  0.099105  0.106296  0  0.981705  0
H  H37  1  0.44602669  0.90157566  0.65152007  1  0.013703  0  0.09465  0.099428  0  0.999494  0
H  H38  1  0.49854067  0.00199118  0.64806123  1  -0.008536  0  0.076766  0.063613  0  1.02398  0
H  H39  1  0.54439359  0.78759404  0.90785599  1  0.430293  0  0.313549  0.243407  0  0.946214  0
H  H40  1  0.50697938  0.84825994  0.83894061  1  0.026427  0  0.10797  0.113411  0  0.97885  0
H  H41  1  0.41108140  0.77979122  0.84445878  1  -0.000475  0  0.095909  0.097063  0  0.987004  0
H  H42  1  0.50685300  0.75099799  0.80785689  1  0.165782  0  0.110753  0.140623  0  1.033362  0
H  H43  1  0.44799272  0.30210917  0.12219198  1  0.120528  0  0.116038  0.121149  0  0.98016  0
H  H44  1  0.62590615  0.44109506  0.25601607  1  0.109001  0  0.110822  0.132236  0  0.980393  0
H  H45  1  0.42643572  0.30832946  0.96584792  1  0.080568  0  0.104211  0.103827  0  1.012522  0
H  H46  1  0.46060108  0.07207751  0.42943384  1  0.045948  0  0.093632  0.092602  0  0.974998  0
H  H47  1  0.62474851  0.07326706  0.46153368  1  0.051968  0  0.094296  0.095764  0  0.975141  0
C  C48  1  0.49728048  0.66135244  0.50069718  1  1.601365  0  0.215987  0.681559  0  4.226536  0
C  C49  1  0.50340158  0.58791647  0.02845327  1  -0.07845  0  0.005894  0.044927  0  3.96537  0
C  C50  1  0.46869713  0.43564674  0.02696031  1  0.016094  0  0.006131  0.042203  0  3.976294  0
C  C51  1  0.49915106  0.50365850  0.59491042  1  1.53302  0  0.214933  0.595841  0  4.169509  0
C  C52  1  0.48666388  0.51085121  0.05259667  1  0.062534  0  0.00361  0.000154  0  3.914127  0
C  C53  1  0.51820772  0.65964818  0.05573291  1  0.011457  0  -0.084753  -0.125522  0  3.97848  0
C  C54  1  0.51800454  0.65763368  0.10547880  1  -0.094594  0  -0.069649  -0.068926  0  3.981143  0
C  C55  1  0.50342340  0.58311720  0.12964069  1  0.015816  0  -0.012306  -0.074088  0  4.006161  0
C  C56  1  0.48786842  0.50891204  0.10360662  1  -0.051033  0  0.003788  0.037908  0  4.002683  0
C  C57  1  0.47354794  0.43270833  0.12813879  1  -0.004551  0  -0.013765  -0.076004  0  4.010511  0
C  C58  1  0.47516336  0.42878080  0.18075772  1  1.312577  0  0.239225  0.437567  0  4.104566  0
C  C59  1  0.41045026  0.51727712  0.72208970  1  -0.060769  0  -0.088609  -0.157781  0  3.993542  0
C  C60  1  0.50484893  0.58289381  0.18237886  1  1.323408  0  0.239997  0.439254  0  4.108906  0
C  C61  1  0.42237949  0.53346828  0.28323310  1  0.028471  0  -0.086822  -0.160347  0  3.98513  0
C  C62  1  0.42740245  0.52884607  0.33261894  1  -0.011878  0  -0.075997  -0.063487  0  3.970336  0
C  C63  1  0.50007907  0.33744312  0.50386792  1  1.658432  0  0.216534  0.680682  0  4.230831  0
C  C64  1  0.57538063  0.46377930  0.32720039  1  0.035437  0  0.024479  0.157508  0  3.999997  0
C  C65  1  0.57062317  0.46698124  0.27754576  1  0.087194  0  -0.090417  -0.222737  0  3.952249  0
C  C66  1  0.49460440  0.50220810  0.25599419  1  0.255768  0  0.091052  0.214845  0  4.026346  0
C  C67  1  0.50403207  0.58907224  0.97618246  1  0.054495  0  0.001299  0.056288  0  4.020539  0
C  C68  1  0.48292402  0.51427231  0.95053336  1  -0.003117  0  -0.005552  -0.017798  0  3.935623  0
C  C69  1  0.46429002  0.43814159  0.97489138  1  -0.035711  0  0.001417  0.042573  0  3.988923  0
C  C70  1  0.49170692  0.51251928  0.74755940  1  0.320262  0  0.089569  0.198292  0  4.018781  0
C  C71  1  0.52134375  0.66110837  0.95061014  1  -0.047544  0  -0.090464  -0.228656  0  3.951135  0
C  C72  1  0.43902867  0.37025018  0.89877274  1  0.015138  0  -0.074676  -0.070095  0  3.995035  0
C  C73  1  0.45566125  0.36177604  0.05276938  1  0.006438  0  -0.082951  -0.123424  0  3.972842  0
C  C74  1  0.45818973  0.36007455  0.10251497  1  -0.058652  0  -0.068752  -0.067287  0  3.977841  0
C  C75  1  0.50348026  0.49540106  0.40927782  1  1.584075  0  0.213967  0.606015  0  4.170722  0
C  C76  1  0.44205776  0.36712594  0.94819150  1  -0.077858  0  -0.090313  -0.136442  0  4.002318  0
C  C77  1  0.43351033  0.95206913  0.46503367  1  -0.105396  0  -0.157758  -0.184123  0  3.869403  0
C  C78  1  0.59541597  0.95029902  0.49260098  1  -0.03747  0  -0.155842  -0.185565  0  3.871526  0
C  C79  1  0.59769933  0.04653142  0.49483380  1  -0.06977  0  -0.157077  -0.193272  0  3.868155  0
C  C80  1  0.43630426  0.04842015  0.46403722  1  0.01664  0  -0.153502  -0.181167  0  3.843832  0
C  C81  1  0.48184285  0.51746827  0.89955381  1  0.010437  0  0.003132  0.054215  0  4.001206  0
C  C82  1  0.50065610  0.24726818  0.50426962  1  0.174059  0  -0.065232  -0.216297  0  4.003905  0
C  C83  1  0.49791973  0.91773453  0.50392403  1  0.161725  0  0.006909  0.087573  0  3.847744  0
C  C84  1  0.50023164  0.08084519  0.50362890  1  0.155188  0  0.0005  0.186672  0  3.901946  0
C  C85  1  0.46408819  0.04795910  0.55207944  1  -0.122096  0  -0.153339  -0.288696  0  3.777014  0
C  C86  1  0.46383434  0.95074192  0.55427224  1  0.724458  0  0.176344  0.321836  0  3.760906  0
C  C87  1  0.50072422  0.17143728  0.50405309  1  -0.473496  0  -0.033006  -0.054463  0  4.048585  0
C  C88  1  0.49689574  0.82716981  0.50339805  1  -0.414717  0  -0.027369  -0.02974  0  4.075473  0
C  C89  1  0.51989821  0.58650871  0.82228506  1  1.290484  0  0.23279  0.440546  0  4.111533  0
C  C90  1  0.49634244  0.75142956  0.50134387  1  0.129637  0  -0.065184  -0.22343  0  3.991739  0
C  C91  1  0.94804920  0.59198333  0.49807811  1  -0.0512  0  -0.146867  -0.186727  0  3.834058  0
C  C92  1  0.50361173  0.59215208  0.87388952  1  0.013551  0  -0.031275  -0.200759  0  3.954706  0
C  C93  1  0.05298692  0.59113159  0.50294161  1  -0.043664  0  -0.148387  -0.189182  0  3.841365  0
C  C94  1  0.94756599  0.45556827  0.45170920  1  0.082858  0  -0.037507  0.003752  0  3.765774  0
C  C95  1  0.05438396  0.46268839  0.44932830  1  0.105375  0  -0.035483  0.007253  0  3.754386  0
C  C96  1  0.91209711  0.50121577  0.49711267  1  0.142786  0  0.010312  0.075775  0  3.907105  0
C  C97  1  0.08838681  0.50068013  0.49699002  1  0.155843  0  0.010493  0.076569  0  3.910544  0
C  C98  1  0.05205389  0.44584669  0.53856063  1  -0.044765  0  -0.141725  -0.187011  0  3.845835  0
C  C99  1  0.94704442  0.45267984  0.54121862  1  -0.004321  0  -0.142582  -0.186973  0  3.845744  0
C  C100  1  0.18742137  0.49981690  0.49777820  1  0.83419  0  0.236159  0.281507  0  3.883689  0
C  C101  1  0.81301991  0.50102916  0.49827073  1  0.851524  0  0.236283  0.284812  0  3.88244  0
C  C102  1  0.45556523  0.44188169  0.82192057  1  1.328732  0  0.233813  0.435539  0  4.131702  0
C  C103  1  0.51879560  0.66666921  0.90000506  1  0.494606  0  0.1198  0.240157  0  4.048761  0
C  C104  1  0.57552276  0.50505202  0.72400943  1  0.034972  0  -0.086232  -0.153347  0  3.986058  0
C  C105  1  0.57780793  0.50224696  0.67442294  1  -0.061353  0  -0.080799  -0.077651  0  3.972917  0
C  C106  1  0.41312788  0.51454513  0.67253482  1  0.010136  0  -0.082561  -0.079211  0  3.979341  0
C  C107  1  0.30575665  0.96043184  0.59254232  1  0.297429  0  -0.147353  -0.205063  0  4.049969  0
C  C108  1  0.50784799  0.93475467  0.63972586  1  0.29616  0  -0.150973  -0.204343  0  4.043721  0
C  C109  1  0.48610606  0.78260915  0.84078772  1  0.289566  0  -0.137315  -0.230186  0  3.957488  0
C  C110  1  0.45928944  0.44370471  0.87434958  1  -0.024666  0  -0.017138  -0.080994  0  4.002778  0
C  C111  1  0.49676076  0.50692296  0.64836257  1  0.029349  0  -0.014119  -0.025747  0  3.948811  0
C  C112  1  0.50366318  0.49498862  0.35563977  1  0.081618  0  -0.01208  -0.077002  0  3.903632  0
N  N113  1  0.48745039  0.51416999  0.79892713  1  -1.216159  0  -0.234525  -0.224232  0  3.595502  0
N  N114  1  0.49110723  0.50488634  0.20465385  1  -1.180097  0  -0.230671  -0.223981  0  3.578901  0
N  N115  1  0.26621557  0.49854369  0.50035005  1  -1.101442  0  -0.271049  -0.270809  0  3.116162  0
N  N116  1  0.73423584  0.50104180  0.50163535  1  -1.107797  0  -0.271019  -0.270462  0  3.112282  0
N  N117  1  0.37207424  0.91826928  0.56209598  1  -1.065043  0  -0.482768  -0.387802  0  3.444602  0
N  N118  1  0.52711048  0.91596346  0.58988852  1  -1.046722  0  -0.492716  -0.414017  0  3.429369  0
N  N119  1  0.53067953  0.74547848  0.88190786  1  -1.185825  0  -0.424322  -0.247658  0  3.566102  0
Cl  Cl120  1  0.67081458  0.41661828  0.35128184  1  -0.204614  0  -0.029578  -0.096755  0  1.50427  0
Cl  Cl121  1  0.89009478  0.49063704  0.40006440  1  -0.183671  0  -0.012657  -0.085476  0  1.485252  0
Cl  Cl122  1  0.09854918  0.52087617  0.40030245  1  -0.196011  0  -0.017924  -0.091086  0  1.423088  0
O  O123  1  0.42126386  0.62508430  0.49291641  1  -1.145076  0  -0.324347  -0.557621  0  2.248933  0
O  O124  1  0.51773103  0.64630019  0.20607616  1  -1.094533  0  -0.284492  -0.442597  0  2.062377  0
O  O125  1  0.42899070  0.38095900  0.79910236  1  -1.115987  0  -0.297052  -0.460512  0  2.065307  0
O  O126  1  0.46337754  0.36366079  0.20319335  1  -1.101962  0  -0.283531  -0.439748  0  2.059697  0
O  O127  1  0.57402949  0.62638937  0.50819992  1  -1.14069  0  -0.319714  -0.550383  0  2.248369  0
O  O128  1  0.42348178  0.51416387  0.57359476  1  -1.160883  0  -0.321698  -0.5583  0  2.316105  0
O  O129  1  0.57640198  0.49068162  0.57507998  1  -1.164615  0  -0.321292  -0.555812  0  2.307159  0
O  O130  1  0.42290556  0.37253995  0.51043501  1  -1.149981  0  -0.322252  -0.553992  0  2.249718  0
O  O131  1  0.57671380  0.37330344  0.49687216  1  -1.149207  0  -0.320526  -0.554927  0  2.25472  0
O  O132  1  0.42639871  0.48281899  0.42932691  1  -1.162357  0  -0.318934  -0.551559  0  2.298456  0
O  O133  1  0.57851664  0.51027912  0.42990090  1  -1.151204  0  -0.316338  -0.548793  0  2.343816  0
O  O134  1  0.56161634  0.63976024  0.79879227  1  -1.116038  0  -0.280724  -0.445902  0  2.145165  0
