# generated using pymatgen
data_CuH10C12(N2O3)2
_symmetry_space_group_name_H-M   'P 1'
_cell_length_a   8.04766286
_cell_length_b   8.82473858
_cell_length_c   10.18879873
_cell_angle_alpha   90.00043483
_cell_angle_beta   96.94701907
_cell_angle_gamma   89.99888591
_symmetry_Int_Tables_number   1
_chemical_formula_structural   CuH10C12(N2O3)2
_chemical_formula_sum   'Cu2 H20 C24 N8 O12'
_cell_volume   718.28109544
_cell_formula_units_Z   2
loop_
 _symmetry_equiv_pos_site_id
 _symmetry_equiv_pos_as_xyz
  1  'x, y, z'
loop_
 _atom_site_type_symbol
 _atom_site_label
 _atom_site_symmetry_multiplicity
 _atom_site_fract_x
 _atom_site_fract_y
 _atom_site_fract_z
 _atom_site_occupancy
 _atom_site_pbe_cm5_charge
 _atom_site_pbe_ddec_charge
 _atom_site_pbe_ddec_spin_density
 _atom_site_pbe_ddec_sum_bond_order
 _atom_site_pbe_magmom
Cu  Cu0  1  0.00000500  0.00000113  0.99999948  1  0.852451  0.961518  0.760465  2.389855  0.606
Cu  Cu1  1  0.49999967  0.50000014  0.49999968  1  0.8525  0.961527  0.760529  2.389782  0.606
H  H2  1  0.49344219  0.00122777  0.85670682  1  0.104653  0.075801  -4.3e-05  0.97184  0.0
H  H3  1  0.00656271  0.50123120  0.64329573  1  0.104634  0.075837  -4.3e-05  0.971807  0.0
H  H4  1  0.50655590  0.99877137  0.14329340  1  0.104675  0.075832  -4.3e-05  0.971793  0.0
H  H5  1  0.99343788  0.49876793  0.35670276  1  0.104645  0.075858  -4.3e-05  0.971783  0.0
H  H6  1  0.17347030  0.83286495  0.74865963  1  0.108276  0.088461  2.3e-05  0.988976  0.0
H  H7  1  0.32653021  0.33286013  0.75134370  1  0.108261  0.088458  2.3e-05  0.989049  0.0
H  H8  1  0.82652905  0.16713532  0.25134170  1  0.108283  0.088488  2.3e-05  0.988976  0.0
H  H9  1  0.67346788  0.66713900  0.24865652  1  0.108261  0.088439  2.3e-05  0.989033  0.0
H  H10  1  0.37853850  0.76933821  0.72466784  1  0.108564  0.091448  8.9e-05  1.002631  0.0
H  H11  1  0.12146332  0.26933835  0.77533323  1  0.108538  0.091452  8.9e-05  1.002547  0.0
H  H12  1  0.62146085  0.23066319  0.27533250  1  0.108547  0.091443  8.9e-05  1.002634  0.0
H  H13  1  0.87853601  0.73066079  0.22466515  1  0.108543  0.091446  8.9e-05  1.002582  0.0
H  H14  1  0.40021501  0.85774954  0.94611860  1  0.096542  0.065597  -2.2e-05  1.008238  0.0
H  H15  1  0.09979000  0.35774812  0.55388629  1  0.096492  0.06555  -2.2e-05  1.008306  0.0
H  H16  1  0.59978309  0.14225073  0.05388359  1  0.096545  0.065579  -2.2e-05  1.00834  0.0
H  H17  1  0.90021184  0.64225215  0.44611232  1  0.096488  0.065534  -2.2e-05  1.008373  0.0
H  H18  1  0.31135231  0.14810209  0.94317286  1  0.296047  0.34253  5e-06  1.002133  0.0
H  H19  1  0.18865330  0.64809590  0.55683269  1  0.296044  0.342511  6e-06  1.002272  0.0
H  H20  1  0.68864828  0.85189931  0.05682760  1  0.29604  0.342537  5e-06  1.002115  0.0
H  H21  1  0.81134729  0.35190438  0.44316777  1  0.296059  0.342558  6e-06  1.002187  0.0
C  C22  1  0.17428727  0.04282820  0.29078594  1  0.217467  0.36788  -0.006654  4.041317  0.0
C  C23  1  0.32572283  0.54283113  0.20922676  1  0.217459  0.367817  -0.006651  4.041549  0.0
C  C24  1  0.82570957  0.95717320  0.70921319  1  0.217399  0.367778  -0.006653  4.040964  0.0
C  C25  1  0.67428028  0.45716801  0.79077491  1  0.217447  0.367824  -0.006652  4.04146  0.0
C  C26  1  0.35321290  0.18118384  0.45256743  1  0.209071  0.347767  -0.003353  4.075008  0.003
C  C27  1  0.14678801  0.68118510  0.04743355  1  0.209014  0.347695  -0.003356  4.075479  0.003
C  C28  1  0.64678394  0.81881756  0.54743366  1  0.209047  0.347758  -0.003351  4.074896  0.003
C  C29  1  0.85321259  0.31881744  0.95256691  1  0.208988  0.347656  -0.003355  4.075294  0.003
C  C30  1  0.24964232  0.05762175  0.42070607  1  -0.048231  -0.298646  0.022588  4.183578  0.023
C  C31  1  0.25035743  0.55762373  0.07929890  1  -0.048154  -0.298647  0.022608  4.183176  0.023
C  C32  1  0.75035453  0.94238079  0.57929502  1  -0.048231  -0.298677  0.022583  4.183698  0.023
C  C33  1  0.74964066  0.44237428  0.92070034  1  -0.048149  -0.298598  0.022602  4.18323  0.023
C  C34  1  0.22329938  0.94283163  0.51872000  1  0.228069  0.539354  -0.00077  4.190885  -0.002
C  C35  1  0.27672014  0.44281611  0.98128777  1  0.228135  0.53941  -0.000768  4.190999  -0.002
C  C36  1  0.77669621  0.05716637  0.48127999  1  0.228064  0.539313  -0.00077  4.190736  -0.002
C  C37  1  0.72328171  0.55718076  0.01871182  1  0.228125  0.539387  -0.000768  4.191001  -0.002
C  C38  1  0.30321375  0.86868241  0.74410113  1  -0.072072  -0.00461  6e-05  3.842458  0.0
C  C39  1  0.19679102  0.36868105  0.75590185  1  -0.072022  -0.00463  6e-05  3.842534  0.0
C  C40  1  0.69678559  0.13131899  0.25589922  1  -0.072045  -0.004635  6e-05  3.842453  0.0
C  C41  1  0.80320957  0.63131808  0.24409763  1  -0.072043  -0.00458  6e-05  3.84252  0.0
C  C42  1  0.37379732  0.94623025  0.87016422  1  -0.080072  0.059492  -0.00011  3.943795  0.0
C  C43  1  0.12620459  0.44623016  0.62984096  1  -0.080033  0.059436  -0.00011  3.943757  0.0
C  C44  1  0.62620077  0.05376889  0.12983600  1  -0.080112  0.05947  -0.00011  3.943831  0.0
C  C45  1  0.87379599  0.55377011  0.37015754  1  -0.080058  0.05939  -0.00011  3.943998  0.0
N  N46  1  0.11094100  0.03311468  0.18162911  1  -0.35553  -0.426313  0.055682  3.24782  0.07
N  N47  1  0.38905297  0.53311631  0.31836927  1  -0.355537  -0.426194  0.055685  3.248264  0.07
N  N48  1  0.88905836  0.96688446  0.81837418  1  -0.355446  -0.426196  0.055684  3.247395  0.07
N  N49  1  0.61094761  0.46688396  0.68162726  1  -0.355528  -0.426213  0.055687  3.248113  0.07
N  N50  1  0.44810691  0.28144897  0.47620180  1  -0.365598  -0.438054  0.048212  3.224491  0.062
N  N51  1  0.05189943  0.78144489  0.02380033  1  -0.365601  -0.438004  0.048216  3.224769  0.062
N  N52  1  0.55189119  0.71855243  0.52379940  1  -0.365586  -0.438019  0.048207  3.224352  0.062
N  N53  1  0.94810367  0.21855198  0.97620036  1  -0.36558  -0.43798  0.048218  3.224571  0.062
O  O54  1  0.13490295  0.82879380  0.49500824  1  -0.289833  -0.50472  0.003952  2.219211  0.006
O  O55  1  0.36509240  0.32881108  0.00499711  1  -0.289764  -0.50457  0.003948  2.220063  0.006
O  O56  1  0.86509764  0.17120874  0.50499222  1  -0.289836  -0.504695  0.003953  2.218963  0.006
O  O57  1  0.63491069  0.67118919  0.99500260  1  -0.28977  -0.504587  0.003947  2.220081  0.006
O  O58  1  0.30793981  0.97721316  0.63719788  1  -0.165814  -0.233049  0.001119  2.530469  0.002
O  O59  1  0.19206145  0.47721622  0.86280548  1  -0.165861  -0.233054  0.001121  2.529837  0.002
O  O60  1  0.69205703  0.02278824  0.36280223  1  -0.165829  -0.233046  0.001119  2.530489  0.002
O  O61  1  0.80793914  0.52278292  0.13719399  1  -0.165813  -0.233039  0.001121  2.529859  0.002
O  O62  1  0.25621077  0.05362824  0.90838374  1  -0.417779  -0.553763  -0.001038  2.462438  0.0
O  O63  1  0.24379182  0.55362931  0.59162385  1  -0.417845  -0.553767  -0.001039  2.46259  0.0
O  O64  1  0.74378858  0.94637203  0.09161759  1  -0.417751  -0.553745  -0.001038  2.462465  0.0
O  O65  1  0.75621128  0.44637096  0.40837684  1  -0.417846  -0.5538  -0.001039  2.462559  0.0
