# generated using pymatgen
data_Li3H13C7SO12
_symmetry_space_group_name_H-M   'P 1'
_cell_length_a   6.52484753
_cell_length_b   8.81450307
_cell_length_c   11.72660861
_cell_angle_alpha   96.73376183
_cell_angle_beta   96.96212127
_cell_angle_gamma   105.05501062
_symmetry_Int_Tables_number   1
_chemical_formula_structural   Li3H13C7SO12
_chemical_formula_sum   'Li6 H26 C14 S2 O24'
_cell_volume   638.65430948
_cell_formula_units_Z   2
loop_
 _symmetry_equiv_pos_site_id
 _symmetry_equiv_pos_as_xyz
  1  'x, y, z'
loop_
 _atom_site_type_symbol
 _atom_site_label
 _atom_site_symmetry_multiplicity
 _atom_site_fract_x
 _atom_site_fract_y
 _atom_site_fract_z
 _atom_site_occupancy
 _atom_site_hle17_bader_spin_density
 _atom_site_hle17_ddec_charge
 _atom_site_hle17_ddec_spin_density
 _atom_site_hle17_ddec_sum_bond_order
 _atom_site_hle17_magmom
 _atom_site_hse06_10hf_bader_spin_density
 _atom_site_hse06_10hf_ddec_charge
 _atom_site_hse06_10hf_ddec_spin_density
 _atom_site_hse06_10hf_ddec_sum_bond_order
 _atom_site_hse06_10hf_magmom
 _atom_site_hse06_bader_spin_density
 _atom_site_hse06_ddec_charge
 _atom_site_hse06_ddec_spin_density
 _atom_site_hse06_ddec_sum_bond_order
 _atom_site_hse06_magmom
 _atom_site_pbe_bader_spin_density
 _atom_site_pbe_cm5_charge
 _atom_site_pbe_ddec_charge
 _atom_site_pbe_ddec_spin_density
 _atom_site_pbe_ddec_sum_bond_order
 _atom_site_pbe_magmom
Li  Li0  1  0.30683751  0.87720322  0.01367558  1  0  0.868821  0  0.34762  0  0  0.828599  0  0.448521  0  0  0.8374  0  0.433372  0  0  0.451946  0.822105  0  0.459583  0
Li  Li1  1  0.69315989  0.12279850  0.98632485  1  0  0.868824  0  0.347611  0  0  0.828592  0  0.448521  0  0  0.837395  0  0.433371  0  0  0.451947  0.822099  0  0.459582  0
Li  Li2  1  0.12997819  0.69643965  0.78569016  1  0  0.857796  0  0.402192  0  0  0.824423  0  0.496935  0  0  0.832732  0  0.481348  0  0  0.514663  0.818281  0  0.508284  0
Li  Li3  1  0.87001992  0.30355979  0.21431440  1  0  0.857795  0  0.402185  0  0  0.824404  0  0.496953  0  0  0.832716  0  0.481364  0  0  0.514662  0.818264  0  0.508299  0
Li  Li4  1  0.48334320  0.41017716  0.60166508  1  0  0.867111  0  0.334049  0  0  0.826222  0  0.434238  0  0  0.835827  0  0.417708  0  0  0.474945  0.8191  0  0.446511  0
Li  Li5  1  0.51665780  0.58982582  0.39833908  1  0  0.867095  0  0.334072  0  0  0.8262  0  0.434278  0  0  0.835806  0  0.417747  0  0  0.474933  0.819066  0  0.446571  0
H  H6  1  0.30309156  0.15127015  0.92805609  1  0  0.439966  0  0.847845  0  0  0.41483  0  0.900875  0  0  0.423661  0  0.887746  0  0  0.315462  0.408581  0  0.91023  0
H  H7  1  0.69690699  0.84873046  0.07194774  1  0  0.43988  0  0.847967  0  0  0.414776  0  0.900929  0  0  0.42361  0  0.887797  0  0  0.315461  0.408527  0  0.910282  0
H  H8  1  0.33025473  0.02257984  0.83394262  1  0  0.436744  0  0.864959  0  0  0.405954  0  0.928184  0  0  0.416371  0  0.912836  0  0  0.310329  0.398607  0  0.939049  0
H  H9  1  0.66974513  0.97742428  0.16605900  1  0  0.436794  0  0.864881  0  0  0.405984  0  0.928151  0  0  0.416406  0  0.912801  0  0  0.310335  0.398634  0  0.939021  0
H  H10  1  0.91784328  0.73058979  0.95334379  1  0  0.429834  0  0.867292  0  0  0.401137  0  0.927463  0  0  0.410615  0  0.913281  0  0  0.31046  0.394416  0  0.937544  0
H  H11  1  0.08215615  0.26941316  0.04665856  1  0  0.429829  0  0.867301  0  0  0.401117  0  0.927499  0  0  0.410594  0  0.913318  0  0  0.310461  0.394396  0  0.937581  0
H  H12  1  0.91570351  0.87289962  0.88323108  1  0  0.435177  0  0.868353  0  0  0.406394  0  0.927907  0  0  0.416256  0  0.913528  0  0  0.304661  0.399429  0  0.938052  0
H  H13  1  0.08429590  0.12710331  0.11677042  1  0  0.435236  0  0.868262  0  0  0.406443  0  0.927833  0  0  0.416303  0  0.913457  0  0  0.30468  0.399477  0  0.937979  0
H  H14  1  0.55367593  0.83033088  0.84918443  1  0  0.418258  0  0.896621  0  0  0.389026  0  0.957789  0  0  0.399624  0  0.942551  0  0  0.300695  0.381524  0  0.968572  0
H  H15  1  0.44631991  0.16967083  0.15081504  1  0  0.418234  0  0.896648  0  0  0.389024  0  0.957778  0  0  0.399621  0  0.942536  0  0  0.300698  0.381523  0  0.968556  0
H  H16  1  0.47226394  0.64222259  0.84045755  1  0  0.418127  0  0.879008  0  0  0.393419  0  0.933207  0  0  0.403264  0  0.918349  0  0  0.30265  0.386311  0  0.943952  0
H  H17  1  0.52773815  0.35777920  0.15954659  1  0  0.418097  0  0.879043  0  0  0.393395  0  0.933238  0  0  0.403239  0  0.91838  0  0  0.302648  0.386287  0  0.943983  0
H  H18  1  0.22222940  0.58317450  0.54024488  1  0  0.435078  0  0.861894  0  0  0.405807  0  0.923245  0  0  0.415696  0  0.908753  0  0  0.308303  0.39834  0  0.93411  0
H  H19  1  0.77776943  0.41683088  0.45975933  1  0  0.435032  0  0.861959  0  0  0.405721  0  0.923365  0  0  0.415611  0  0.908873  0  0  0.308266  0.398255  0  0.934228  0
H  H20  1  0.14953181  0.41734515  0.45699777  1  0  0.440942  0  0.851067  0  0  0.411788  0  0.912024  0  0  0.421846  0  0.897189  0  0  0.311543  0.404493  0  0.922814  0
H  H21  1  0.85046656  0.58265904  0.54300632  1  0  0.440999  0  0.850994  0  0  0.411836  0  0.911965  0  0  0.421895  0  0.89713  0  0  0.311555  0.404542  0  0.922755  0
H  H22  1  0.32811707  0.11966431  0.63266866  1  0  0.392817  0  0.895467  0  0  0.361628  0  0.972796  0  0  0.374198  0  0.9599  0  0  0.306926  0.352626  0  0.981909  0
H  H23  1  0.67188225  0.88033851  0.36732856  1  0  0.392706  0  0.895578  0  0  0.361557  0  0.972864  0  0  0.37413  0  0.959966  0  0  0.306884  0.352554  0  0.981976  0
H  H24  1  0.61729745  0.41400155  0.82439894  1  0  0.434745  0  0.860235  0  0  0.40558  0  0.920687  0  0  0.415604  0  0.905962  0  0  0.307246  0.398347  0  0.931365  0
H  H25  1  0.38270698  0.58599426  0.17560404  1  0  0.434719  0  0.860292  0  0  0.405585  0  0.920688  0  0  0.415609  0  0.905964  0  0  0.307269  0.398355  0  0.931362  0
H  H26  1  0.37264847  0.39199349  0.81274746  1  0  0.429406  0  0.866442  0  0  0.39996  0  0.927156  0  0  0.409779  0  0.912747  0  0  0.30804  0.392871  0  0.93762  0
H  H27  1  0.62735638  0.60800346  0.18725393  1  0  0.429329  0  0.866548  0  0  0.39994  0  0.92715  0  0  0.409758  0  0.912744  0  0  0.308048  0.392857  0  0.937601  0
H  H28  1  0.37897496  0.22222204  0.34510095  1  0  0.123505  0  0.945003  0  0  0.137953  0  1.001525  0  0  0.14221  0  0.999623  0  0  0.121862  0.134955  0  1.003144  0
H  H29  1  0.62101788  0.77777598  0.65489293  1  0  0.12347  0  0.944964  0  0  0.137907  0  1.001502  0  0  0.142163  0  0.999599  0  0  0.121841  0.134912  0  1.003118  0
H  H30  1  0.03625540  0.66896397  0.39937067  1  0  0.089918  0  0.99273  0  0  0.099723  0  1.059449  0  0  0.103094  0  1.05522  0  0  0.116123  0.097357  0  1.062276  0
H  H31  1  0.96374627  0.33103288  0.60062625  1  0  0.089947  0  0.992749  0  0  0.09971  0  1.05951  0  0  0.103081  0  1.055282  0  0  0.116104  0.097346  0  1.062336  0
C  C32  1  0.12827950  0.82437872  0.27763838  1  0  -0.303542  0  3.748459  0  0  -0.286743  0  4.020599  0  0  -0.302924  0  4.038911  0  0  -0.046277  -0.275701  0  4.00796  0
C  C33  1  0.87172173  0.17561695  0.72235841  1  0  -0.303441  0  3.748538  0  0  -0.286683  0  4.020682  0  0  -0.302862  0  4.038991  0  0  -0.046284  -0.275697  0  4.00812  0
C  C34  1  0.22544537  0.98222399  0.25777257  1  0  0.438596  0  3.852693  0  0  0.413054  0  4.121519  0  0  0.436227  0  4.12899  0  0  0.109502  0.397637  0  4.115577  0
C  C35  1  0.77455063  0.01777412  0.74222578  1  0  0.438359  0  3.853025  0  0  0.412863  0  4.121786  0  0  0.436044  0  4.129254  0  0  0.109439  0.397462  0  4.115851  0
C  C36  1  0.30258200  0.10096471  0.35733078  1  0  -0.333182  0  3.646781  0  0  -0.362714  0  3.913267  0  0  -0.376465  0  3.928282  0  0  -0.117648  -0.353589  0  3.903105  0
C  C37  1  0.69741908  0.89903458  0.64266799  1  0  -0.333048  0  3.646526  0  0  -0.362572  0  3.913034  0  0  -0.376321  0  3.928042  0  0  -0.117599  -0.353449  0  3.902869  0
C  C38  1  0.28601167  0.06537454  0.46872320  1  0  0.389074  0  3.792394  0  0  0.373249  0  4.052568  0  0  0.391482  0  4.066666  0  0  0.097642  0.361038  0  4.042942  0
C  C39  1  0.71398845  0.93462230  0.53127276  1  0  0.389137  0  3.792251  0  0  0.373237  0  4.052546  0  0  0.391471  0  4.06664  0  0  0.097606  0.361029  0  4.042919  0
C  C40  1  0.19014316  0.90694750  0.48642143  1  0  -0.265589  0  3.824037  0  0  -0.246649  0  4.07123  0  0  -0.265566  0  4.095186  0  0  -0.05556  -0.23462  0  4.055394  0
C  C41  1  0.80985810  0.09304821  0.51357707  1  0  -0.265518  0  3.823864  0  0  -0.246544  0  4.071029  0  0  -0.265459  0  4.094978  0  0  -0.055477  -0.234515  0  4.055193  0
C  C42  1  0.11184874  0.79043798  0.38872220  1  0  -0.011523  0  3.82939  0  0  -0.055186  0  4.091258  0  0  -0.042685  0  4.104496  0  0  -0.075385  -0.062989  0  4.081655  0
C  C43  1  0.88815341  0.20956009  0.61127569  1  0  -0.011619  0  3.829377  0  0  -0.055245  0  4.091242  0  0  -0.042743  0  4.10448  0  0  -0.075408  -0.063035  0  4.081659  0
C  C44  1  0.17869250  0.86548940  0.60299442  1  0  0.680498  0  3.894778  0  0  0.620453  0  4.20215  0  0  0.655208  0  4.195153  0  0  0.216497  0.596456  0  4.206789  0
C  C45  1  0.82130905  0.13451110  0.39700533  1  0  0.680348  0  3.894807  0  0  0.62035  0  4.202138  0  0  0.655106  0  4.195138  0  0  0.216451  0.596351  0  4.206776  0
S  S46  1  0.02985757  0.66516098  0.16290274  1  0  1.359914  0  5.608424  0  0  1.258251  0  6.124756  0  0  1.306104  0  6.10107  0  0  0.544174  1.225049  0  6.140581  0
S  S47  1  0.97014214  0.33483472  0.83709481  1  0  1.359797  0  5.608632  0  0  1.258114  0  6.124947  0  0  1.305968  0  6.101259  0  0  0.544121  1.224933  0  6.140773  0
O  O48  1  0.83199662  0.68438036  0.09533827  1  0  -0.696033  0  1.961711  0  0  -0.627827  0  2.186128  0  0  -0.650156  0  2.170389  0  0  -0.31717  -0.612122  0  2.196917  0
O  O49  1  0.16800154  0.31561535  0.90465919  1  0  -0.696049  0  1.961863  0  0  -0.627791  0  2.186295  0  0  -0.650119  0  2.170553  0  0  -0.317162  -0.612083  0  2.197079  0
O  O50  1  0.37502987  0.06695948  0.91782358  1  0  -0.931616  0  1.840476  0  0  -0.891527  0  2.026237  0  0  -0.906659  0  1.995293  0  0  -0.657952  -0.880865  0  2.048098  0
O  O51  1  0.62497061  0.93304224  0.08217704  1  0  -0.931617  0  1.84053  0  0  -0.891507  0  2.026273  0  0  -0.906647  0  1.995317  0  0  -0.657965  -0.880843  0  2.048138  0
O  O52  1  0.98131247  0.52391284  0.21995583  1  0  -0.735394  0  2.00607  0  0  -0.684011  0  2.264213  0  0  -0.7043  0  2.248781  0  0  -0.403593  -0.669811  0  2.274893  0
O  O53  1  0.01869320  0.47608639  0.78004152  1  0  -0.735373  0  2.005929  0  0  -0.684015  0  2.264121  0  0  -0.704306  0  2.24869  0  0  -0.403612  -0.669814  0  2.274797  0
O  O54  1  0.99630954  0.79349232  0.90035306  1  0  -0.951489  0  1.831126  0  0  -0.912154  0  2.014092  0  0  -0.926482  0  1.981523  0  0  -0.674967  -0.902201  0  2.037359  0
O  O55  1  0.00368785  0.20650938  0.09964650  1  0  -0.951525  0  1.831066  0  0  -0.912177  0  2.014059  0  0  -0.926504  0  1.981491  0  0  -0.674976  -0.902225  0  2.037325  0
O  O56  1  0.42740073  0.74000434  0.85646713  1  0  -0.919139  0  1.813765  0  0  -0.877162  0  1.98767  0  0  -0.892531  0  1.955469  0  0  -0.651539  -0.86605  0  2.010432  0
O  O57  1  0.57259622  0.25999619  0.14353318  1  0  -0.919115  0  1.81383  0  0  -0.877122  0  1.987675  0  0  -0.892489  0  1.955481  0  0  -0.651551  -0.866012  0  2.010435  0
O  O58  1  0.20014676  0.66712672  0.09043080  1  0  -0.708924  0  1.976582  0  0  -0.657433  0  2.225312  0  0  -0.677256  0  2.208983  0  0  -0.340331  -0.643341  0  2.236313  0
O  O59  1  0.79985673  0.33287489  0.90956660  1  0  -0.708932  0  1.976724  0  0  -0.657388  0  2.225446  0  0  -0.677207  0  2.20911  0  0  -0.340307  -0.643292  0  2.23644  0
O  O60  1  0.24108418  0.01448127  0.15227171  1  0  -0.706285  0  2.059718  0  0  -0.638446  0  2.277161  0  0  -0.661803  0  2.26816  0  0  -0.365856  -0.621585  0  2.282705  0
O  O61  1  0.75891182  0.98551684  0.84772664  1  0  -0.706199  0  2.059842  0  0  -0.638336  0  2.277223  0  0  -0.661718  0  2.268247  0  0  -0.365818  -0.621477  0  2.282767  0
O  O62  1  0.27954931  0.50126754  0.49870138  1  0  -0.93558  0  1.759291  0  0  -0.889041  0  1.932047  0  0  -0.90474  0  1.899349  0  0  -0.641989  -0.878268  0  1.956206  0
O  O63  1  0.72044822  0.49873436  0.50130589  1  0  -0.9356  0  1.759304  0  0  -0.889022  0  1.932118  0  0  -0.904723  0  1.89942  0  0  -0.641967  -0.878249  0  1.956276  0
O  O64  1  0.36147272  0.18128503  0.56282453  1  0  -0.631634  0  2.156536  0  0  -0.578938  0  2.391266  0  0  -0.59992  0  2.381717  0  0  -0.411851  -0.563869  0  2.397965  0
O  O65  1  0.63853141  0.81871420  0.43717272  1  0  -0.631571  0  2.156673  0  0  -0.578849  0  2.391369  0  0  -0.599831  0  2.381817  0  0  -0.411773  -0.563776  0  2.398066  0
O  O66  1  0.49861384  0.44079164  0.77673201  1  0  -0.885487  0  1.770288  0  0  -0.829804  0  1.922546  0  0  -0.847285  0  1.891014  0  0  -0.612298  -0.817352  0  1.945359  0
O  O67  1  0.50139255  0.55920531  0.22326948  1  0  -0.885378  0  1.770466  0  0  -0.829755  0  1.922714  0  0  -0.847235  0  1.891181  0  0  -0.612323  -0.817306  0  1.94552  0
O  O68  1  0.24737592  0.97912473  0.68945368  1  0  -0.624866  0  2.038447  0  0  -0.555788  0  2.258291  0  0  -0.581621  0  2.250659  0  0  -0.289048  -0.537975  0  2.263794  0
O  O69  1  0.75262481  0.02088171  0.31054561  1  0  -0.624698  0  2.038415  0  0  -0.555731  0  2.258338  0  0  -0.58157  0  2.250706  0  0  -0.289019  -0.537916  0  2.263841  0
O  O70  1  0.10539252  0.71905617  0.61748936  1  0  -0.746015  0  1.990467  0  0  -0.684055  0  2.222494  0  0  -0.706823  0  2.208834  0  0  -0.372183  -0.667214  0  2.231441  0
O  O71  1  0.89461156  0.28094680  0.38251500  1  0  -0.74597  0  1.990445  0  0  -0.683992  0  2.22244  0  0  -0.706772  0  2.208807  0  0  -0.372189  -0.667151  0  2.231385  0
