# generated using pymatgen
data_CdH10C14N5O4
_symmetry_space_group_name_H-M   'P 1'
_cell_length_a   9.43092730
_cell_length_b   9.69096871
_cell_length_c   16.20092532
_cell_angle_alpha   94.71022714
_cell_angle_beta   89.99995247
_cell_angle_gamma   90.00001812
_symmetry_Int_Tables_number   1
_chemical_formula_structural   CdH10C14N5O4
_chemical_formula_sum   'Cd4 H40 C56 N20 O16'
_cell_volume   1475.68003930
_cell_formula_units_Z   4
loop_
 _symmetry_equiv_pos_site_id
 _symmetry_equiv_pos_as_xyz
  1  'x, y, z'
loop_
 _atom_site_type_symbol
 _atom_site_label
 _atom_site_symmetry_multiplicity
 _atom_site_fract_x
 _atom_site_fract_y
 _atom_site_fract_z
 _atom_site_occupancy
 _atom_site_hle17_bader_spin_density
 _atom_site_hle17_ddec_charge
 _atom_site_hle17_ddec_spin_density
 _atom_site_hle17_ddec_sum_bond_order
 _atom_site_hle17_magmom
 _atom_site_hse06_10hf_bader_spin_density
 _atom_site_hse06_10hf_ddec_charge
 _atom_site_hse06_10hf_ddec_spin_density
 _atom_site_hse06_10hf_ddec_sum_bond_order
 _atom_site_hse06_10hf_magmom
 _atom_site_hse06_bader_spin_density
 _atom_site_hse06_ddec_charge
 _atom_site_hse06_ddec_spin_density
 _atom_site_hse06_ddec_sum_bond_order
 _atom_site_hse06_magmom
 _atom_site_pbe_bader_spin_density
 _atom_site_pbe_cm5_charge
 _atom_site_pbe_ddec_charge
 _atom_site_pbe_ddec_spin_density
 _atom_site_pbe_ddec_sum_bond_order
 _atom_site_pbe_magmom
Cd  Cd0  1  0.39013080  0.64319602  0.85253601  1  0  1.025  0  1.846344  0  0  0.815514  0  2.310662  0  0  0.867332  0  2.267196  0  0  0.780228  0.777468  0  2.340837  0
Cd  Cd1  1  0.89013052  0.35680511  0.64746542  1  0  1.025025  0  1.846327  0  0  0.815548  0  2.310627  0  0  0.867366  0  2.267164  0  0  0.780244  0.777504  0  2.340807  0
Cd  Cd2  1  0.60986999  0.35680503  0.14746473  1  0  1.025048  0  1.846271  0  0  0.815584  0  2.310548  0  0  0.867398  0  2.267085  0  0  0.780246  0.777524  0  2.340721  0
Cd  Cd3  1  0.10986922  0.64319490  0.35253528  1  0  1.025013  0  1.846302  0  0  0.815542  0  2.310609  0  0  0.867357  0  2.267144  0  0  0.780235  0.77749  0  2.340786  0
H  H4  1  0.61195842  0.39534851  0.77954418  1  0  0.096851  0  0.973507  0  0  0.098188  0  1.048371  0  0  0.101692  0  1.044006  0  0  0.124632  0.095454  0  1.051816  0
H  H5  1  0.11195888  0.60465048  0.72045604  1  0  0.096864  0  0.973505  0  0  0.098203  0  1.048363  0  0  0.101707  0  1.043999  0  0  0.124636  0.095465  0  1.051816  0
H  H6  1  0.38804025  0.60465046  0.22045584  1  0  0.096842  0  0.973523  0  0  0.098177  0  1.048388  0  0  0.10168  0  1.044024  0  0  0.124635  0.095445  0  1.051836  0
H  H7  1  0.88804085  0.39534849  0.27954398  1  0  0.096834  0  0.973527  0  0  0.098174  0  1.04839  0  0  0.101678  0  1.044026  0  0  0.124625  0.095438  0  1.051846  0
H  H8  1  0.63751177  0.53731769  0.54093657  1  0  0.116214  0  0.941157  0  0  0.12054  0  1.010252  0  0  0.123175  0  1.008106  0  0  0.122182  0.118596  0  1.011767  0
H  H9  1  0.13751185  0.46268130  0.95906364  1  0  0.116196  0  0.941163  0  0  0.120543  0  1.010232  0  0  0.123177  0  1.008086  0  0  0.122179  0.118599  0  1.011743  0
H  H10  1  0.36248796  0.46268231  0.45906350  1  0  0.116217  0  0.941153  0  0  0.120566  0  1.010219  0  0  0.123199  0  1.008073  0  0  0.122177  0.118612  0  1.011737  0
H  H11  1  0.86248788  0.53731871  0.04093643  1  0  0.116205  0  0.941162  0  0  0.120554  0  1.010228  0  0  0.123188  0  1.008082  0  0  0.122176  0.118603  0  1.011744  0
H  H12  1  0.12506042  0.84894308  0.82239620  1  0  0.072648  0  0.942675  0  0  0.082126  0  1.006954  0  0  0.083786  0  1.006382  0  0  0.115163  0.080861  0  1.007217  0
H  H13  1  0.62505897  0.15105695  0.67760407  1  0  0.072649  0  0.942714  0  0  0.082114  0  1.007006  0  0  0.083774  0  1.006434  0  0  0.115171  0.080858  0  1.007266  0
H  H14  1  0.87494143  0.15105693  0.17760388  1  0  0.072644  0  0.942711  0  0  0.082108  0  1.007004  0  0  0.083768  0  1.006433  0  0  0.115152  0.080836  0  1.00727  0
H  H15  1  0.37493971  0.84894306  0.32239600  1  0  0.072642  0  0.942721  0  0  0.08212  0  1.007002  0  0  0.083781  0  1.006429  0  0  0.115176  0.080859  0  1.00726  0
H  H16  1  0.07520626  0.09873657  0.80643065  1  0  0.105173  0  0.950404  0  0  0.113375  0  1.011843  0  0  0.115764  0  1.012435  0  0  0.105649  0.111673  0  1.011658  0
H  H17  1  0.57520502  0.90126343  0.69356903  1  0  0.10516  0  0.950432  0  0  0.113363  0  1.011869  0  0  0.115752  0  1.01246  0  0  0.105648  0.111668  0  1.01168  0
H  H18  1  0.92479454  0.90126343  0.19356881  1  0  0.105169  0  0.950412  0  0  0.11337  0  1.011851  0  0  0.115759  0  1.012443  0  0  0.105642  0.111664  0  1.01167  0
H  H19  1  0.42479472  0.09873657  0.30643105  1  0  0.105148  0  0.950444  0  0  0.113352  0  1.011878  0  0  0.115742  0  1.012471  0  0  0.105643  0.111654  0  1.011688  0
H  H20  1  0.27722034  0.27047612  0.83030687  1  0  0.099076  0  0.949615  0  0  0.11064  0  1.008451  0  0  0.112578  0  1.008  0  0  0.106906  0.109157  0  1.008828  0
H  H21  1  0.77722014  0.72952498  0.66969337  1  0  0.099076  0  0.949622  0  0  0.110636  0  1.008458  0  0  0.112575  0  1.008008  0  0  0.106921  0.109163  0  1.008836  0
H  H22  1  0.72277834  0.72952492  0.16969263  1  0  0.099087  0  0.949616  0  0  0.110648  0  1.008454  0  0  0.112594  0  1.007985  0  0  0.106903  0.109154  0  1.008835  0
H  H23  1  0.22277854  0.27047606  0.33030675  1  0  0.099079  0  0.949629  0  0  0.110644  0  1.008461  0  0  0.112589  0  1.007993  0  0  0.106912  0.109166  0  1.008843  0
H  H24  1  0.51147827  0.18629723  0.87072348  1  0  0.128058  0  0.966072  0  0  0.13311  0  1.032482  0  0  0.137454  0  1.029349  0  0  0.111929  0.130041  0  1.035241  0
H  H25  1  0.01147681  0.81370276  0.62927623  1  0  0.128069  0  0.966091  0  0  0.133121  0  1.032498  0  0  0.137467  0  1.029362  0  0  0.111931  0.130056  0  1.035258  0
H  H26  1  0.48852146  0.81370277  0.12927598  1  0  0.128086  0  0.966012  0  0  0.13313  0  1.032431  0  0  0.137474  0  1.029297  0  0  0.111948  0.130055  0  1.035193  0
H  H27  1  0.98852080  0.18629724  0.37072385  1  0  0.128052  0  0.966029  0  0  0.133097  0  1.032451  0  0  0.137442  0  1.029316  0  0  0.11194  0.130028  0  1.035209  0
H  H28  1  0.67619478  0.10820868  0.93931894  1  0  0.127621  0  0.962737  0  0  0.128186  0  1.037865  0  0  0.133079  0  1.033339  0  0  0.109937  0.124487  0  1.04126  0
H  H29  1  0.17619557  0.89179135  0.56068068  1  0  0.12761  0  0.962758  0  0  0.12817  0  1.037886  0  0  0.133064  0  1.033361  0  0  0.109939  0.124467  0  1.041285  0
H  H30  1  0.32380495  0.89179237  0.06068180  1  0  0.127625  0  0.962717  0  0  0.128185  0  1.037849  0  0  0.133078  0  1.033323  0  0  0.109925  0.124481  0  1.041248  0
H  H31  1  0.82380523  0.10820761  0.43931873  1  0  0.127612  0  0.962735  0  0  0.128179  0  1.037866  0  0  0.133072  0  1.033339  0  0  0.109933  0.12447  0  1.041267  0
H  H32  1  0.90896189  0.00387663  0.96343258  1  0  0.090728  0  0.962042  0  0  0.100922  0  1.024397  0  0  0.103539  0  1.022453  0  0  0.104621  0.099305  0  1.024809  0
H  H33  1  0.40896380  0.99612346  0.53656817  1  0  0.090737  0  0.962067  0  0  0.100926  0  1.024428  0  0  0.103542  0  1.022485  0  0  0.104629  0.099312  0  1.02484  0
H  H34  1  0.09103678  0.99612234  0.03656807  1  0  0.090729  0  0.962069  0  0  0.100907  0  1.024438  0  0  0.103523  0  1.022496  0  0  0.104625  0.09929  0  1.024857  0
H  H35  1  0.59103805  0.00387551  0.46343247  1  0  0.090738  0  0.962081  0  0  0.100926  0  1.024437  0  0  0.103541  0  1.022496  0  0  0.104622  0.099297  0  1.024853  0
H  H36  1  0.94478778  0.74676225  0.92826023  1  0  0.111104  0  0.969835  0  0  0.1187  0  1.033392  0  0  0.12159  0  1.032688  0  0  0.105372  0.116765  0  1.034201  0
H  H37  1  0.44478940  0.25323683  0.57174169  1  0  0.11107  0  0.969922  0  0  0.118667  0  1.033476  0  0  0.121557  0  1.032774  0  0  0.105362  0.11673  0  1.034286  0
H  H38  1  0.05521195  0.25323673  0.07174103  1  0  0.111091  0  0.969885  0  0  0.118686  0  1.033444  0  0  0.121575  0  1.032742  0  0  0.105366  0.116747  0  1.034258  0
H  H39  1  0.55521139  0.74676215  0.42825957  1  0  0.111088  0  0.969856  0  0  0.118656  0  1.033443  0  0  0.121537  0  1.032751  0  0  0.105359  0.116715  0  1.034256  0
H  H40  1  0.73935944  0.60892642  0.86675475  1  0  0.07431  0  0.942265  0  0  0.08093  0  1.010082  0  0  0.082564  0  1.009768  0  0  0.111117  0.079764  0  1.010277  0
H  H41  1  0.23935995  0.39107260  0.63324542  1  0  0.074311  0  0.94228  0  0  0.080934  0  1.010097  0  0  0.082555  0  1.009793  0  0  0.111115  0.079765  0  1.010291  0
H  H42  1  0.26063924  0.39107256  0.13324590  1  0  0.074319  0  0.942257  0  0  0.080943  0  1.010074  0  0  0.082569  0  1.009767  0  0  0.111115  0.079771  0  1.010272  0
H  H43  1  0.76063978  0.60892637  0.36675461  1  0  0.074299  0  0.94229  0  0  0.080919  0  1.010112  0  0  0.082556  0  1.009792  0  0  0.111105  0.079746  0  1.010308  0
C  C44  1  0.58738188  0.45152039  0.72606014  1  0  0.222124  0  3.68856  0  0  0.16431  0  3.967581  0  0  0.176884  0  3.981509  0  0  0.124355  0.155861  0  3.9586  0
C  C45  1  0.08738225  0.54847962  0.77394015  1  0  0.222108  0  3.688575  0  0  0.164295  0  3.967593  0  0  0.176869  0  3.981521  0  0  0.124363  0.155843  0  3.958623  0
C  C46  1  0.41261679  0.54847962  0.27393994  1  0  0.222182  0  3.68861  0  0  0.164379  0  3.967619  0  0  0.176952  0  3.98155  0  0  0.124385  0.155932  0  3.958635  0
C  C47  1  0.91261855  0.45151934  0.22605926  1  0  0.222123  0  3.688642  0  0  0.164305  0  3.967654  0  0  0.176877  0  3.981585  0  0  0.124365  0.155856  0  3.958683  0
C  C48  1  0.60049946  0.52482749  0.60319915  1  0  0.013028  0  3.685205  0  0  -0.038345  0  3.969822  0  0  -0.028469  0  3.983511  0  0  0.021515  -0.04479  0  3.960721  0
C  C49  1  0.10050069  0.47517149  0.89680109  1  0  0.013047  0  3.685144  0  0  -0.038341  0  3.969761  0  0  -0.028462  0  3.983446  0  0  0.021525  -0.044791  0  3.960647  0
C  C50  1  0.39949921  0.47517148  0.39680088  1  0  0.012988  0  3.685211  0  0  -0.038406  0  3.969825  0  0  -0.028529  0  3.983512  0  0  0.021499  -0.044851  0  3.960727  0
C  C51  1  0.89949905  0.52482851  0.10319899  1  0  0.012998  0  3.685176  0  0  -0.038376  0  3.969807  0  0  -0.028498  0  3.983495  0  0  0.021532  -0.044813  0  3.960695  0
C  C52  1  0.48889747  0.59004413  0.64774144  1  0  0.110422  0  3.807561  0  0  0.075188  0  4.08395  0  0  0.070779  0  4.108732  0  0  0.155732  0.077477  0  4.067424  0
C  C53  1  0.98889903  0.40995495  0.85225861  1  0  0.110449  0  3.807477  0  0  0.075219  0  4.083871  0  0  0.070812  0  4.108651  0  0  0.155722  0.077509  0  4.067341  0
C  C54  1  0.51110120  0.40995587  0.35225864  1  0  0.110434  0  3.80748  0  0  0.075211  0  4.083852  0  0  0.070805  0  4.108634  0  0  0.155694  0.0775  0  4.067327  0
C  C55  1  0.01110176  0.59004402  0.14774141  1  0  0.110514  0  3.807412  0  0  0.075223  0  4.083878  0  0  0.070816  0  4.10866  0  0  0.155733  0.077509  0  4.067346  0
C  C56  1  0.47502759  0.56332459  0.02979517  1  0  0.513379  0  3.956019  0  0  0.471056  0  4.247037  0  0  0.500301  0  4.241527  0  0  0.185845  0.451392  0  4.249083  0
C  C57  1  0.97502687  0.43667646  0.47020594  1  0  0.513352  0  3.95599  0  0  0.471081  0  4.246923  0  0  0.500327  0  4.24141  0  0  0.185818  0.451419  0  4.24897  0
C  C58  1  0.52497639  0.43667543  0.97020737  1  0  0.513311  0  3.95611  0  0  0.471027  0  4.247066  0  0  0.500272  0  4.241556  0  0  0.185791  0.451363  0  4.249114  0
C  C59  1  0.02497075  0.56332562  0.52979485  1  0  0.513425  0  3.955971  0  0  0.471116  0  4.24696  0  0  0.500364  0  4.241447  0  0  0.185882  0.451454  0  4.249009  0
C  C60  1  0.20788367  0.92708782  0.83270304  1  0  0.141647  0  3.716633  0  0  0.111603  0  3.96777  0  0  0.118276  0  3.986203  0  0  0.050831  0.108672  0  3.952833  0
C  C61  1  0.70788115  0.07291325  0.66729662  1  0  0.14167  0  3.716653  0  0  0.111637  0  3.967781  0  0  0.118312  0  3.986215  0  0  0.050862  0.10871  0  3.95284  0
C  C62  1  0.79211818  0.07291321  0.16729647  1  0  0.141657  0  3.716672  0  0  0.111616  0  3.9678  0  0  0.118289  0  3.986233  0  0  0.050835  0.108684  0  3.952862  0
C  C63  1  0.29211753  0.92708778  0.33270227  1  0  0.141677  0  3.716645  0  0  0.111635  0  3.967776  0  0  0.118308  0  3.986209  0  0  0.05082  0.108709  0  3.952826  0
C  C64  1  0.18080773  0.06636789  0.82392614  1  0  -0.117022  0  3.726064  0  0  -0.131903  0  3.982305  0  0  -0.138604  0  4.004736  0  0  -0.085001  -0.128298  0  3.966672  0
C  C65  1  0.68080653  0.93363214  0.67607349  1  0  -0.117055  0  3.726166  0  0  -0.131938  0  3.982399  0  0  -0.138639  0  4.00483  0  0  -0.085019  -0.128329  0  3.966757  0
C  C66  1  0.81919306  0.93363211  0.17607332  1  0  -0.117032  0  3.726087  0  0  -0.131912  0  3.982322  0  0  -0.138614  0  4.004755  0  0  -0.085017  -0.128311  0  3.966695  0
C  C67  1  0.31919215  0.06636786  0.32392659  1  0  -0.116997  0  3.726143  0  0  -0.131879  0  3.982378  0  0  -0.138582  0  4.004813  0  0  -0.084988  -0.128272  0  3.966736  0
C  C68  1  0.29198238  0.16054024  0.83715660  1  0  0.0043  0  3.708735  0  0  -0.013411  0  3.955133  0  0  -0.010495  0  3.974985  0  0  -0.065436  -0.014552  0  3.941919  0
C  C69  1  0.79198117  0.83945982  0.66284298  1  0  0.004348  0  3.708696  0  0  -0.013351  0  3.95509  0  0  -0.010436  0  3.974943  0  0  -0.065408  -0.014489  0  3.941875  0
C  C70  1  0.70801735  0.83945976  0.16284225  1  0  0.004317  0  3.708715  0  0  -0.013392  0  3.955111  0  0  -0.010475  0  3.974968  0  0  -0.065429  -0.014539  0  3.941902  0
C  C71  1  0.20801857  0.16054019  0.33715710  1  0  0.004269  0  3.708734  0  0  -0.013436  0  3.955128  0  0  -0.010519  0  3.974984  0  0  -0.06543  -0.014578  0  3.94192  0
C  C72  1  0.42472328  0.11299193  0.85965305  1  0  -0.134383  0  3.665918  0  0  -0.150931  0  3.906472  0  0  -0.157832  0  3.926884  0  0  -0.075586  -0.147919  0  3.894152  0
C  C73  1  0.92472318  0.88700918  0.64034528  1  0  -0.134375  0  3.666032  0  0  -0.150962  0  3.906568  0  0  -0.157863  0  3.926981  0  0  -0.075584  -0.147945  0  3.894244  0
C  C74  1  0.57527645  0.88701013  0.14034589  1  0  -0.13441  0  3.665965  0  0  -0.150966  0  3.906516  0  0  -0.157868  0  3.926931  0  0  -0.07563  -0.147958  0  3.894201  0
C  C75  1  0.07527550  0.11299185  0.35965361  1  0  -0.134325  0  3.665882  0  0  -0.150872  0  3.906448  0  0  -0.157773  0  3.92686  0  0  -0.075586  -0.147859  0  3.894128  0
C  C76  1  0.44372685  0.97117029  0.86718049  1  0  0.17852  0  3.754946  0  0  0.174985  0  3.992557  0  0  0.181478  0  4.013762  0  0  0.122087  0.171131  0  3.9775  0
C  C77  1  0.94372648  0.02882980  0.63281778  1  0  0.17846  0  3.755097  0  0  0.175026  0  3.992584  0  0  0.18152  0  4.013788  0  0  0.122084  0.171177  0  3.977517  0
C  C78  1  0.55627395  0.02883074  0.13281840  1  0  0.17848  0  3.755084  0  0  0.174992  0  3.992619  0  0  0.181486  0  4.013822  0  0  0.122098  0.171138  0  3.977559  0
C  C79  1  0.05627326  0.97117123  0.36718111  1  0  0.178497  0  3.755023  0  0  0.174965  0  3.992633  0  0  0.181456  0  4.013839  0  0  0.122073  0.171114  0  3.977575  0
C  C80  1  0.58429731  0.91379245  0.88776204  1  0  0.173502  0  3.757883  0  0  0.171196  0  3.996073  0  0  0.176858  0  4.017372  0  0  0.11989  0.167413  0  3.980829  0
C  C81  1  0.08429776  0.08620755  0.61223640  1  0  0.173448  0  3.758007  0  0  0.171095  0  3.996202  0  0  0.176757  0  4.017502  0  0  0.119826  0.167314  0  3.980955  0
C  C82  1  0.41570243  0.08620859  0.11223747  1  0  0.173521  0  3.757942  0  0  0.171177  0  3.99615  0  0  0.176839  0  4.017449  0  0  0.119855  0.167392  0  3.980902  0
C  C83  1  0.91570198  0.91379244  0.38776183  1  0  0.173539  0  3.757886  0  0  0.171244  0  3.996066  0  0  0.176906  0  4.017365  0  0  0.119905  0.167458  0  3.980828  0
C  C84  1  0.69270657  0.99806683  0.92305096  1  0  -0.127792  0  3.670742  0  0  -0.149488  0  3.92466  0  0  -0.155174  0  3.94392  0  0  -0.075714  -0.143888  0  3.909942  0
C  C85  1  0.19270704  0.00193320  0.57694866  1  0  -0.127721  0  3.670777  0  0  -0.149389  0  3.924672  0  0  -0.155076  0  3.943933  0  0  -0.075685  -0.143787  0  3.90996  0
C  C86  1  0.30729316  0.00193318  0.07694912  1  0  -0.127787  0  3.670748  0  0  -0.149461  0  3.924656  0  0  -0.155149  0  3.943917  0  0  -0.075702  -0.143863  0  3.909945  0
C  C87  1  0.80729269  0.99806576  0.42305075  1  0  -0.127772  0  3.670759  0  0  -0.149475  0  3.924676  0  0  -0.155161  0  3.943936  0  0  -0.075707  -0.143876  0  3.909967  0
C  C88  1  0.82377426  0.93831133  0.93724285  1  0  0.001458  0  3.721866  0  0  -0.019448  0  3.973372  0  0  -0.016793  0  3.992459  0  0  -0.067651  -0.020152  0  3.958354  0
C  C89  1  0.32377689  0.06168875  0.56275794  1  0  0.001383  0  3.721906  0  0  -0.019537  0  3.973417  0  0  -0.016881  0  3.992507  0  0  -0.06767  -0.020242  0  3.958403  0
C  C90  1  0.17622442  0.06168661  0.06275774  1  0  0.001419  0  3.721894  0  0  -0.019485  0  3.973407  0  0  -0.016828  0  3.992492  0  0  -0.067663  -0.020198  0  3.958404  0
C  C91  1  0.67622390  0.93831126  0.43724275  1  0  0.001382  0  3.721897  0  0  -0.019523  0  3.973407  0  0  -0.016867  0  3.992494  0  0  -0.067689  -0.020234  0  3.958396  0
C  C92  1  0.84418051  0.79698632  0.91701903  1  0  -0.126943  0  3.731543  0  0  -0.137459  0  3.978508  0  0  -0.144017  0  4.000691  0  0  -0.08622  -0.13475  0  3.964551  0
C  C93  1  0.34418316  0.20301480  0.58298243  1  0  -0.126898  0  3.731618  0  0  -0.137411  0  3.978571  0  0  -0.143968  0  4.000746  0  0  -0.086224  -0.134702  0  3.964614  0
C  C94  1  0.15581816  0.20301472  0.08298110  1  0  -0.126915  0  3.731547  0  0  -0.137429  0  3.9785  0  0  -0.143986  0  4.000681  0  0  -0.086217  -0.134722  0  3.964552  0
C  C95  1  0.65581763  0.79698521  0.41701827  1  0  -0.126839  0  3.731511  0  0  -0.137324  0  3.978464  0  0  -0.14387  0  4.000646  0  0  -0.086197  -0.134618  0  3.964511  0
C  C96  1  0.73010479  0.72004364  0.88344693  1  0  0.128139  0  3.727928  0  0  0.101203  0  3.976372  0  0  0.106536  0  3.996702  0  0  0.043339  0.097648  0  3.963675  0
C  C97  1  0.23010529  0.27995641  0.61655329  1  0  0.12811  0  3.727955  0  0  0.101165  0  3.9764  0  0  0.10651  0  3.996732  0  0  0.043342  0.097613  0  3.963696  0
C  C98  1  0.26989495  0.27995637  0.11655376  1  0  0.128112  0  3.727991  0  0  0.101164  0  3.97644  0  0  0.106502  0  3.996771  0  0  0.043328  0.097608  0  3.963744  0
C  C99  1  0.76989444  0.72004256  0.38344612  1  0  0.128071  0  3.72802  0  0  0.101128  0  3.976463  0  0  0.10646  0  3.996792  0  0  0.043305  0.097573  0  3.96376  0
N  N100  1  0.48125129  0.54303143  0.72535040  1  0  -0.438988  0  3.198283  0  0  -0.368584  0  3.482579  0  0  -0.387434  0  3.500233  0  0  -0.358486  -0.355127  0  3.470179  0
N  N101  1  0.98125192  0.45696868  0.77465032  1  0  -0.438998  0  3.198316  0  0  -0.368598  0  3.48261  0  0  -0.387449  0  3.500266  0  0  -0.358491  -0.355146  0  3.470222  0
N  N102  1  0.51874738  0.45696857  0.27465029  1  0  -0.439021  0  3.198297  0  0  -0.368633  0  3.482602  0  0  -0.387485  0  3.500259  0  0  -0.358469  -0.355172  0  3.470198  0
N  N103  1  0.01874782  0.54303029  0.22534971  1  0  -0.439002  0  3.198347  0  0  -0.368579  0  3.482656  0  0  -0.38743  0  3.500313  0  0  -0.358483  -0.355126  0  3.470264  0
N  N104  1  0.66229609  0.43737626  0.65378023  1  0  -0.387843  0  3.206575  0  0  -0.310581  0  3.499117  0  0  -0.332848  0  3.513974  0  0  -0.362269  -0.295494  0  3.48969  0
N  N105  1  0.16229742  0.56262170  0.84621992  1  0  -0.387858  0  3.206589  0  0  -0.310603  0  3.499148  0  0  -0.332872  0  3.514004  0  0  -0.362293  -0.295511  0  3.48971  0
N  N106  1  0.33770258  0.56262271  0.34622041  1  0  -0.387858  0  3.206623  0  0  -0.3106  0  3.499167  0  0  -0.332867  0  3.514024  0  0  -0.362278  -0.295511  0  3.489738  0
N  N107  1  0.83770338  0.43737623  0.15377944  1  0  -0.387833  0  3.206528  0  0  -0.310575  0  3.49908  0  0  -0.332841  0  3.513934  0  0  -0.362296  -0.295484  0  3.489646  0
N  N108  1  0.39861901  0.69540451  0.62270015  1  0  0.457329  0  4.009092  0  0  0.512452  0  4.267539  0  0  0.534524  0  4.275589  0  0  0.041729  0.497707  0  4.262653  0
N  N109  1  0.89861837  0.30459454  0.87729995  1  0  0.457302  0  4.009112  0  0  0.512418  0  4.26758  0  0  0.53449  0  4.275628  0  0  0.041727  0.497674  0  4.262692  0
N  N110  1  0.60138179  0.30459445  0.37729926  1  0  0.45731  0  4.009112  0  0  0.51246  0  4.267528  0  0  0.534531  0  4.275578  0  0  0.04174  0.497714  0  4.262641  0
N  N111  1  0.10138242  0.69540547  0.12270075  1  0  0.457317  0  4.00906  0  0  0.512458  0  4.267505  0  0  0.534528  0  4.275557  0  0  0.041741  0.497715  0  4.262614  0
N  N112  1  0.33581487  0.88070343  0.85326470  1  0  -0.34976  0  3.243895  0  0  -0.27763  0  3.501669  0  0  -0.296042  0  3.519047  0  0  -0.322557  -0.263427  0  3.487245  0
N  N113  1  0.83581557  0.11929664  0.64673485  1  0  -0.349774  0  3.243955  0  0  -0.277681  0  3.501712  0  0  -0.296093  0  3.519086  0  0  -0.322566  -0.263475  0  3.487284  0
N  N114  1  0.66418593  0.11929760  0.14673419  1  0  -0.349795  0  3.243993  0  0  -0.277666  0  3.501742  0  0  -0.296076  0  3.519117  0  0  -0.322574  -0.263473  0  3.487326  0
N  N115  1  0.16418417  0.88070336  0.35326399  1  0  -0.349802  0  3.243876  0  0  -0.277688  0  3.501673  0  0  -0.296097  0  3.519046  0  0  -0.322561  -0.263485  0  3.487251  0
N  N116  1  0.60393694  0.77681598  0.86924467  1  0  -0.35563  0  3.250713  0  0  -0.286711  0  3.505754  0  0  -0.304755  0  3.52547  0  0  -0.32623  -0.275222  0  3.49282  0
N  N117  1  0.10393740  0.22318403  0.63075500  1  0  -0.355546  0  3.250717  0  0  -0.286621  0  3.50577  0  0  -0.304664  0  3.52548  0  0  -0.326179  -0.275127  0  3.492829  0
N  N118  1  0.39606280  0.22318506  0.13075546  1  0  -0.355602  0  3.250773  0  0  -0.286671  0  3.505819  0  0  -0.304715  0  3.525533  0  0  -0.326204  -0.275182  0  3.492882  0
N  N119  1  0.89606339  0.77681494  0.36924441  1  0  -0.35562  0  3.250714  0  0  -0.286695  0  3.505755  0  0  -0.30474  0  3.525473  0  0  -0.326211  -0.275204  0  3.492817  0
O  O120  1  0.30821960  0.74622837  0.67311238  1  0  -0.384446  0  1.76765  0  0  -0.367963  0  1.973721  0  0  -0.380152  0  1.969138  0  0  -0.144492  -0.360463  0  1.977798  0
O  O121  1  0.80822008  0.25377273  0.82688786  1  0  -0.384412  0  1.7677  0  0  -0.367937  0  1.973782  0  0  -0.380127  0  1.9692  0  0  -0.144473  -0.360446  0  1.977863  0
O  O122  1  0.69177908  0.25377163  0.32688708  1  0  -0.384419  0  1.767684  0  0  -0.367961  0  1.973764  0  0  -0.380149  0  1.969181  0  0  -0.144474  -0.360457  0  1.977847  0
O  O123  1  0.19177965  0.74622831  0.17311227  1  0  -0.384447  0  1.767676  0  0  -0.367961  0  1.973739  0  0  -0.38015  0  1.969156  0  0  -0.144495  -0.360472  0  1.977824  0
O  O124  1  0.41575099  0.73475804  0.55170116  1  0  -0.384924  0  1.762108  0  0  -0.366633  0  1.961761  0  0  -0.379486  0  1.958874  0  0  -0.144128  -0.358523  0  1.964237  0
O  O125  1  0.91575131  0.26524102  0.94829893  1  0  -0.384947  0  1.76211  0  0  -0.366646  0  1.961777  0  0  -0.379502  0  1.95889  0  0  -0.144149  -0.358536  0  1.96425  0
O  O126  1  0.58424874  0.26524196  0.44829830  1  0  -0.3849  0  1.762095  0  0  -0.366625  0  1.961739  0  0  -0.379478  0  1.958855  0  0  -0.144136  -0.35852  0  1.964217  0
O  O127  1  0.08424948  0.73475898  0.05170115  1  0  -0.38495  0  1.762105  0  0  -0.366653  0  1.961744  0  0  -0.379509  0  1.958861  0  0  -0.144156  -0.358554  0  1.964222  0
O  O128  1  0.40515786  0.65831551  0.99936161  1  0  -0.580268  0  2.033757  0  0  -0.527699  0  2.283892  0  0  -0.552359  0  2.275361  0  0  -0.325468  -0.51027  0  2.289094  0
O  O129  1  0.90515777  0.34168252  0.50064028  1  0  -0.58033  0  2.033746  0  0  -0.527759  0  2.283828  0  0  -0.552429  0  2.275314  0  0  -0.325498  -0.510319  0  2.289027  0
O  O130  1  0.59484082  0.34168553  0.00063913  1  0  -0.580292  0  2.033892  0  0  -0.527732  0  2.283999  0  0  -0.552392  0  2.275471  0  0  -0.325468  -0.510299  0  2.289199  0
O  O131  1  0.09484090  0.65831646  0.49936098  1  0  -0.580291  0  2.033755  0  0  -0.527736  0  2.283891  0  0  -0.552396  0  2.275356  0  0  -0.325463  -0.51029  0  2.289088  0
O  O132  1  0.50827983  0.56247278  0.10564211  1  0  -0.602599  0  2.079381  0  0  -0.53742  0  2.327698  0  0  -0.563711  0  2.319663  0  0  -0.32381  -0.517957  0  2.332038  0
O  O133  1  0.00827787  0.43752920  0.39435989  1  0  -0.602571  0  2.079405  0  0  -0.53743  0  2.327721  0  0  -0.563722  0  2.319688  0  0  -0.323756  -0.517964  0  2.332063  0
O  O134  1  0.49172308  0.43752929  0.89435744  1  0  -0.602563  0  2.079331  0  0  -0.537388  0  2.327625  0  0  -0.563681  0  2.319592  0  0  -0.323761  -0.517932  0  2.33197  0
O  O135  1  0.99171762  0.56247393  0.60564218  1  0  -0.602625  0  2.079397  0  0  -0.537445  0  2.327707  0  0  -0.563737  0  2.319671  0  0  -0.323818  -0.517989  0  2.332057  0
