# generated using pymatgen
data_CuH32Pd(C2N)12
_symmetry_space_group_name_H-M   'P 1'
_cell_length_a   8.54667004
_cell_length_b   8.91007882
_cell_length_c   10.49491234
_cell_angle_alpha   112.38489246
_cell_angle_beta   101.45016816
_cell_angle_gamma   96.78133519
_symmetry_Int_Tables_number   1
_chemical_formula_structural   CuH32Pd(C2N)12
_chemical_formula_sum   'Cu1 H32 Pd1 C24 N12'
_cell_volume   707.53915874
_cell_formula_units_Z   1
loop_
 _symmetry_equiv_pos_site_id
 _symmetry_equiv_pos_as_xyz
  1  'x, y, z'
loop_
 _atom_site_type_symbol
 _atom_site_label
 _atom_site_symmetry_multiplicity
 _atom_site_fract_x
 _atom_site_fract_y
 _atom_site_fract_z
 _atom_site_occupancy
 _atom_site_pbe_bader_charge
 _atom_site_pbe_bader_spin_density
 _atom_site_pbe_cm5_charge
 _atom_site_pbe_ddec_charge
 _atom_site_pbe_ddec_spin_density
 _atom_site_pbe_ddec_sum_bond_order
 _atom_site_pbe_magmom
Cu  Cu0  1  0.00000075  0.49999933  0.49999938  1  1.073886  0.59781  0.786167  0.690628  0.749924  2.405873  0.596
H  H1  1  0.27650564  0.50038991  0.34593381  1  0.137195  0.000572  0.13657  0.108743  0.000168  1.00525  0.0
H  H2  1  0.72349271  0.49961006  0.65406218  1  0.137203  0.000572  0.136583  0.108726  0.000168  1.005313  0.0
H  H3  1  0.29434550  0.79803045  0.77415662  1  0.121706  0.000952  0.118136  0.119036  0.000392  1.017652  0.001
H  H4  1  0.70565233  0.20196703  0.22583944  1  0.121672  0.000952  0.118122  0.118996  0.000392  1.017703  0.001
H  H5  1  0.58859748  0.89045293  0.72234185  1  0.152604  0.00126  0.122191  0.134601  0.000621  1.026255  0.001
H  H6  1  0.41140113  0.10954829  0.27765650  1  0.152605  0.001261  0.122178  0.134591  0.000621  1.026228  0.001
H  H7  1  0.56688102  0.57993087  0.34397079  1  0.05371  -2.2e-05  0.106648  0.081411  -5.4e-05  0.987877  0.0
H  H8  1  0.43311665  0.42007159  0.65602686  1  0.05375  -2.2e-05  0.106686  0.081484  -5.4e-05  0.987846  0.0
H  H9  1  0.71152250  0.71886084  0.50432369  1  0.105446  0.000182  0.107696  0.095116  8.9e-05  1.025812  0.0
H  H10  1  0.28848021  0.28114286  0.49567613  1  0.105438  0.000182  0.107689  0.095107  8.9e-05  1.025808  0.0
H  H11  1  0.68075038  0.83662416  0.32066529  1  0.052035  9.7e-05  0.087789  0.12261  3.9e-05  1.041126  0.0
H  H12  1  0.31924943  0.16337705  0.67933135  1  0.052073  9.7e-05  0.087818  0.122641  3.9e-05  1.041104  0.0
H  H13  1  0.61862094  0.96227568  0.47014446  1  0.037096  8e-06  0.088416  0.12172  3e-06  1.020875  0.0
H  H14  1  0.38137912  0.03772678  0.52985357  1  0.036974  8e-06  0.088423  0.12173  3e-06  1.020861  0.0
H  H15  1  0.46946342  0.82442455  0.30884309  1  0.062852  2.2e-05  0.086233  0.124238  1e-05  1.033354  0.0
H  H16  1  0.53053784  0.17557791  0.69115418  1  0.062866  2.2e-05  0.086238  0.124237  1e-05  1.033333  0.0
H  H17  1  0.18671809  0.60095152  0.84110854  1  0.183795  0.00042  0.132048  0.104266  6.1e-05  1.049467  0.0
H  H18  1  0.81328462  0.39905218  0.15889127  1  0.18382  0.00042  0.132029  0.104281  6.1e-05  1.049506  0.0
H  H19  1  0.92361376  0.14422375  0.50339443  1  0.106821  0.00095  0.119267  0.117969  0.000389  1.010357  0.001
H  H20  1  0.07638417  0.85577994  0.49661128  1  0.106795  0.00095  0.119257  0.117946  0.000389  1.010352  0.001
H  H21  1  0.01192044  0.09815757  0.75366325  1  0.133477  0.001041  0.111723  0.115573  0.000507  1.058942  0.001
H  H22  1  0.98808004  0.90184116  0.24633744  1  0.133474  0.001041  0.111715  0.115548  0.000507  1.058998  0.001
H  H23  1  0.09972402  0.35904959  0.03304286  1  0.0566  0.000279  0.095986  0.072754  0.00013  1.015581  0.0
H  H24  1  0.90028253  0.64095535  0.96695988  1  0.056494  0.000279  0.095971  0.072747  0.00013  1.015544  0.0
H  H25  1  0.23739717  0.53295290  0.04450466  1  0.072206  2.2e-05  0.110627  0.097195  -0.0  0.996251  0.0
H  H26  1  0.76261312  0.46704708  0.95549232  1  0.072194  2.2e-05  0.110628  0.097202  -0.0  0.996293  0.0
H  H27  1  0.38779714  0.33939228  0.11969766  1  0.072044  0.000134  0.085526  0.116128  7.4e-05  1.029332  0.0
H  H28  1  0.61220520  0.66060396  0.88030158  1  0.071707  0.000134  0.085526  0.116127  7.4e-05  1.029352  0.0
H  H29  1  0.43487965  0.34646282  0.96404827  1  0.057493  1.8e-05  0.089844  0.129678  4e-06  1.009931  0.0
H  H30  1  0.56512311  0.65352970  0.03595078  1  0.057474  1.8e-05  0.089851  0.129694  4e-06  1.009889  0.0
H  H31  1  0.29475833  0.17400538  0.95115333  1  0.026444  1.2e-05  0.08172  0.115039  8e-06  1.031103  0.0
H  H32  1  0.70523924  0.82599085  0.04884800  1  0.026492  1.2e-05  0.081748  0.115081  8e-06  1.031078  0.0
Pd  Pd33  1  0.99999539  0.00000005  0.00000517  1  0.505159  -0.000209  0.631749  0.164754  -0.000843  4.119136  0.0
C  C34  1  0.04256425  0.16263247  0.20031840  1  0.798837  -0.001062  -0.0432  -0.003708  -0.001154  3.90393  -0.001
C  C35  1  0.95743348  0.83735879  0.79968515  1  0.800134  -0.001061  -0.043195  -0.003614  -0.001153  3.904271  -0.001
C  C36  1  0.18108148  0.89420863  0.04990164  1  0.778119  -2.5e-05  -0.051488  -0.033222  -3.7e-05  3.934229  0.0
C  C37  1  0.81890321  0.10578884  0.95010087  1  0.77842  -2.5e-05  -0.051469  -0.033185  -3.6e-05  3.93457  0.0
C  C38  1  0.31936774  0.59347759  0.45513446  1  0.976524  -0.002021  0.14031  0.084905  -0.002582  3.923887  -0.001
C  C39  1  0.68063181  0.40652238  0.54486363  1  0.976535  -0.002021  0.140358  0.084941  -0.002582  3.923991  -0.001
C  C40  1  0.33402327  0.74836017  0.67725249  1  0.369631  0.002111  -0.003927  -0.042678  0.001713  3.98702  0.002
C  C41  1  0.66597627  0.25163980  0.32274560  1  0.369635  0.002111  -0.003895  -0.042644  0.001714  3.987011  0.002
C  C42  1  0.48080382  0.79538841  0.65303628  1  0.327842  0.004343  0.006195  -0.093768  0.002777  3.888527  0.003
C  C43  1  0.51919573  0.20461156  0.34696371  1  0.327833  0.004343  0.006213  -0.093791  0.002778  3.888421  0.003
C  C44  1  0.59184030  0.70269620  0.43336511  1  0.294454  0.000953  -0.060105  -0.019307  0.000656  3.882105  0.001
C  C45  1  0.40815977  0.29730626  0.56663387  1  0.294382  0.000953  -0.060207  -0.019471  0.000656  3.882175  0.001
C  C46  1  0.58861198  0.83951034  0.38036914  1  -0.085551  -9e-06  -0.251269  -0.392209  -2.9e-05  3.936073  0.0
C  C47  1  0.41138928  0.16049212  0.61962909  1  -0.08556  -9e-06  -0.251278  -0.392221  -2.9e-05  3.936046  0.0
C  C48  1  0.12801861  0.47094754  0.77960018  1  0.939535  -0.001129  0.139392  0.086807  -0.001414  3.890711  0.0
C  C49  1  0.87198452  0.52905242  0.22040135  1  0.939551  -0.00113  0.13938  0.086722  -0.001414  3.890785  0.0
C  C50  1  0.99188099  0.23202555  0.61018788  1  0.459291  0.000913  -0.003765  -0.036039  0.000497  3.996639  0.001
C  C51  1  0.00811736  0.76797441  0.38981574  1  0.459258  0.000913  -0.003756  -0.036027  0.000497  3.996584  0.001
C  C52  1  0.03554944  0.20758896  0.73285803  1  0.259859  0.003488  -0.001494  -0.101115  0.002187  3.916754  0.002
C  C53  1  0.96445156  0.79241226  0.26714356  1  0.259868  0.003488  -0.001444  -0.101055  0.002187  3.916682  0.002
C  C54  1  0.19611498  0.39721275  0.98925648  1  0.307261  0.001232  -0.057995  -0.020321  0.000906  3.888316  0.001
C  C55  1  0.80389080  0.60278847  0.01074302  1  0.307331  0.001232  -0.057936  -0.020319  0.000906  3.888239  0.001
C  C56  1  0.33643503  0.30966301  0.00617072  1  -0.094762  4e-05  -0.245672  -0.382849  8e-06  3.94666  0.0
C  C57  1  0.66356586  0.69033199  0.99382788  1  -0.094426  4e-05  -0.245695  -0.382888  8e-06  3.946632  0.0
N  N58  1  0.06282744  0.25886863  0.31870717  1  -1.350732  -0.001536  -0.363983  -0.386438  -0.00173  3.199776  0.0
N  N59  1  0.93716993  0.74114375  0.68130603  1  -1.351938  -0.001536  -0.363941  -0.386445  -0.00173  3.200296  0.0
N  N60  1  0.28487275  0.82588961  0.07458738  1  -1.333073  0.000112  -0.368325  -0.378626  7.2e-05  3.005309  0.0
N  N61  1  0.71512493  0.17411283  0.92541979  1  -1.333425  0.000112  -0.368336  -0.378656  7.2e-05  3.005826  0.0
N  N62  1  0.23498911  0.62170952  0.55285321  1  -1.196381  0.090671  -0.371497  -0.287873  0.058971  3.661592  0.079
N  N63  1  0.76501137  0.37828921  0.44714368  1  -1.196371  0.090673  -0.371548  -0.287885  0.058972  3.66154  0.079
N  N64  1  0.46903154  0.69589469  0.51187641  1  -1.246214  0.002198  -0.241533  0.039978  0.000992  3.767034  0.002
N  N65  1  0.53096826  0.30410652  0.48812212  1  -1.246235  0.002198  -0.241538  0.040084  0.000992  3.766956  0.002
N  N66  1  0.05007188  0.39667831  0.64092837  1  -1.196865  0.091826  -0.369578  -0.28449  0.059585  3.651791  0.08
N  N67  1  0.94992792  0.60332290  0.35907493  1  -1.19693  0.091828  -0.369599  -0.284518  0.059586  3.651781  0.08
N  N68  1  0.12143836  0.36003892  0.83913086  1  -1.228741  0.003146  -0.241462  0.047128  0.001598  3.740098  0.002
N  N69  1  0.87856596  0.63996106  0.16086896  1  -1.228699  0.003146  -0.241516  0.047199  0.001599  3.739949  0.002
