# generated using pymatgen
data_BaH4(C2O3)2
_symmetry_space_group_name_H-M   'P 1'
_cell_length_a   8.27138346
_cell_length_b   8.34093700
_cell_length_c   9.15301731
_cell_angle_alpha   89.99997281
_cell_angle_beta   90.00023568
_cell_angle_gamma   89.99998598
_symmetry_Int_Tables_number   1
_chemical_formula_structural   BaH4(C2O3)2
_chemical_formula_sum   'Ba4 H16 C16 O24'
_cell_volume   631.47662549
_cell_formula_units_Z   4
loop_
 _symmetry_equiv_pos_site_id
 _symmetry_equiv_pos_as_xyz
  1  'x, y, z'
loop_
 _atom_site_type_symbol
 _atom_site_label
 _atom_site_symmetry_multiplicity
 _atom_site_fract_x
 _atom_site_fract_y
 _atom_site_fract_z
 _atom_site_occupancy
 _atom_site_pbe_bader_spin_density
 _atom_site_pbe_cm5_charge
 _atom_site_pbe_ddec_charge
 _atom_site_pbe_ddec_spin_density
 _atom_site_pbe_ddec_sum_bond_order
 _atom_site_pbe_magmom
Ba  Ba0  1  0.84286479  0.52947973  0.98144284  1  0  0.957793  1.442587  0  1.597243  0
Ba  Ba1  1  0.65713437  0.02948102  0.01855685  1  0  0.957792  1.442564  0  1.597274  0
Ba  Ba2  1  0.34286758  0.47052010  0.51855522  1  0  0.957805  1.442686  0  1.597066  0
Ba  Ba3  1  0.15713309  0.97052031  0.48144460  1  0  0.957786  1.44265  0  1.597103  0
H  H4  1  0.25403024  0.10011939  0.08548920  1  0  0.30593  0.349443  0  0.992884  0
H  H5  1  0.24596932  0.60011936  0.91450860  1  0  0.305933  0.349453  0  0.992868  0
H  H6  1  0.75402584  0.89988191  0.41451042  1  0  0.305925  0.349429  0  0.992883  0
H  H7  1  0.74597443  0.39988289  0.58549020  1  0  0.305915  0.349406  0  0.992902  0
H  H8  1  0.36769949  0.10874295  0.72339162  1  0  0.310512  0.353565  0  0.987189  0
H  H9  1  0.13229886  0.60874327  0.27660835  1  0  0.310516  0.353551  0  0.987193  0
H  H10  1  0.86769930  0.89125568  0.77661309  1  0  0.310523  0.353575  0  0.987201  0
H  H11  1  0.63229855  0.39125567  0.22338754  1  0  0.310507  0.353558  0  0.987198  0
H  H12  1  0.21497251  0.35445535  0.02143479  1  0  0.128007  0.077641  0  0.992906  0
H  H13  1  0.28502699  0.85445407  0.97856618  1  0  0.12802  0.077662  0  0.992903  0
H  H14  1  0.71496967  0.64554717  0.47856688  1  0  0.128011  0.077662  0  0.992915  0
H  H15  1  0.78503067  0.14554817  0.52143385  1  0  0.128004  0.077638  0  0.99295  0
H  H16  1  0.13283197  0.36103356  0.77172274  1  0  0.13071  0.065495  0  1.027686  0
H  H17  1  0.36716632  0.86103146  0.22827713  1  0  0.130725  0.065556  0  1.027613  0
H  H18  1  0.63283525  0.63896512  0.72827782  1  0  0.130708  0.065534  0  1.027651  0
H  H19  1  0.86716509  0.13896503  0.27172291  1  0  0.130713  0.065548  0  1.027647  0
C  C20  1  0.42984059  0.38172542  0.89051362  1  0  0.227466  0.584081  0  4.175604  0
C  C21  1  0.07015527  0.88172224  0.10948624  1  0  0.227423  0.583917  0  4.175726  0
C  C22  1  0.92984697  0.61827919  0.60948367  1  0  0.227336  0.583881  0  4.175772  0
C  C23  1  0.57015821  0.11827791  0.39051597  1  0  0.227338  0.58389  0  4.175709  0
C  C24  1  0.28595065  0.28010974  0.94527783  1  0  0.00859  0.04047  0  3.885027  0
C  C25  1  0.21404765  0.78010776  0.05472208  1  0  0.008591  0.040473  0  3.885127  0
C  C26  1  0.78595071  0.71989250  0.55472439  1  0  0.008558  0.040443  0  3.885166  0
C  C27  1  0.71405324  0.21989236  0.44527521  1  0  0.008594  0.040498  0  3.885163  0
C  C28  1  0.18316464  0.24511731  0.80820263  1  0  0.003143  0.021324  0  3.906442  0
C  C29  1  0.31683488  0.74511644  0.19179620  1  0  0.003116  0.0213  0  3.906431  0
C  C30  1  0.68316410  0.75488255  0.69179921  1  0  0.003145  0.021288  0  3.906485  0
C  C31  1  0.81683621  0.25488366  0.30820038  1  0  0.003156  0.021254  0  3.906501  0
C  C32  1  0.03172088  0.14296573  0.83439701  1  0  0.232145  0.599889  0  4.150433  0
C  C33  1  0.46827625  0.64296244  0.16560842  1  0  0.232252  0.59997  0  4.150334  0
C  C34  1  0.53172140  0.85703657  0.66561301  1  0  0.232253  0.6  0  4.150305  0
C  C35  1  0.96828009  0.35703642  0.33438763  1  0  0.232243  0.60005  0  4.150164  0
O  O36  1  0.57193537  0.33151401  0.90785135  1  0  -0.364152  -0.595381  0  2.252235  0
O  O37  1  0.92806613  0.83151196  0.09214930  1  0  -0.364158  -0.595316  0  2.25235  0
O  O38  1  0.07193482  0.66848708  0.59214134  1  0  -0.364042  -0.595303  0  2.252476  0
O  O39  1  0.42806594  0.16848811  0.40785971  1  0  -0.364068  -0.595318  0  2.252378  0
O  O40  1  0.39162674  0.51175639  0.82426979  1  0  -0.344113  -0.617362  0  2.250667  0
O  O41  1  0.10837163  0.01175761  0.17572914  1  0  -0.344068  -0.617273  0  2.250533  0
O  O42  1  0.89163104  0.48823983  0.67573173  1  0  -0.34408  -0.617247  0  2.250466  0
O  O43  1  0.60837284  0.98823893  0.32426776  1  0  -0.344097  -0.617294  0  2.250462  0
O  O44  1  0.34142658  0.14001540  0.01756203  1  0  -0.436997  -0.541628  0  2.375914  0
O  O45  1  0.15857297  0.64001535  0.98243794  1  0  -0.437001  -0.541646  0  2.375977  0
O  O46  1  0.84142250  0.85998709  0.48243901  1  0  -0.436978  -0.541596  0  2.375962  0
O  O47  1  0.65857899  0.35998812  0.51756053  1  0  -0.436979  -0.541598  0  2.375891  0
O  O48  1  0.28100291  0.18785638  0.69109281  1  0  -0.449782  -0.575175  0  2.457246  0
O  O49  1  0.21899784  0.68785427  0.30890714  1  0  -0.449834  -0.575178  0  2.457202  0
O  O50  1  0.78100410  0.81214346  0.80891049  1  0  -0.449825  -0.575182  0  2.457274  0
O  O51  1  0.71899499  0.31214225  0.19109017  1  0  -0.449792  -0.575154  0  2.45728  0
O  O52  1  0.93026484  0.19809130  0.92532169  1  0  -0.377941  -0.628398  0  2.216327  0
O  O53  1  0.56973790  0.69809295  0.07467792  1  0  -0.378024  -0.628532  0  2.216039  0
O  O54  1  0.43025934  0.80190611  0.57468325  1  0  -0.378022  -0.628554  0  2.216143  0
O  O55  1  0.06973896  0.30190841  0.42531555  1  0  -0.377994  -0.628539  0  2.216163  0
O  O56  1  0.01577055  0.01560716  0.75891042  1  0  -0.331313  -0.576581  0  2.229115  0
O  O57  1  0.48422540  0.51560982  0.24108850  1  0  -0.331306  -0.57654  0  2.229397  0
O  O58  1  0.51577018  0.98439035  0.74109516  1  0  -0.331293  -0.576531  0  2.229252  0
O  O59  1  0.98423007  0.48439264  0.25890324  1  0  -0.331323  -0.576604  0  2.229158  0
