# generated using pymatgen
data_Zn5H60C75(N3O2)6
_symmetry_space_group_name_H-M   'P 1'
_cell_length_a   19.13112823
_cell_length_b   20.84041121
_cell_length_c   23.74240219
_cell_angle_alpha   114.92723738
_cell_angle_beta   111.54211854
_cell_angle_gamma   93.57311911
_symmetry_Int_Tables_number   1
_chemical_formula_structural   Zn5H60C75(N3O2)6
_chemical_formula_sum   'Zn10 H120 C150 N36 O24'
_cell_volume   7715.70449686
_cell_formula_units_Z   2
loop_
 _symmetry_equiv_pos_site_id
 _symmetry_equiv_pos_as_xyz
  1  'x, y, z'
loop_
 _atom_site_type_symbol
 _atom_site_label
 _atom_site_symmetry_multiplicity
 _atom_site_fract_x
 _atom_site_fract_y
 _atom_site_fract_z
 _atom_site_occupancy
 _atom_site_pbe_bader_charge
 _atom_site_pbe_bader_spin_density
 _atom_site_pbe_cm5_charge
 _atom_site_pbe_ddec_charge
 _atom_site_pbe_ddec_spin_density
 _atom_site_pbe_ddec_sum_bond_order
 _atom_site_pbe_magmom
Zn  Zn0  1  0.21819214  0.58574796  0.41725099  1  1.258014  0  0.696502  0.448284  0  2.579526  0
Zn  Zn1  1  0.01261537  0.52815565  0.32459838  1  1.242431  0  0.719077  0.68467  0  2.458431  0
Zn  Zn2  1  0.28239353  0.51307486  0.53479432  1  1.23224  0  0.725581  0.685171  0  2.478861  0
Zn  Zn3  1  0.30121913  0.52432223  0.29998255  1  1.234388  0  0.729753  0.687312  0  2.503405  0
Zn  Zn4  1  0.28354876  0.78247563  0.51937302  1  1.24855  0  0.719634  0.684623  0  2.454258  0
Zn  Zn5  1  0.78180525  0.41425287  0.58274688  1  1.257976  0  0.696494  0.44816  0  2.57962  0
Zn  Zn6  1  0.98738203  0.47184520  0.67539866  1  1.242523  0  0.71909  0.684644  0  2.458383  0
Zn  Zn7  1  0.71760975  0.48692272  0.46520246  1  1.232373  0  0.72561  0.685199  0  2.478756  0
Zn  Zn8  1  0.69878362  0.47567972  0.70001696  1  1.234337  0  0.729721  0.687241  0  2.503595  0
Zn  Zn9  1  0.71644654  0.21752623  0.48062965  1  1.248745  0  0.719627  0.684605  0  2.454442  0
H  H10  1  0.91248970  0.65794202  0.35233407  1  0.125513  0  0.107323  0.129933  0  1.018206  0
H  H11  1  0.89472550  0.78384661  0.40905430  1  0.062831  0  0.100577  0.10333  0  0.997  0
H  H12  1  0.14353444  0.87738493  0.52464248  1  0.131563  0  0.10568  0.131289  0  1.023344  0
H  H13  1  0.05681320  0.95473971  0.53871866  1  0.03161  0  0.093413  0.127939  0  0.9994  0
H  H14  1  0.97100997  0.92742785  0.46172020  1  0.043495  0  0.092625  0.126819  0  1.004255  0
H  H15  1  0.96605355  0.91189241  0.52801814  1  0.033217  0  0.095369  0.131362  0  0.987797  0
H  H16  1  0.92901315  0.41916863  0.14270161  1  0.08445  0  0.105701  0.118966  0  1.031512  0
H  H17  1  0.93427224  0.35294449  0.03030581  1  0.069827  0  0.102213  0.104732  0  0.991964  0
H  H18  1  0.18534505  0.41832501  0.12692434  1  0.075117  0  0.10605  0.123605  0  1.021337  0
H  H19  1  0.41676116  0.87139465  0.49400816  1  0.123373  0  0.107264  0.128936  0  1.013721  0
H  H20  1  0.50764956  0.88008569  0.44238500  1  0.051539  0  0.100021  0.102017  0  1.00054  0
H  H21  1  0.42962319  0.64708468  0.30256119  1  0.109445  0  0.106444  0.129621  0  1.010801  0
H  H22  1  0.56462899  0.83004049  0.36701280  1  0.053668  0  0.08919  0.124988  0  1.008895  0
H  H23  1  0.57324848  0.73956527  0.34863316  1  0.055934  0  0.093239  0.135658  0  0.997138  0
H  H24  1  0.50168928  0.75428812  0.28609963  1  0.017392  0  0.089389  0.126398  0  1.010237  0
H  H25  1  0.41610719  0.41162157  0.52427871  1  0.114328  0  0.106524  0.129365  0  1.01192  0
H  H26  1  0.51260182  0.35833905  0.37623068  1  0.066214  0  0.096686  0.100886  0  1.028474  0
H  H27  1  0.43459688  0.42504323  0.32202335  1  0.111486  0  0.109336  0.130469  0  1.00578  0
H  H28  1  0.50866220  0.33849863  0.52539529  1  0.051873  0  0.090489  0.129111  0  1.006217  0
H  H29  1  0.50342260  0.28012162  0.44280892  1  0.046116  0  0.093144  0.132599  0  0.983757  0
H  H30  1  0.57899916  0.36140819  0.49988750  1  0.012299  0  0.086258  0.122718  0  1.032239  0
H  H31  1  0.40219280  0.86372715  0.69357576  1  0.082507  0  0.108357  0.121006  0  1.01172  0
H  H32  1  0.47891058  0.86427886  0.80406669  1  0.059394  0  0.101462  0.102313  0  0.998445  0
H  H33  1  0.40429354  0.62807121  0.70745754  1  0.112208  0  0.109815  0.136658  0  1.006525  0
H  H34  1  0.32016323  0.51997405  0.09191229  1  0.102737  0  0.106839  0.113149  0  0.986672  0
H  H35  1  0.36242830  0.45873785  0.99939936  1  0.068472  0  0.099021  0.107154  0  1.055148  0
H  H36  1  0.44228795  0.31419624  0.08241643  1  0.083338  0  0.104399  0.115022  0  1.018911  0
H  H37  1  0.39999222  0.37799134  0.17596570  1  0.086311  0  0.106004  0.107347  0  1.009153  0
H  H38  1  0.37177464  0.36574435  0.90661464  1  0.051529  0  0.105503  0.07494  0  0.98784  0
H  H39  1  0.46214444  0.43125303  0.97198388  1  0.093106  0  0.104965  0.073259  0  1.000811  0
H  H40  1  0.49066481  0.48135492  0.71889498  1  0.10538  0  0.103129  0.106693  0  1.020583  0
H  H41  1  0.51840481  0.43300079  0.80190246  1  0.084512  0  0.098175  0.106009  0  1.062382  0
H  H42  1  0.27238829  0.34286886  0.72240451  1  0.058664  0  0.104563  0.116283  0  0.996153  0
H  H43  1  0.24557405  0.39330524  0.63978343  1  0.095434  0  0.104782  0.108619  0  1.002548  0
H  H44  1  0.78795279  0.56362694  0.21145169  1  0.121967  0  0.103071  0.103778  0  1.009984  0
H  H45  1  0.66468308  0.53349667  0.10801330  1  0.068068  0  0.100375  0.110993  0  1.026781  0
H  H46  1  0.67030630  0.30627374  0.02261693  1  0.068105  0  0.10245  0.112012  0  1.021321  0
H  H47  1  0.79031613  0.33736812  0.12772722  1  0.100324  0  0.107873  0.112352  0  0.988925  0
H  H48  1  0.58933142  0.30920172  0.92250693  1  0.065442  0  0.107607  0.080072  0  0.969973  0
H  H49  1  0.54708127  0.30071708  0.97580092  1  0.077195  0  0.107621  0.076056  0  0.989368  0
H  H50  1  0.51430296  0.33609896  0.82836336  1  0.071544  0  0.106876  0.077763  0  0.985722  0
H  H51  1  0.51452088  0.42298530  0.89088029  1  0.061099  0  0.103081  0.075253  0  1.005017  0
H  H52  1  0.36954325  0.24775867  0.81943275  1  0.067078  0  0.1072  0.077597  0  0.987408  0
H  H53  1  0.42012332  0.22661913  0.88714785  1  0.053457  0  0.106404  0.080101  0  0.974027  0
H  H54  1  0.46172872  0.00123583  0.64478564  1  0.104704  0  0.106025  0.10973  0  0.993967  0
H  H55  1  0.52417948  0.13126244  0.73855819  1  0.056146  0  0.10938  0.12425  0  0.986018  0
H  H56  1  0.32745163  0.13024126  0.78680073  1  0.065214  0  0.102949  0.11351  0  1.020401  0
H  H57  1  0.26788348  0.00097816  0.69467698  1  0.100174  0  0.106496  0.111209  0  0.992996  0
H  H58  1  0.14552555  0.41219627  0.54381660  1  0.107837  0  0.106644  0.127469  0  1.023127  0
H  H59  1  0.01084200  0.34854868  0.51159772  1  0.065468  0  0.095616  0.09882  0  1.028607  0
H  H60  1  0.91046755  0.41975387  0.35933484  1  0.093939  0  0.108674  0.130168  0  0.998707  0
H  H61  1  0.82690786  0.34938769  0.38008506  1  0.022112  0  0.092188  0.130992  0  0.994435  0
H  H62  1  0.86790838  0.28109545  0.39629057  1  0.054397  0  0.096904  0.139523  0  0.975436  0
H  H63  1  0.86425002  0.35846270  0.46430979  1  0.018779  0  0.086423  0.122539  0  1.033557  0
H  H64  1  0.52108815  0.80778249  0.87238332  1  0.028674  0  0.091883  0.124  0  1.000003  0
H  H65  1  0.46095498  0.72199817  0.84572693  1  0.036185  0  0.095237  0.131413  0  0.992516  0
H  H66  1  0.54310656  0.72488382  0.82807511  1  0.048043  0  0.096581  0.136111  0  0.994179  0
H  H67  1  0.11676986  0.34427593  0.00419437  1  0.039347  0  0.094233  0.131625  0  0.993271  0
H  H68  1  0.03110426  0.27991999  0.97874471  1  0.040728  0  0.09414  0.128267  0  0.990675  0
H  H69  1  0.02338940  0.35720018  0.96570902  1  0.045496  0  0.095898  0.13193  0  0.987214  0
H  H70  1  0.08750270  0.34206102  0.64766099  1  0.125676  0  0.1074  0.129961  0  1.018182  0
H  H71  1  0.10526753  0.21615476  0.59094244  1  0.062742  0  0.100445  0.103097  0  0.997038  0
H  H72  1  0.85645796  0.12261253  0.47535892  1  0.131509  0  0.105664  0.131278  0  1.023322  0
H  H73  1  0.94318995  0.04525998  0.46128561  1  0.031428  0  0.09341  0.127917  0  0.999452  0
H  H74  1  0.02898852  0.07257732  0.53828301  1  0.043454  0  0.092613  0.126789  0  1.004306  0
H  H75  1  0.03394629  0.08811165  0.47198633  1  0.03311  0  0.095373  0.131337  0  0.987659  0
H  H76  1  0.07098587  0.58084258  0.85730275  1  0.084097  0  0.105698  0.118892  0  1.031551  0
H  H77  1  0.06572348  0.64706287  0.96969652  1  0.069883  0  0.102188  0.104681  0  0.991985  0
H  H78  1  0.81465251  0.58168461  0.87307435  1  0.075221  0  0.106072  0.123604  0  1.021246  0
H  H79  1  0.58324605  0.12860946  0.50599649  1  0.123981  0  0.107292  0.128996  0  1.013702  0
H  H80  1  0.49235911  0.11991349  0.55761867  1  0.051859  0  0.100026  0.101982  0  1.000506  0
H  H81  1  0.57037898  0.35291338  0.69744091  1  0.109326  0  0.106429  0.129651  0  1.010874  0
H  H82  1  0.43538174  0.16995160  0.63298716  1  0.053651  0  0.089131  0.124933  0  1.008993  0
H  H83  1  0.42675412  0.26042620  0.65136829  1  0.056188  0  0.093208  0.13561  0  0.997008  0
H  H84  1  0.49831590  0.24570447  0.71390177  1  0.017433  0  0.089442  0.12639  0  1.010179  0
H  H85  1  0.58388822  0.58836778  0.47571342  1  0.114469  0  0.106518  0.129357  0  1.011882  0
H  H86  1  0.48741098  0.64167280  0.62377268  1  0.066768  0  0.096752  0.100921  0  1.028451  0
H  H87  1  0.56541075  0.57496421  0.67797846  1  0.112691  0  0.109326  0.130455  0  1.005629  0
H  H88  1  0.49133819  0.66150061  0.47459954  1  0.05173  0  0.090461  0.12906  0  1.006145  0
H  H89  1  0.49657899  0.71987596  0.55718776  1  0.046182  0  0.093122  0.132575  0  0.983799  0
H  H90  1  0.42100456  0.63859103  0.50011004  1  0.012017  0  0.086259  0.122728  0  1.032312  0
H  H91  1  0.59781405  0.13626931  0.30642465  1  0.082494  0  0.108395  0.121012  0  1.011587  0
H  H92  1  0.52110208  0.13571818  0.19593404  1  0.05933  0  0.101507  0.102381  0  0.998385  0
H  H93  1  0.59571165  0.37192527  0.29254110  1  0.112329  0  0.109824  0.136678  0  1.006551  0
H  H94  1  0.67983709  0.48002563  0.90809153  1  0.10277  0  0.10683  0.113131  0  0.986661  0
H  H95  1  0.63756573  0.54126129  0.00060064  1  0.06843  0  0.09897  0.107137  0  1.055147  0
H  H96  1  0.55770336  0.68579689  0.91757922  1  0.08294  0  0.104385  0.114984  0  1.019013  0
H  H97  1  0.60000476  0.62200616  0.82403417  1  0.086393  0  0.106022  0.107334  0  1.009202  0
H  H98  1  0.62822419  0.63426194  0.09338740  1  0.051547  0  0.105505  0.07499  0  0.987756  0
H  H99  1  0.53785246  0.56874662  0.02802098  1  0.092986  0  0.104981  0.073302  0  1.000884  0
H  H100  1  0.50933865  0.51864370  0.28110730  1  0.105296  0  0.103143  0.10668  0  1.020591  0
H  H101  1  0.48159581  0.56699780  0.19810020  1  0.084622  0  0.098166  0.106014  0  1.062452  0
H  H102  1  0.72761016  0.65712978  0.27759371  1  0.058677  0  0.104535  0.116212  0  0.996244  0
H  H103  1  0.75442712  0.60669289  0.36021332  1  0.095338  0  0.104812  0.108676  0  1.002502  0
H  H104  1  0.21203793  0.43637051  0.78854919  1  0.121763  0  0.103093  0.10382  0  1.009977  0
H  H105  1  0.33530444  0.46649747  0.89198787  1  0.067689  0  0.100312  0.110919  0  1.026755  0
H  H106  1  0.32969644  0.69372385  0.97737885  1  0.068217  0  0.102482  0.111955  0  1.02142  0
H  H107  1  0.20969172  0.66263338  0.87226612  1  0.100334  0  0.107863  0.112383  0  0.988817  0
H  H108  1  0.41065947  0.69079412  0.07749129  1  0.065412  0  0.107575  0.080067  0  0.969932  0
H  H109  1  0.45291130  0.69927877  0.02419782  1  0.077523  0  0.107614  0.076217  0  0.989257  0
H  H110  1  0.48569359  0.66389908  0.17163700  1  0.071563  0  0.106909  0.077796  0  0.985712  0
H  H111  1  0.48547684  0.57701495  0.10912042  1  0.061106  0  0.103085  0.075233  0  1.005016  0
H  H112  1  0.63044440  0.75224810  0.18056940  1  0.071574  0  0.107148  0.077619  0  0.987156  0
H  H113  1  0.57986807  0.77338056  0.11285070  1  0.053428  0  0.106436  0.078378  0  0.97589  0
H  H114  1  0.53826973  0.99876545  0.35522115  1  0.104537  0  0.105997  0.109713  0  0.993807  0
H  H115  1  0.47581392  0.86874271  0.26144470  1  0.056114  0  0.109382  0.124256  0  0.985975  0
H  H116  1  0.67253857  0.86975622  0.21319831  1  0.065535  0  0.102919  0.113407  0  1.020226  0
H  H117  1  0.73211435  0.99901657  0.30532549  1  0.100395  0  0.106433  0.111153  0  0.992918  0
H  H118  1  0.85448505  0.58780520  0.45618010  1  0.108109  0  0.106606  0.127472  0  1.02312  0
H  H119  1  0.98916848  0.65145491  0.48840564  1  0.065706  0  0.095603  0.098775  0  1.028607  0
H  H120  1  0.08953496  0.58024748  0.64066817  1  0.093993  0  0.108661  0.130141  0  0.998692  0
H  H121  1  0.17309854  0.65061364  0.61992125  1  0.021997  0  0.092233  0.131066  0  0.994463  0
H  H122  1  0.13209916  0.71890807  0.60371733  1  0.054325  0  0.096906  0.139503  0  0.975532  0
H  H123  1  0.13576055  0.64154358  0.53569839  1  0.019454  0  0.086411  0.122519  0  1.033542  0
H  H124  1  0.47892220  0.19221234  0.12761714  1  0.028863  0  0.091864  0.124022  0  0.999991  0
H  H125  1  0.53905158  0.27799503  0.15427049  1  0.035919  0  0.095218  0.131415  0  0.992582  0
H  H126  1  0.45689857  0.27511045  0.17192395  1  0.048346  0  0.09653  0.136059  0  0.99405  0
H  H127  1  0.88322725  0.65572428  0.99580866  1  0.039608  0  0.094258  0.131613  0  0.993175  0
H  H128  1  0.96889480  0.72008349  0.02126266  1  0.040672  0  0.094097  0.128234  0  0.990658  0
H  H129  1  0.97660954  0.64279624  0.03429062  1  0.045933  0  0.095902  0.131914  0  0.987152  0
C  C130  1  0.10297181  0.76016859  0.45511744  1  0.418088  0  0.099189  0.141537  0  4.059333  0
C  C131  1  0.03844655  0.69854807  0.40748610  1  0.368255  0  0.09448  0.124129  0  4.051294  0
C  C132  1  0.96164504  0.70569494  0.38939262  1  -0.048808  0  -0.090348  -0.152725  0  3.998715  0
C  C133  1  0.95318912  0.77561872  0.42098278  1  -0.054311  0  -0.095009  -0.150489  0  3.993319  0
C  C134  1  0.01770894  0.83827118  0.46932760  1  -0.00302  0  -0.009562  0.17171  0  3.993235  0
C  C135  1  0.09324036  0.83098355  0.48660694  1  0.00277  0  -0.092799  -0.219775  0  3.92207  0
C  C136  1  0.00239352  0.91203758  0.50130269  1  -0.068702  0  -0.234647  -0.411067  0  3.984039  0
C  C137  1  0.12705530  0.45622518  0.19396074  1  0.399433  0  0.099487  0.143936  0  4.055275  0
C  C138  1  0.05563767  0.45736706  0.19908259  1  0.389756  0  0.097299  0.129872  0  4.033413  0
C  C139  1  0.98437612  0.41992540  0.13969741  1  0.042553  0  -0.088146  -0.141781  0  3.988908  0
C  C140  1  0.98831943  0.38281049  0.07749295  1  -0.115698  0  -0.092118  -0.147653  0  3.982472  0
C  C141  1  0.05996662  0.38122496  0.07165867  1  0.020734  0  -0.007933  0.173058  0  3.992972  0
C  C142  1  0.13005712  0.41826617  0.13020641  1  0.022654  0  -0.091688  -0.220618  0  3.926865  0
C  C143  1  0.37747059  0.69111936  0.37347715  1  0.370159  0  0.100124  0.136934  0  4.077272  0
C  C144  1  0.37321010  0.75359377  0.42685931  1  0.409472  0  0.09643  0.127917  0  4.04864  0
C  C145  1  0.41973795  0.82350022  0.45261678  1  -0.014388  0  -0.090123  -0.149488  0  3.989565  0
C  C146  1  0.46972811  0.82705225  0.42348117  1  -0.046405  0  -0.094913  -0.150239  0  3.990328  0
C  C147  1  0.47488101  0.76449328  0.36991305  1  -0.010266  0  -0.007847  0.173129  0  3.982142  0
C  C148  1  0.42788320  0.69575340  0.34405779  1  0.000204  0  -0.090718  -0.215075  0  3.916329  0
C  C149  1  0.53171707  0.77287947  0.34175735  1  -0.052784  0  -0.239027  -0.410559  0  3.959458  0
C  C150  1  0.37858489  0.45285039  0.39132890  1  0.415544  0  0.097213  0.127321  0  4.046511  0
C  C151  1  0.37383841  0.44916079  0.44805570  1  0.387152  0  0.099858  0.141839  0  4.066113  0
C  C152  1  0.41856605  0.41214842  0.47934576  1  -0.018708  0  -0.092969  -0.223292  0  3.929963  0
C  C153  1  0.46738017  0.37877515  0.45194733  1  0.017952  0  -0.007888  0.172079  0  3.979433  0
C  C154  1  0.47200428  0.38364213  0.39508838  1  -0.049338  0  -0.089736  -0.12992  0  3.949088  0
C  C155  1  0.42887329  0.42008406  0.36403854  1  0.012226  0  -0.084777  -0.136754  0  3.966789  0
C  C156  1  0.51705004  0.33765824  0.48183991  1  -0.049321  0  -0.242243  -0.406938  0  3.952529  0
C  C157  1  0.35944792  0.74457170  0.63824433  1  0.406059  0  0.09754  0.126027  0  4.05231  0
C  C158  1  0.40220542  0.81298655  0.69646319  1  0.017114  0  -0.087275  -0.141573  0  3.99048  0
C  C159  1  0.44448431  0.81237525  0.75759597  1  -0.065693  0  -0.093082  -0.147918  0  3.98902  0
C  C160  1  0.44573719  0.74674458  0.76289331  1  0.037644  0  -0.0072  0.173398  0  3.979452  0
C  C161  1  0.40271915  0.67923381  0.70531715  1  -0.031165  0  -0.089166  -0.218748  0  3.909454  0
C  C162  1  0.35949102  0.67899697  0.64286778  1  0.377983  0  0.098051  0.129992  0  4.077202  0
C  C163  1  0.33492697  0.49272660  0.19575039  1  1.537445  0  0.186123  0.540603  0  4.254563  0
C  C164  1  0.35783778  0.45293935  0.13940263  1  -0.052864  0  -0.033829  -0.069765  0  4.020443  0
C  C165  1  0.34711409  0.47481097  0.08926436  1  -0.040354  0  -0.082301  -0.065405  0  3.999096  0
C  C166  1  0.37088997  0.44028314  0.03745296  1  -0.021675  0  -0.117302  -0.239494  0  4.025378  0
C  C167  1  0.40531914  0.38238284  0.03579065  1  0.402302  0  0.085628  0.271207  0  4.054975  0
C  C168  1  0.41525310  0.35922452  0.08516376  1  0.024551  0  -0.106119  -0.206635  0  4.005855  0
C  C169  1  0.39183948  0.39447853  0.13658442  1  -0.048281  0  -0.082372  -0.069038  0  4.001182  0
C  C170  1  0.43169434  0.37257613  0.94209138  1  0.40456  0  -0.06201  -0.025503  0  3.872865  0
C  C171  1  0.35192090  0.47243021  0.62699165  1  1.526959  0  0.190285  0.546869  0  4.241158  0
C  C172  1  0.36664899  0.44042405  0.67427612  1  0.012436  0  -0.033936  -0.066399  0  4.016467  0
C  C173  1  0.44311280  0.45078350  0.71985318  1  -0.046845  0  -0.081789  -0.060782  0  3.977478  0
C  C174  1  0.45860203  0.42333258  0.76623798  1  -0.08033  0  -0.114107  -0.230813  0  4.014604  0
C  C175  1  0.39649474  0.38495505  0.76695733  1  0.434611  0  0.083957  0.264599  0  4.064008  0
C  C176  1  0.31957523  0.37322784  0.72088804  1  -0.003116  0  -0.107826  -0.211537  0  4.023488  0
C  C177  1  0.30501918  0.40105942  0.67516524  1  -0.043182  0  -0.083331  -0.069265  0  4.001719  0
C  C178  1  0.79643481  0.45209651  0.17594174  1  -0.036594  0  -0.031528  -0.064236  0  4.016888  0
C  C179  1  0.76108123  0.50746565  0.16996665  1  -0.125609  0  -0.081727  -0.063229  0  3.994199  0
C  C180  1  0.69327600  0.49101731  0.11218784  1  0.054426  0  -0.107578  -0.205267  0  3.994507  0
C  C181  1  0.66032106  0.41857730  0.05843184  1  0.419232  0  0.084553  0.268178  0  4.050728  0
C  C182  1  0.69480560  0.36265822  0.06381676  1  -0.050685  0  -0.116248  -0.235431  0  4.02876  0
C  C183  1  0.76224643  0.37988861  0.12267166  1  -0.003674  0  -0.081215  -0.062264  0  3.998365  0
C  C184  1  0.55495872  0.33289784  0.95082788  1  0.401903  0  -0.061304  -0.022718  0  3.86523  0
C  C185  1  0.47477209  0.33022324  0.90140537  1  0.065315  0  -0.019887  0.045925  0  3.826869  0
C  C186  1  0.48258534  0.36474524  0.85771557  1  0.41466  0  -0.061103  -0.02361  0  3.847909  0
C  C187  1  0.42728702  0.25020000  0.85525532  1  0.411412  0  -0.061467  -0.025957  0  3.861743  0
C  C188  1  0.32264702  0.91598991  0.60949084  1  1.511317  0  0.185884  0.54272  0  4.24418  0
C  C189  1  0.36032761  0.99346926  0.66352451  1  0.051177  0  -0.034587  -0.067872  0  4.029845  0
C  C190  1  0.43296220  0.03028383  0.67617703  1  -0.070666  0  -0.083631  -0.072861  0  4.003688  0
C  C191  1  0.46778370  0.10222866  0.72810569  1  -0.002116  0  -0.104716  -0.210188  0  4.011586  0
C  C192  1  0.42969880  0.13899428  0.76786229  1  0.431474  0  0.085703  0.269551  0  4.054112  0
C  C193  1  0.35734132  0.10283807  0.75601171  1  -0.077544  0  -0.116139  -0.237299  0  4.030033  0
C  C194  1  0.32360471  0.03039839  0.70422574  1  -0.033491  0  -0.083273  -0.062497  0  4.001881  0
C  C195  1  0.03619532  0.45423588  0.41819055  1  0.398137  0  0.100292  0.141507  0  4.065482  0
C  C196  1  0.10215888  0.45199952  0.46946861  1  0.373708  0  0.097196  0.128436  0  4.042025  0
C  C197  1  0.09449772  0.41359670  0.50437496  1  -0.048793  0  -0.089445  -0.148608  0  3.985719  0
C  C198  1  0.01964180  0.37885978  0.48579525  1  0.016193  0  -0.093581  -0.142197  0  3.971381  0
C  C199  1  0.95244774  0.38047747  0.43400066  1  0.021135  0  -0.00622  0.175901  0  3.978381  0
C  C200  1  0.96040368  0.41822818  0.39964368  1  0.005865  0  -0.089502  -0.218905  0  3.92634  0
C  C201  1  0.87361323  0.34039781  0.41757774  1  -0.04172  0  -0.240149  -0.4064  0  3.947453  0
C  C202  1  0.87191504  0.46937369  0.23513533  1  1.524074  0  0.186597  0.545294  0  4.234946  0
C  C203  1  0.49527606  0.75082941  0.83103412  1  -0.053346  0  -0.234318  -0.409615  0  3.965207  0
C  C204  1  0.05807744  0.33858494  0.00155654  1  -0.052225  0  -0.23353  -0.40987  0  3.978427  0
C  C205  1  0.89702136  0.23983162  0.54488438  1  0.417061  0  0.09929  0.141673  0  4.059144  0
C  C206  1  0.96154542  0.30145163  0.59251221  1  0.367526  0  0.094213  0.123805  0  4.051439  0
C  C207  1  0.03834893  0.29430587  0.61060587  1  -0.048773  0  -0.090352  -0.152741  0  3.998557  0
C  C208  1  0.04679980  0.22438208  0.57901374  1  -0.054024  0  -0.094862  -0.150183  0  3.993311  0
C  C209  1  0.98228244  0.16173067  0.53067344  1  -0.002741  0  -0.009726  0.171616  0  3.993219  0
C  C210  1  0.90675444  0.16901446  0.51339540  1  0.00294  0  -0.092689  -0.219724  0  3.921921  0
C  C211  1  0.99760304  0.08796265  0.49869933  1  -0.068569  0  -0.234579  -0.410924  0  3.983744  0
C  C212  1  0.87294163  0.54378441  0.80604069  1  0.398801  0  0.099553  0.144112  0  4.054965  0
C  C213  1  0.94436150  0.54264252  0.80091994  1  0.390586  0  0.09738  0.129885  0  4.033424  0
C  C214  1  0.01562191  0.58008199  0.86030353  1  0.042827  0  -0.088125  -0.141632  0  3.988927  0
C  C215  1  0.01167764  0.61719964  0.92250914  1  -0.115529  0  -0.09204  -0.147512  0  3.982403  0
C  C216  1  0.94003125  0.61878405  0.92834452  1  0.020908  0  -0.008037  0.172815  0  3.992997  0
C  C217  1  0.86994138  0.58174288  0.86979404  1  0.022703  0  -0.091793  -0.220647  0  3.926798  0
C  C218  1  0.62253263  0.30888471  0.62652836  1  0.370128  0  0.10021  0.137219  0  4.077329  0
C  C219  1  0.62679169  0.24640919  0.57314577  1  0.409531  0  0.096374  0.127783  0  4.04891  0
C  C220  1  0.58026790  0.17650282  0.54738452  1  -0.015155  0  -0.090121  -0.149608  0  3.989727  0
C  C221  1  0.53027668  0.17294694  0.57651921  1  -0.046142  0  -0.094851  -0.15  0  3.990299  0
C  C222  1  0.52512722  0.23550426  0.63008988  1  -0.011195  0  -0.007949  0.173014  0  3.982282  0
C  C223  1  0.57211959  0.30424686  0.65594448  1  0.000522  0  -0.090752  -0.215291  0  3.916536  0
C  C224  1  0.46828996  0.22711368  0.65824398  1  -0.052644  0  -0.238938  -0.410391  0  3.9593  0
C  C225  1  0.62141866  0.54714827  0.60866963  1  0.415307  0  0.097158  0.127094  0  4.046967  0
C  C226  1  0.62615781  0.55083350  0.55193726  1  0.38642  0  0.099859  0.141747  0  4.066088  0
C  C227  1  0.58143203  0.58784643  0.52064713  1  -0.019529  0  -0.093004  -0.223211  0  3.930108  0
C  C228  1  0.53261976  0.62122026  0.54804551  1  0.017939  0  -0.007877  0.171944  0  3.979522  0
C  C229  1  0.52800446  0.61636313  0.60491254  1  -0.049871  0  -0.089716  -0.129801  0  3.948851  0
C  C230  1  0.57113378  0.57992121  0.63596102  1  0.011554  0  -0.084804  -0.136705  0  3.966713  0
C  C231  1  0.48295002  0.66234206  0.51815774  1  -0.049033  0  -0.242245  -0.406848  0  3.952604  0
C  C232  1  0.64056023  0.25542533  0.36175543  1  0.406158  0  0.097531  0.126116  0  4.052392  0
C  C233  1  0.59780497  0.18701048  0.30353768  1  0.016707  0  -0.087282  -0.141547  0  3.990269  0
C  C234  1  0.55553029  0.18762070  0.24240537  1  -0.065151  0  -0.093148  -0.14803  0  3.988813  0
C  C235  1  0.55427490  0.25325246  0.23710766  1  0.038102  0  -0.007149  0.173502  0  3.979299  0
C  C236  1  0.59728804  0.32076377  0.29468168  1  -0.031457  0  -0.089215  -0.218865  0  3.909584  0
C  C237  1  0.64051588  0.32099952  0.35713055  1  0.378024  0  0.098068  0.130059  0  4.077094  0
C  C238  1  0.66507101  0.50727255  0.80425041  1  1.537181  0  0.186165  0.540791  0  4.254214  0
C  C239  1  0.64216128  0.54705761  0.86059810  1  -0.052927  0  -0.033895  -0.069887  0  4.020675  0
C  C240  1  0.65288530  0.52518927  0.91073770  1  -0.040301  0  -0.082285  -0.065317  0  3.999022  0
C  C241  1  0.62910592  0.55971873  0.96254905  1  -0.021764  0  -0.117315  -0.239658  0  4.025503  0
C  C242  1  0.59467304  0.61761357  0.96420733  1  0.402385  0  0.085759  0.27147  0  4.054828  0
C  C243  1  0.58474108  0.64077081  0.91483275  1  0.024602  0  -0.106139  -0.206656  0  4.005709  0
C  C244  1  0.60816129  0.60551844  0.86341600  1  -0.04812  0  -0.082444  -0.06908  0  4.001324  0
C  C245  1  0.56830005  0.62742414  0.05790663  1  0.404961  0  -0.062039  -0.02554  0  3.872743  0
C  C246  1  0.64808475  0.52757009  0.37300899  1  1.52732  0  0.190327  0.546909  0  4.241293  0
C  C247  1  0.63335130  0.55957514  0.32572287  1  0.012632  0  -0.033959  -0.066477  0  4.016535  0
C  C248  1  0.55688844  0.54921513  0.28014716  1  -0.046745  0  -0.08177  -0.060716  0  3.977343  0
C  C249  1  0.54139732  0.57666935  0.23376175  1  -0.080416  0  -0.114059  -0.230799  0  4.014503  0
C  C250  1  0.60350524  0.61504521  0.23304366  1  0.434381  0  0.084006  0.264704  0  4.063882  0
C  C251  1  0.68042648  0.62677244  0.27911180  1  -0.003072  0  -0.107808  -0.211459  0  4.023469  0
C  C252  1  0.69498166  0.59893759  0.32483226  1  -0.042993  0  -0.083377  -0.069314  0  4.001627  0
C  C253  1  0.20356569  0.54790543  0.82405708  1  -0.037569  0  -0.031464  -0.064058  0  4.016556  0
C  C254  1  0.23891042  0.49253077  0.83002991  1  -0.1244  0  -0.081777  -0.063439  0  3.993832  0
C  C255  1  0.30671511  0.50897959  0.88781379  1  0.054388  0  -0.107517  -0.205062  0  3.994368  0
C  C256  1  0.33967303  0.58141364  0.94156384  1  0.419042  0  0.084567  0.268051  0  4.050754  0
C  C257  1  0.30519543  0.63733936  0.93617933  1  -0.049969  0  -0.11623  -0.235206  0  4.028721  0
C  C258  1  0.23775860  0.62011118  0.87732523  1  -0.003907  0  -0.081278  -0.062437  0  3.99846  0
C  C259  1  0.44503162  0.66709801  0.04916933  1  0.402216  0  -0.06139  -0.022961  0  3.865139  0
C  C260  1  0.52522323  0.66977646  0.09859481  1  0.064506  0  -0.019863  0.045799  0  3.826717  0
C  C261  1  0.51741169  0.63525663  0.14228638  1  0.414715  0  -0.061146  -0.023544  0  3.847983  0
C  C262  1  0.57270239  0.74980077  0.14474428  1  0.407226  0  -0.06147  -0.024632  0  3.8609  0
C  C263  1  0.67735811  0.08401088  0.39051445  1  1.51053  0  0.185776  0.542552  0  4.244373  0
C  C264  1  0.63967016  0.00653149  0.33648061  1  0.051449  0  -0.034679  -0.067984  0  4.029816  0
C  C265  1  0.56703548  0.96971640  0.32382535  1  -0.070354  0  -0.083599  -0.072798  0  4.003609  0
C  C266  1  0.53221321  0.89777486  0.27189641  1  -0.002127  0  -0.104736  -0.210261  0  4.01198  0
C  C267  1  0.57029167  0.86100815  0.23213616  1  0.431263  0  0.085778  0.269679  0  4.054471  0
C  C268  1  0.64264947  0.89716160  0.24398833  1  -0.077567  0  -0.116084  -0.237074  0  4.030196  0
C  C269  1  0.67639220  0.96959908  0.29577663  1  -0.033771  0  -0.083183  -0.062443  0  4.001965  0
C  C270  1  0.96380802  0.54576609  0.58180789  1  0.398185  0  0.100305  0.141504  0  4.065422  0
C  C271  1  0.89784436  0.54800192  0.53052791  1  0.37336  0  0.097221  0.128474  0  4.041859  0
C  C272  1  0.90551015  0.58640529  0.49562362  1  -0.049464  0  -0.089451  -0.148636  0  3.985756  0
C  C273  1  0.98036741  0.62114327  0.51420751  1  0.016292  0  -0.093619  -0.142249  0  3.971324  0
C  C274  1  0.04756059  0.61952447  0.56600226  1  0.021119  0  -0.006162  0.175946  0  3.978455  0
C  C275  1  0.03959875  0.58177265  0.60035617  1  0.005815  0  -0.089454  -0.218829  0  3.92629  0
C  C276  1  0.12639339  0.65960628  0.58242798  1  -0.042379  0  -0.240205  -0.406423  0  3.947771  0
C  C277  1  0.12808732  0.53062447  0.76485886  1  1.523566  0  0.186603  0.545261  0  4.234951  0
C  C278  1  0.50473347  0.24916434  0.16896442  1  -0.054199  0  -0.234229  -0.409621  0  3.965057  0
C  C279  1  0.94191955  0.66141692  0.99844665  1  -0.052929  0  -0.233467  -0.409708  0  3.978154  0
N  N280  1  0.16802301  0.73457817  0.46174210  1  -0.703213  0  -0.234587  -0.212591  0  3.484405  0
N  N281  1  0.14471232  0.66194896  0.42152082  1  -0.189752  0  -0.108912  -0.010828  0  3.493486  0
N  N282  1  0.06765435  0.63881322  0.38825735  1  -0.704793  0  -0.229433  -0.211554  0  3.475271  0
N  N283  1  0.07386054  0.49848970  0.26762159  1  -0.709293  0  -0.229867  -0.201785  0  3.477225  0
N  N284  1  0.15109434  0.52078612  0.30228112  1  -0.194155  0  -0.103582  -0.01382  0  3.449545  0
N  N285  1  0.18449339  0.49642609  0.25957436  1  -0.696664  0  -0.237702  -0.208662  0  3.505857  0
N  N286  1  0.32770548  0.63251049  0.36212822  1  -0.724368  0  -0.237328  -0.210498  0  3.514646  0
N  N287  1  0.29524409  0.65704025  0.40561785  1  -0.170397  0  -0.106995  -0.01253  0  3.485153  0
N  N288  1  0.32078142  0.72942009  0.44471455  1  -0.727285  0  -0.230495  -0.211076  0  3.472125  0
N  N289  1  0.32154879  0.48720110  0.46221987  1  -0.723369  0  -0.239357  -0.215009  0  3.504706  0
N  N290  1  0.29600608  0.51290607  0.41740271  1  -0.204255  0  -0.112778  -0.020276  0  3.483407  0
N  N291  1  0.32909373  0.49296394  0.37431815  1  -0.726901  0  -0.235393  -0.210469  0  3.496453  0
N  N292  1  0.16569120  0.49234340  0.47492992  1  -0.706017  0  -0.230723  -0.206862  0  3.474815  0
N  N293  1  0.14073586  0.51793679  0.43035658  1  -0.228377  0  -0.111242  -0.015791  0  3.495254  0
N  N294  1  0.06322662  0.49606068  0.39549323  1  -0.698755  0  -0.236924  -0.212909  0  3.501076  0
N  N295  1  0.31375686  0.62314465  0.57784485  1  -0.729781  0  -0.237055  -0.218306  0  3.516939  0
N  N296  1  0.28792976  0.65213309  0.53594928  1  -0.185899  0  -0.098254  -0.020646  0  3.428851  0
N  N297  1  0.31413831  0.72470489  0.57078226  1  -0.694817  0  -0.234646  -0.20742  0  3.513139  0
N  N298  1  0.83196906  0.26542205  0.53825812  1  -0.702768  0  -0.234612  -0.212671  0  3.484439  0
N  N299  1  0.85527866  0.33805128  0.57847780  1  -0.189635  0  -0.108841  -0.010659  0  3.493295  0
N  N300  1  0.93233678  0.36118756  0.61174111  1  -0.704371  0  -0.229354  -0.211471  0  3.47511  0
N  N301  1  0.92613972  0.50151770  0.73238046  1  -0.70993  0  -0.229838  -0.201853  0  3.477184  0
N  N302  1  0.84890661  0.47921964  0.69772011  1  -0.194073  0  -0.103582  -0.013705  0  3.449333  0
N  N303  1  0.81550562  0.50358077  0.74042627  1  -0.696752  0  -0.237787  -0.208882  0  3.505916  0
N  N304  1  0.67229425  0.36749304  0.63787475  1  -0.724593  0  -0.237339  -0.210556  0  3.514718  0
N  N305  1  0.70475656  0.34296441  0.59438329  1  -0.17  0  -0.106899  -0.012398  0  3.484892  0
N  N306  1  0.67921763  0.27058291  0.55528675  1  -0.72748  0  -0.230583  -0.211126  0  3.472032  0
N  N307  1  0.67845091  0.51279155  0.53777396  1  -0.722958  0  -0.239315  -0.214973  0  3.504403  0
N  N308  1  0.70399227  0.48708987  0.58259110  1  -0.203909  0  -0.112833  -0.020221  0  3.483477  0
N  N309  1  0.67090683  0.50703199  0.62567802  1  -0.726526  0  -0.235309  -0.210343  0  3.496661  0
N  N310  1  0.83431157  0.50765856  0.52506876  1  -0.705685  0  -0.230822  -0.206928  0  3.474703  0
N  N311  1  0.85926666  0.48206409  0.56963994  1  -0.228093  0  -0.111203  -0.015898  0  3.495066  0
N  N312  1  0.93677603  0.50394074  0.60450396  1  -0.698837  0  -0.236875  -0.212727  0  3.500805  0
N  N313  1  0.68624764  0.37685345  0.42215461  1  -0.729812  0  -0.237144  -0.218473  0  3.516827  0
N  N314  1  0.71206935  0.34786389  0.46404979  1  -0.186219  0  -0.098173  -0.020428  0  3.428707  0
N  N315  1  0.68586265  0.27529265  0.42921675  1  -0.694402  0  -0.234664  -0.207572  0  3.513293  0
O  O316  1  0.27928232  0.46008196  0.58517725  1  -1.165757  0  -0.342937  -0.543586  0  2.302412  0
O  O317  1  0.40651614  0.51011067  0.62781730  1  -1.183872  0  -0.319534  -0.550726  0  2.154688  0
O  O318  1  0.40520644  0.35721146  0.81138626  1  -1.086842  0  -0.18251  -0.208754  0  2.570609  0
O  O319  1  0.90341073  0.41974092  0.24091345  1  -1.173361  0  -0.330492  -0.547894  0  2.106468  0
O  O320  1  0.90694440  0.53835513  0.27858237  1  -1.170599  0  -0.342614  -0.546377  0  2.265986  0
O  O321  1  0.59457104  0.40743322  0.00244357  1  -1.08528  0  -0.181481  -0.202525  0  2.548526  0
O  O322  1  0.26179057  0.88147068  0.60411456  1  -1.174669  0  -0.327661  -0.548126  0  2.146355  0
O  O323  1  0.35458816  0.88379621  0.56885681  1  -1.171113  0  -0.341576  -0.547601  0  2.243133  0
O  O324  1  0.46735702  0.21016603  0.81709693  1  -1.081033  0  -0.181315  -0.205492  0  2.549474  0
O  O325  1  0.43115343  0.34489893  0.98774939  1  -1.091555  0  -0.181947  -0.201638  0  2.568806  0
O  O326  1  0.30431863  0.54477979  0.19888969  1  -1.175234  0  -0.334328  -0.553552  0  2.092647  0
O  O327  1  0.34855299  0.46959588  0.24128856  1  -1.171541  0  -0.345259  -0.544895  0  2.294489  0
O  O328  1  0.72072227  0.53991402  0.41481639  1  -1.165784  0  -0.342957  -0.543518  0  2.302553  0
O  O329  1  0.59349273  0.48989343  0.37218870  1  -1.184377  0  -0.319549  -0.550797  0  2.154724  0
O  O330  1  0.59479057  0.64278824  0.18861403  1  -1.086889  0  -0.182586  -0.20892  0  2.57049  0
O  O331  1  0.09659485  0.58026492  0.75908376  1  -1.172948  0  -0.330531  -0.547962  0  2.106252  0
O  O332  1  0.09305061  0.46165121  0.72141346  1  -1.170446  0  -0.342639  -0.546339  0  2.266232  0
O  O333  1  0.40542479  0.59256210  0.99755471  1  -1.085468  0  -0.181378  -0.202331  0  2.548407  0
O  O334  1  0.73821116  0.11852574  0.39588637  1  -1.17425  0  -0.327612  -0.548042  0  2.146348  0
O  O335  1  0.64541648  0.11620461  0.43114540  1  -1.171234  0  -0.341526  -0.547507  0  2.243271  0
O  O336  1  0.53262944  0.78983806  0.18289880  1  -1.081215  0  -0.181365  -0.205462  0  2.548578  0
O  O337  1  0.56883247  0.65509694  0.01224394  1  -1.091632  0  -0.181909  -0.201528  0  2.56853  0
O  O338  1  0.69567595  0.45521330  0.80111116  1  -1.175066  0  -0.334344  -0.553685  0  2.092354  0
O  O339  1  0.65144863  0.53040218  0.75871295  1  -1.171384  0  -0.34522  -0.544846  0  2.294374  0
