# generated using pymatgen
data_ZnH13C20(NO3)2
_symmetry_space_group_name_H-M   'P 1'
_cell_length_a   12.26637829
_cell_length_b   15.70496224
_cell_length_c   26.64429602
_cell_angle_alpha   90.00001875
_cell_angle_beta   89.99994662
_cell_angle_gamma   96.13240975
_symmetry_Int_Tables_number   1
_chemical_formula_structural   ZnH13C20(NO3)2
_chemical_formula_sum   'Zn8 H104 C160 N16 O48'
_cell_volume   5103.46557213
_cell_formula_units_Z   8
loop_
 _symmetry_equiv_pos_site_id
 _symmetry_equiv_pos_as_xyz
  1  'x, y, z'
loop_
 _atom_site_type_symbol
 _atom_site_label
 _atom_site_symmetry_multiplicity
 _atom_site_fract_x
 _atom_site_fract_y
 _atom_site_fract_z
 _atom_site_occupancy
 _atom_site_pbe_bader_charge
 _atom_site_pbe_bader_spin_density
 _atom_site_pbe_cm5_charge
 _atom_site_pbe_ddec_charge
 _atom_site_pbe_ddec_spin_density
 _atom_site_pbe_ddec_sum_bond_order
 _atom_site_pbe_magmom
Zn  Zn0  1  0.11816775  0.59027294  0.22837612  1  1.274025  0  0.689638  0.828017  0  2.404821  0
Zn  Zn1  1  0.88183305  0.90972757  0.72837606  1  1.274018  0  0.68964  0.827983  0  2.404903  0
Zn  Zn2  1  0.88183274  0.40972718  0.77162392  1  1.274029  0  0.689644  0.828017  0  2.404843  0
Zn  Zn3  1  0.11816744  0.09027255  0.27162397  1  1.274021  0  0.689671  0.828044  0  2.404837  0
Zn  Zn4  1  0.26641671  0.77704267  0.25103273  1  1.299938  0  0.698435  0.866805  0  2.360506  0
Zn  Zn5  1  0.73358323  0.72295785  0.75103308  1  1.299932  0  0.698409  0.86675  0  2.360485  0
Zn  Zn6  1  0.73358296  0.22295744  0.74896692  1  1.299939  0  0.698455  0.866797  0  2.36052  0
Zn  Zn7  1  0.26641735  0.27704291  0.24896695  1  1.299931  0  0.698442  0.866815  0  2.360475  0
H  H8  1  0.87197564  0.19129577  0.20244579  1  0.555246  0  0.314311  0.301116  0  0.982167  0
H  H9  1  0.12802486  0.30870521  0.70244641  1  0.555252  0  0.314293  0.301087  0  0.982215  0
H  H10  1  0.12802485  0.80870435  0.79755349  1  0.555293  0  0.314316  0.301059  0  0.982245  0
H  H11  1  0.87197654  0.69129555  0.29755512  1  0.555233  0  0.314334  0.301095  0  0.982145  0
H  H12  1  0.52433511  0.17104084  0.20933927  1  0.527822  0  0.32202  0.301648  0  0.945896  0
H  H13  1  0.47566601  0.32895886  0.70934012  1  0.527803  0  0.322009  0.301615  0  0.945916  0
H  H14  1  0.47566692  0.82895864  0.79066001  1  0.52779  0  0.322025  0.30164  0  0.945926  0
H  H15  1  0.52433448  0.67104126  0.29066066  1  0.527811  0  0.322016  0.301635  0  0.945936  0
H  H16  1  0.73843459  0.93844692  0.87331968  1  0.086243  0  0.104689  0.104906  0  1.025839  0
H  H17  1  0.26156583  0.56155301  0.37332043  1  0.086249  0  0.10469  0.104905  0  1.025834  0
H  H18  1  0.26156526  0.06155448  0.12667960  1  0.086271  0  0.104675  0.104872  0  1.025873  0
H  H19  1  0.73843457  0.43844646  0.62667998  1  0.086259  0  0.10469  0.104921  0  1.025854  0
H  H20  1  0.70231663  0.95103712  0.96510294  1  0.094976  0  0.111499  0.127495  0  0.977959  0
H  H21  1  0.29768289  0.54896348  0.46510329  1  0.094979  0  0.111506  0.127523  0  0.977937  0
H  H22  1  0.29768314  0.04896364  0.03489672  1  0.094983  0  0.111507  0.127495  0  0.977966  0
H  H23  1  0.70231588  0.45103600  0.53489712  1  0.094971  0  0.111503  0.127514  0  0.977936  0
H  H24  1  0.99955611  0.83769145  0.99709620  1  0.050076  0  0.105897  0.122216  0  1.006015  0
H  H25  1  0.00044317  0.66230789  0.49709633  1  0.050039  0  0.105889  0.12221  0  1.006028  0
H  H26  1  0.00044167  0.16230675  0.00290345  1  0.050026  0  0.105903  0.122228  0  1.006015  0
H  H27  1  0.99955741  0.33769287  0.50290333  1  0.050037  0  0.105886  0.122197  0  1.00605  0
H  H28  1  0.03553702  0.82696585  0.90541112  1  0.102068  0  0.105114  0.106172  0  0.992926  0
H  H29  1  0.96446325  0.67303345  0.40541083  1  0.10207  0  0.105098  0.106138  0  0.992943  0
H  H30  1  0.96446175  0.17303363  0.09458891  1  0.102053  0  0.105105  0.106154  0  0.992939  0
H  H31  1  0.03553733  0.32696731  0.59458845  1  0.102053  0  0.105104  0.106141  0  0.992934  0
H  H32  1  0.81451957  0.74210143  0.05299023  1  0.085765  0  0.105093  0.116917  0  1.036092  0
H  H33  1  0.18547977  0.75789773  0.55299006  1  0.085759  0  0.105077  0.116916  0  1.036114  0
H  H34  1  0.18548065  0.25789677  0.94700981  1  0.085798  0  0.105074  0.116897  0  1.036158  0
H  H35  1  0.81451900  0.24210175  0.44700922  1  0.085763  0  0.105083  0.116915  0  1.036136  0
H  H36  1  0.91551553  0.67477543  0.12181018  1  0.108313  0  0.109202  0.117141  0  0.989765  0
H  H37  1  0.08448304  0.82522504  0.62180895  1  0.108314  0  0.10919  0.117147  0  0.989799  0
H  H38  1  0.08448415  0.32522469  0.87819060  1  0.108328  0  0.109189  0.117122  0  0.989848  0
H  H39  1  0.91551664  0.17477508  0.37819071  1  0.108315  0  0.109192  0.11715  0  0.989795  0
H  H40  1  0.07113658  0.92305360  0.16371917  1  0.103369  0  0.103293  0.105545  0  1.018725  0
H  H41  1  0.92886517  0.57694689  0.66372015  1  0.10344  0  0.103274  0.105515  0  1.018764  0
H  H42  1  0.92886319  0.07694716  0.83628011  1  0.103433  0  0.103272  0.105529  0  1.018779  0
H  H43  1  0.07113696  0.42305323  0.33628063  1  0.103449  0  0.103293  0.10555  0  1.018766  0
H  H44  1  0.96581554  0.99054810  0.09668888  1  0.133913  0  0.10435  0.121825  0  1.037963  0
H  H45  1  0.03418453  0.50945108  0.59668985  1  0.133907  0  0.104344  0.121819  0  1.037939  0
H  H46  1  0.03418151  0.00945074  0.90331078  1  0.133905  0  0.104316  0.121759  0  1.037972  0
H  H47  1  0.96581506  0.49054840  0.40331055  1  0.13391  0  0.104353  0.121824  0  1.037949  0
H  H48  1  0.83180354  0.65323060  0.89711760  1  0.073155  0  0.102924  0.102086  0  1.020025  0
H  H49  1  0.16819529  0.84676998  0.39711806  1  0.07314  0  0.102928  0.102119  0  1.02  0
H  H50  1  0.16819541  0.34677016  0.10288281  1  0.073117  0  0.102967  0.102083  0  1.020036  0
H  H51  1  0.83180365  0.15323078  0.60288197  1  0.073153  0  0.102929  0.102098  0  1.020037  0
H  H52  1  0.83085436  0.59480826  0.98440945  1  0.072009  0  0.109248  0.125974  0  0.980301  0
H  H53  1  0.16914430  0.90519235  0.48440992  1  0.071985  0  0.109258  0.126009  0  0.980261  0
H  H54  1  0.16914386  0.40519314  0.01559058  1  0.072085  0  0.109284  0.12604  0  0.980365  0
H  H55  1  0.83085456  0.09480777  0.51559011  1  0.072012  0  0.109248  0.12598  0  0.98023  0
H  H56  1  0.51184441  0.67901668  0.00857703  1  0.104271  0  0.104255  0.119532  0  1.010825  0
H  H57  1  0.48815510  0.82098310  0.50857637  1  0.104301  0  0.104235  0.119481  0  1.010798  0
H  H58  1  0.48815453  0.32098408  0.99142301  1  0.104307  0  0.104246  0.119489  0  1.010805  0
H  H59  1  0.51184449  0.17901637  0.49142366  1  0.104288  0  0.104246  0.119498  0  1.010792  0
H  H60  1  0.51349913  0.73518781  0.92074900  1  0.086732  0  0.105894  0.10938  0  0.99022  0
H  H61  1  0.48649966  0.76481278  0.42074818  1  0.086746  0  0.105866  0.109327  0  0.990277  0
H  H62  1  0.48649982  0.26481295  0.07925141  1  0.086753  0  0.105857  0.109336  0  0.990274  0
H  H63  1  0.51349920  0.23518734  0.57925147  1  0.086723  0  0.105867  0.109347  0  0.990241  0
H  H64  1  0.67659742  0.71697134  0.11789458  1  0.107486  0  0.106075  0.12294  0  1.016174  0
H  H65  1  0.32340424  0.78302785  0.61789398  1  0.107578  0  0.106067  0.12291  0  1.0162  0
H  H66  1  0.32340299  0.28302814  0.88210546  1  0.107463  0  0.106069  0.122932  0  1.016203  0
H  H67  1  0.67659616  0.21697163  0.38210567  1  0.107492  0  0.106081  0.122962  0  1.016171  0
H  H68  1  0.52557419  0.72896714  0.17999946  1  0.104566  0  0.10586  0.111866  0  1.011411  0
H  H69  1  0.47442661  0.77103271  0.67999955  1  0.104566  0  0.105873  0.111891  0  1.011387  0
H  H70  1  0.47442621  0.27103234  0.82000057  1  0.104563  0  0.10586  0.111865  0  1.011409  0
H  H71  1  0.52557388  0.22896740  0.32000048  1  0.104564  0  0.105867  0.111897  0  1.011372  0
H  H72  1  0.34259880  0.50667351  0.11529970  1  0.107239  0  0.104033  0.108539  0  1.017103  0
H  H73  1  0.65740367  0.99332567  0.61529938  1  0.107181  0  0.104014  0.108527  0  1.017089  0
H  H74  1  0.65740233  0.49332533  0.88470108  1  0.107248  0  0.104035  0.10855  0  1.017099  0
H  H75  1  0.34259763  0.00667444  0.38470028  1  0.107194  0  0.104008  0.108528  0  1.017122  0
H  H76  1  0.49366335  0.49389252  0.05365158  1  0.074001  0  0.104501  0.11954  0  1.018376  0
H  H77  1  0.50633970  0.00610712  0.55365085  1  0.073945  0  0.104488  0.119532  0  1.018316  0
H  H78  1  0.50633786  0.50610696  0.94634883  1  0.073944  0  0.104496  0.119548  0  1.018329  0
H  H79  1  0.49366152  0.99389236  0.44634843  1  0.074014  0  0.104507  0.119549  0  1.018339  0
H  H80  1  0.90179428  0.52253359  0.26442456  1  0.186295  0  0.119113  0.103799  0  1.038689  0
H  H81  1  0.09820636  0.97746630  0.76442335  1  0.186283  0  0.119133  0.103814  0  1.038681  0
H  H82  1  0.09820613  0.47746589  0.73557585  1  0.186289  0  0.119115  0.103787  0  1.038696  0
H  H83  1  0.90179567  0.02253318  0.23557593  1  0.186324  0  0.119117  0.103788  0  1.038696  0
H  H84  1  0.77965708  0.38619519  0.26154290  1  0.099786  0  0.116704  0.139811  0  1.01155  0
H  H85  1  0.22034312  0.11380453  0.76154307  1  0.099891  0  0.116712  0.13982  0  1.011558  0
H  H86  1  0.22034414  0.61380429  0.73845675  1  0.099867  0  0.116708  0.139821  0  1.011583  0
H  H87  1  0.77965737  0.88619559  0.23845734  1  0.099801  0  0.116726  0.13985  0  1.011537  0
H  H88  1  0.02527342  0.28143263  0.17043688  1  0.154267  0  0.113533  0.136544  0  1.031423  0
H  H89  1  0.97472722  0.21856898  0.67043712  1  0.154211  0  0.113537  0.136568  0  1.031438  0
H  H90  1  0.97472797  0.71856813  0.82956240  1  0.154249  0  0.11353  0.136544  0  1.031438  0
H  H91  1  0.02527336  0.78143178  0.32956367  1  0.15423  0  0.113538  0.136552  0  1.031484  0
H  H92  1  0.13791840  0.42235557  0.17701013  1  0.095363  0  0.120188  0.09518  0  1.009555  0
H  H93  1  0.86208205  0.07764475  0.67700927  1  0.095362  0  0.120157  0.095157  0  1.009464  0
H  H94  1  0.86208217  0.57764519  0.82298990  1  0.095373  0  0.120175  0.095166  0  1.009497  0
H  H95  1  0.13791844  0.92235536  0.32299077  1  0.095336  0  0.120166  0.09516  0  1.009513  0
H  H96  1  0.35540791  0.09082457  0.19474593  1  0.174047  0  0.112988  0.140393  0  1.036795  0
H  H97  1  0.64459242  0.40917512  0.69474597  1  0.174034  0  0.112999  0.14042  0  1.036749  0
H  H98  1  0.64459339  0.90917555  0.80525410  1  0.173942  0  0.112992  0.140377  0  1.0368  0
H  H99  1  0.35540726  0.59082499  0.30525406  1  0.174075  0  0.112982  0.140399  0  1.036775  0
H  H100  1  0.23904423  0.95200252  0.20591841  1  0.119515  0  0.115333  0.086041  0  1.02447  0
H  H101  1  0.76095571  0.54799734  0.70591796  1  0.119465  0  0.115329  0.086037  0  1.024467  0
H  H102  1  0.76095545  0.04799760  0.79408162  1  0.119471  0  0.115328  0.086064  0  1.024464  0
H  H103  1  0.23904478  0.45200277  0.29408132  1  0.119479  0  0.115341  0.086075  0  1.024443  0
H  H104  1  0.49979521  0.83605662  0.26448397  1  0.156344  0  0.117377  0.098265  0  1.044913  0
H  H105  1  0.50020543  0.66394327  0.76448516  1  0.156314  0  0.117377  0.098282  0  1.044878  0
H  H106  1  0.50020438  0.16394286  0.73551531  1  0.156324  0  0.117386  0.098285  0  1.044889  0
H  H107  1  0.49979596  0.33605749  0.23551525  1  0.156329  0  0.117387  0.098312  0  1.044874  0
H  H108  1  0.62784154  0.96737629  0.25329395  1  0.114104  0  0.114239  0.137093  0  1.025105  0
H  H109  1  0.37215904  0.53262295  0.75329516  1  0.114101  0  0.114254  0.137087  0  1.025124  0
H  H110  1  0.37215878  0.03262254  0.74670496  1  0.114099  0  0.114244  0.137073  0  1.025142  0
H  H111  1  0.62784227  0.46737717  0.24670562  1  0.114085  0  0.114228  0.137063  0  1.02513  0
C  C112  1  0.91552998  0.88064188  0.82889700  1  1.554762  0  0.205015  0.574545  0  4.217416  0
C  C113  1  0.08446963  0.61935739  0.32889745  1  1.554782  0  0.205085  0.57478  0  4.217272  0
C  C114  1  0.08446870  0.11935696  0.17110266  1  1.554784  0  0.20509  0.57476  0  4.21737  0
C  C115  1  0.91553086  0.38064273  0.67110220  1  1.554758  0  0.20512  0.574835  0  4.217255  0
C  C116  1  0.88945111  0.88194003  0.88341899  1  0.018667  0  -0.031722  -0.072785  0  4.00713  0
C  C117  1  0.11055011  0.61805990  0.38341906  1  0.018655  0  -0.031705  -0.072843  0  4.007197  0
C  C118  1  0.11054938  0.11806009  0.11658066  1  0.018661  0  -0.031667  -0.072731  0  4.007197  0
C  C119  1  0.88945128  0.38194086  0.61658060  1  0.018652  0  -0.031712  -0.072825  0  4.007246  0
C  C120  1  0.79522145  0.91643470  0.90052774  1  -0.070815  0  -0.080608  -0.06027  0  3.981447  0
C  C121  1  0.20477901  0.58356588  0.40052776  1  -0.070835  0  -0.080631  -0.060259  0  3.981482  0
C  C122  1  0.20477840  0.08356670  0.09947191  1  -0.070836  0  -0.080641  -0.060301  0  3.981628  0
C  C123  1  0.79522148  0.41643424  0.59947189  1  -0.070827  0  -0.080628  -0.060296  0  3.981522  0
C  C124  1  0.77464275  0.92361838  0.95142270  1  -0.016893  0  -0.099699  -0.201223  0  3.991629  0
C  C125  1  0.22535753  0.57638158  0.45142271  1  -0.016896  0  -0.099691  -0.201255  0  3.9916  0
C  C126  1  0.22535693  0.07638174  0.04857734  1  -0.016886  0  -0.09968  -0.201196  0  3.991594  0
C  C127  1  0.77464215  0.42361854  0.54857733  1  -0.016905  0  -0.099644  -0.201194  0  3.991529  0
C  C128  1  0.84872284  0.89562132  0.98610590  1  0.43818  0  0.092883  0.277598  0  4.037676  0
C  C129  1  0.15127745  0.60437929  0.48610594  1  0.438059  0  0.092843  0.277531  0  4.037686  0
C  C130  1  0.15127593  0.10437816  0.01389376  1  0.438371  0  0.092826  0.277623  0  4.037515  0
C  C131  1  0.84872231  0.39562146  0.51389371  1  0.438201  0  0.09281  0.277516  0  4.037628  0
C  C132  1  0.94226312  0.85939004  0.96993468  1  -0.021653  0  -0.107326  -0.221475  0  4.004977  0
C  C133  1  0.05773630  0.64060993  0.46993440  1  -0.021467  0  -0.107336  -0.221499  0  4.005067  0
C  C134  1  0.05773556  0.14060880  0.03006535  1  -0.021792  0  -0.107328  -0.221537  0  4.004984  0
C  C135  1  0.94226346  0.35939083  0.53006525  1  -0.021604  0  -0.107319  -0.221488  0  4.005028  0
C  C136  1  0.96186615  0.85306811  0.91869707  1  -0.059065  0  -0.081508  -0.067083  0  4.003075  0
C  C137  1  0.03813328  0.64693120  0.41869680  1  -0.059069  0  -0.081476  -0.066972  0  4.003055  0
C  C138  1  0.03813262  0.14693137  0.08130296  1  -0.059067  0  -0.081523  -0.067068  0  4.003055  0
C  C139  1  0.96186639  0.35306892  0.58130286  1  -0.059046  0  -0.081502  -0.067007  0  4.003013  0
C  C140  1  0.88464936  0.86975602  0.07205021  1  0.396894  0  0.08693  0.262506  0  4.046167  0
C  C141  1  0.11535003  0.63024379  0.57205043  1  0.396908  0  0.086943  0.262578  0  4.046175  0
C  C142  1  0.11534933  0.13024282  0.92794944  1  0.396911  0  0.086902  0.262562  0  4.046248  0
C  C143  1  0.88464883  0.36975632  0.42794923  1  0.397076  0  0.086929  0.26253  0  4.046149  0
C  C144  1  0.86941046  0.78094563  0.07810291  1  -0.047302  0  -0.100218  -0.206822  0  4.011785  0
C  C145  1  0.13058900  0.71905482  0.57810201  1  -0.013735  0  -0.100168  -0.206789  0  4.011728  0
C  C146  1  0.13058904  0.21905320  0.92189787  1  -0.013685  0  -0.100158  -0.206781  0  4.01182  0
C  C147  1  0.86941067  0.28094530  0.42189765  1  -0.013728  0  -0.100162  -0.206764  0  4.011718  0
C  C148  1  0.92629270  0.74379406  0.11596991  1  -0.016352  0  -0.08093  -0.068918  0  3.973643  0
C  C149  1  0.07370579  0.75620576  0.61596904  1  -0.049906  0  -0.080898  -0.068927  0  3.973673  0
C  C150  1  0.07370680  0.25620477  0.88403050  1  -0.049932  0  -0.080912  -0.068922  0  3.973776  0
C  C151  1  0.92629389  0.24379435  0.38403061  1  -0.049912  0  -0.080901  -0.068932  0  3.973694  0
C  C152  1  0.99955435  0.79474669  0.14689997  1  -0.029624  0  -0.027107  -0.065489  0  3.993123  0
C  C153  1  0.00044335  0.70525379  0.64689988  1  -0.029621  0  -0.0271  -0.065475  0  3.993093  0
C  C154  1  0.00044459  0.20525406  0.85309968  1  -0.029619  0  -0.02708  -0.065415  0  3.993147  0
C  C155  1  0.99955633  0.29474633  0.35310015  1  -0.029632  0  -0.027121  -0.065492  0  3.993188  0
C  C156  1  0.01375133  0.88370692  0.13995386  1  -0.024892  0  -0.078402  -0.061804  0  3.969635  0
C  C157  1  0.98624874  0.61629291  0.63995446  1  -0.02493  0  -0.078387  -0.061756  0  3.969615  0
C  C158  1  0.98624744  0.11629255  0.86004579  1  -0.024941  0  -0.078396  -0.061831  0  3.969731  0
C  C159  1  0.01375166  0.38370656  0.36004633  1  -0.024984  0  -0.078383  -0.061805  0  3.969661  0
C  C160  1  0.95561587  0.92164453  0.10275621  1  -0.045125  0  -0.095672  -0.186576  0  3.964461  0
C  C161  1  0.04438427  0.57835529  0.60275682  1  -0.045185  0  -0.09568  -0.186612  0  3.964462  0
C  C162  1  0.04438217  0.07835559  0.89724307  1  -0.045232  0  -0.095619  -0.186482  0  3.964477  0
C  C163  1  0.95561622  0.42164482  0.39724358  1  -0.045118  0  -0.095674  -0.186572  0  3.964479  0
C  C164  1  0.06408521  0.75299805  0.18544650  1  1.585503  0  0.222307  0.60334  0  4.172663  0
C  C165  1  0.93591396  0.74700180  0.68544639  1  1.585484  0  0.222257  0.60331  0  4.172836  0
C  C166  1  0.93591447  0.24700206  0.81455315  1  1.585488  0  0.222264  0.603252  0  4.172839  0
C  C167  1  0.06408563  0.25299768  0.31455364  1  1.58549  0  0.222255  0.603293  0  4.172879  0
C  C168  1  0.66908591  0.72757670  0.84989741  1  1.562432  0  0.202045  0.572669  0  4.208485  0
C  C169  1  0.33091302  0.77242386  0.34989703  1  1.562454  0  0.202105  0.572777  0  4.208397  0
C  C170  1  0.33091295  0.27242342  0.15010300  1  1.562463  0  0.202076  0.572695  0  4.208469  0
C  C171  1  0.66908593  0.22757689  0.65010337  1  1.562473  0  0.20202  0.57262  0  4.208493  0
C  C172  1  0.67189291  0.69713308  0.90312080  1  -0.030686  0  -0.02943  -0.064163  0  3.990126  0
C  C173  1  0.32810592  0.80286750  0.40312043  1  -0.030492  0  -0.029477  -0.064259  0  3.990194  0
C  C174  1  0.32810604  0.30286768  0.09687923  1  -0.030479  0  -0.029458  -0.064218  0  3.990184  0
C  C175  1  0.67189294  0.19713262  0.59687922  1  -0.030681  0  -0.02943  -0.064209  0  3.990211  0
C  C176  1  0.76156723  0.65796361  0.92151271  1  0.032711  0  -0.082207  -0.064403  0  3.996861  0
C  C177  1  0.23843238  0.84203697  0.42151239  1  0.032704  0  -0.082253  -0.064517  0  3.996894  0
C  C178  1  0.23843163  0.34203650  0.07848808  1  0.032696  0  -0.082266  -0.064449  0  3.996979  0
C  C179  1  0.76156657  0.15796379  0.57848802  1  0.031137  0  -0.082207  -0.064426  0  3.996858  0
C  C180  1  0.76166543  0.62553948  0.96999513  1  -0.051721  0  -0.104544  -0.212052  0  4.007823  0
C  C181  1  0.23833400  0.87446049  0.46999556  1  -0.051703  0  -0.104554  -0.212064  0  4.007845  0
C  C182  1  0.23833343  0.37446064  0.03000491  1  -0.051806  0  -0.104556  -0.212046  0  4.007933  0
C  C183  1  0.76166405  0.12553963  0.53000447  1  -0.050104  0  -0.104558  -0.212048  0  4.00769  0
C  C184  1  0.67108767  0.63253476  0.00120843  1  0.321961  0  0.085767  0.262247  0  4.06005  0
C  C185  1  0.32891186  0.86746503  0.50120823  1  0.32186  0  0.085775  0.262206  0  4.060099  0
C  C186  1  0.32891119  0.36746536  0.99879198  1  0.32186  0  0.085754  0.262139  0  4.060181  0
C  C187  1  0.67108700  0.13253509  0.49879181  1  0.321872  0  0.085763  0.262205  0  4.060041  0
C  C188  1  0.58161131  0.67289748  0.98405521  1  -0.016851  0  -0.112017  -0.229484  0  4.015755  0
C  C189  1  0.41838817  0.82710313  0.48405444  1  -0.016805  0  -0.112004  -0.229392  0  4.015695  0
C  C190  1  0.41838683  0.32710328  0.01594557  1  -0.016768  0  -0.112013  -0.229387  0  4.015765  0
C  C191  1  0.58161077  0.17289763  0.51594559  1  -0.016804  0  -0.11206  -0.229504  0  4.015685  0
C  C192  1  0.58280072  0.70450523  0.93510140  1  0.002562  0  -0.079758  -0.058412  0  3.984701  0
C  C193  1  0.41719795  0.79549473  0.43510062  1  0.002404  0  -0.079668  -0.058264  0  3.984712  0
C  C194  1  0.41719814  0.29549489  0.06489901  1  0.00237  0  -0.079678  -0.058311  0  3.984734  0
C  C195  1  0.58280009  0.20450539  0.56489904  1  0.002559  0  -0.079664  -0.058247  0  3.984644  0
C  C196  1  0.59195501  0.60565646  0.08229747  1  0.374442  0  0.086305  0.262101  0  4.039643  0
C  C197  1  0.40804599  0.89434336  0.58229686  1  0.374459  0  0.08629  0.262077  0  4.039694  0
C  C198  1  0.40804458  0.39434302  0.91770294  1  0.374436  0  0.086282  0.262087  0  4.039679  0
C  C199  1  0.59195441  0.10565612  0.41770279  1  0.374446  0  0.086309  0.262134  0  4.039598  0
C  C200  1  0.60314376  0.67141640  0.11776435  1  -0.032291  0  -0.097291  -0.192628  0  3.979714  0
C  C201  1  0.39685790  0.82858279  0.61776411  1  -0.032387  0  -0.09727  -0.192594  0  3.979877  0
C  C202  1  0.39685583  0.32858308  0.88223605  1  -0.0323  0  -0.097266  -0.192601  0  3.97981  0
C  C203  1  0.60314332  0.17141669  0.38223554  1  -0.0323  0  -0.097302  -0.192699  0  3.979781  0
C  C204  1  0.51920386  0.67785674  0.15217924  1  -0.008918  0  -0.080333  -0.063595  0  3.968333  0
C  C205  1  0.48079610  0.82214247  0.65217859  1  -0.008931  0  -0.080313  -0.06359  0  3.968357  0
C  C206  1  0.48079573  0.32214274  0.84782116  1  -0.008922  0  -0.080323  -0.063603  0  3.968351  0
C  C207  1  0.51920430  0.17785701  0.34782107  1  -0.008931  0  -0.080341  -0.063628  0  3.968367  0
C  C208  1  0.42464596  0.61906592  0.15112199  1  -0.055621  0  -0.026235  -0.062255  0  3.988816  0
C  C209  1  0.57535482  0.88093328  0.65112169  1  -0.055621  0  -0.026232  -0.062203  0  3.988796  0
C  C210  1  0.57535354  0.38093291  0.84887841  1  -0.05561  0  -0.026221  -0.062212  0  3.988775  0
C  C211  1  0.42464567  0.11906684  0.34887797  1  -0.055634  0  -0.0262  -0.062138  0  3.98877  0
C  C212  1  0.41574176  0.55250075  0.11576921  1  -0.004197  0  -0.077327  -0.059164  0  3.956205  0
C  C213  1  0.58425990  0.94749844  0.61576928  1  -0.004108  0  -0.077307  -0.059203  0  3.956124  0
C  C214  1  0.58425864  0.44749873  0.88423120  1  -0.004249  0  -0.077339  -0.059208  0  3.95608  0
C  C215  1  0.41574059  0.05250168  0.38423037  1  -0.00411  0  -0.077334  -0.059248  0  3.956192  0
C  C216  1  0.49955806  0.54545140  0.08121470  1  0.014277  0  -0.095745  -0.194995  0  3.977213  0
C  C217  1  0.50044358  0.95454713  0.58121444  1  0.01425  0  -0.095778  -0.195001  0  3.977081  0
C  C218  1  0.50044144  0.45454743  0.91878571  1  0.014354  0  -0.09576  -0.195019  0  3.977126  0
C  C219  1  0.49955682  0.04545235  0.41878484  1  0.014239  0  -0.095772  -0.195002  0  3.977176  0
C  C220  1  0.33334142  0.63046916  0.18660503  1  1.555929  0  0.222043  0.60045  0  4.168183  0
C  C221  1  0.66665856  0.86953070  0.68660543  1  1.555351  0  0.222038  0.60041  0  4.168318  0
C  C222  1  0.66665817  0.36953032  0.81339500  1  1.555928  0  0.222017  0.600431  0  4.168301  0
C  C223  1  0.33334193  0.13046942  0.31339460  1  1.555341  0  0.221996  0.600332  0  4.168399  0
C  C224  1  0.92538384  0.46784430  0.24347522  1  0.396243  0  0.048251  0.106999  0  3.927766  0
C  C225  1  0.07461648  0.03215605  0.74347469  1  0.396273  0  0.048314  0.107046  0  3.927798  0
C  C226  1  0.07461665  0.53215581  0.75652481  1  0.396253  0  0.048299  0.107053  0  3.927832  0
C  C227  1  0.92538474  0.96784343  0.25652534  1  0.396253  0  0.048319  0.10706  0  3.927778  0
C  C228  1  0.85720485  0.39168473  0.24165758  1  0.089979  0  -0.083843  -0.2152  0  3.912318  0
C  C229  1  0.14279548  0.10831563  0.74165741  1  0.089857  0  -0.083934  -0.215308  0  3.912376  0
C  C230  1  0.14279646  0.60831539  0.75834208  1  0.089995  0  -0.083899  -0.215263  0  3.912393  0
C  C231  1  0.85720501  0.89168449  0.25834300  1  0.090269  0  -0.083929  -0.215331  0  3.912339  0
C  C232  1  0.89148919  0.32247085  0.21464203  1  0.341903  0  0.123864  0.294805  0  3.983918  0
C  C233  1  0.10851120  0.17752949  0.71464263  1  0.341887  0  0.123951  0.294955  0  3.983775  0
C  C234  1  0.10851131  0.67752926  0.78535763  1  0.341759  0  0.123909  0.294851  0  3.9839  0
C  C235  1  0.89148929  0.82247063  0.28535853  1  0.341634  0  0.123866  0.294939  0  3.98378  0
C  C236  1  0.99410697  0.33386435  0.19063987  1  0.005659  0  -0.08685  -0.218178  0  3.914676  0
C  C237  1  0.00589355  0.16613662  0.69063977  1  0.005689  0  -0.086852  -0.218246  0  3.914614  0
C  C238  1  0.00589352  0.66613577  0.80935978  1  0.005571  0  -0.086823  -0.218162  0  3.914697  0
C  C239  1  0.99410784  0.83386413  0.30936139  1  0.005642  0  -0.086872  -0.218256  0  3.914707  0
C  C240  1  0.05716754  0.41204087  0.19443414  1  0.483613  0  0.045504  0.10382  0  3.954071  0
C  C241  1  0.94283288  0.08795946  0.69443399  1  0.483628  0  0.045466  0.103774  0  3.953883  0
C  C242  1  0.94283295  0.58795925  0.80556589  1  0.483672  0  0.045466  0.103768  0  3.954027  0
C  C243  1  0.05716761  0.91204065  0.30556642  1  0.483613  0  0.045524  0.103851  0  3.95401  0
C  C244  1  0.71973209  0.22773689  0.21985368  1  1.428145  0  0.25007  0.392242  0  4.108581  0
C  C245  1  0.28026892  0.27226217  0.71985385  1  1.428168  0  0.250085  0.392272  0  4.10863  0
C  C246  1  0.28026904  0.77226194  0.78014598  1  1.428172  0  0.250091  0.392248  0  4.108649  0
C  C247  1  0.71973239  0.72773795  0.28014693  1  1.428219  0  0.250072  0.39225  0  4.108586  0
C  C248  1  0.67732214  0.13195891  0.21816664  1  1.437552  0  0.250434  0.392709  0  4.105052  0
C  C249  1  0.32267814  0.36804079  0.71816756  1  1.437561  0  0.250375  0.392587  0  4.105195  0
C  C250  1  0.32267916  0.86804120  0.78183302  1  1.437583  0  0.250425  0.392621  0  4.105148  0
C  C251  1  0.67732226  0.63195869  0.28183360  1  1.437565  0  0.250352  0.392558  0  4.105303  0
C  C252  1  0.50227085  0.04007483  0.22193032  1  0.336745  0  0.122904  0.294748  0  3.99485  0
C  C253  1  0.49772943  0.45992487  0.72193081  1  0.336644  0  0.122939  0.294814  0  3.994721  0
C  C254  1  0.49772956  0.95992464  0.77806896  1  0.336639  0  0.122917  0.294734  0  3.994748  0
C  C255  1  0.50227187  0.54007525  0.27806922  1  0.336689  0  0.122918  0.294782  0  3.994658  0
C  C256  1  0.39084653  0.03480908  0.20884575  1  0.042663  0  -0.089385  -0.225833  0  3.914473  0
C  C257  1  0.60915386  0.46519126  0.70884619  1  0.042639  0  -0.089373  -0.225851  0  3.914447  0
C  C258  1  0.60915396  0.96519104  0.79115391  1  0.042736  0  -0.089355  -0.225744  0  3.914421  0
C  C259  1  0.39084753  0.53480949  0.29115384  1  0.042682  0  -0.089371  -0.225847  0  3.914358  0
C  C260  1  0.32570054  0.95812659  0.21575802  1  0.42004  0  0.043941  0.109355  0  3.947998  0
C  C261  1  0.67429947  0.54187391  0.71575836  1  0.420137  0  0.043914  0.10935  0  3.948067  0
C  C262  1  0.67429922  0.04187417  0.78424163  1  0.420143  0  0.043857  0.10918  0  3.94807  0
C  C263  1  0.32570111  0.45812684  0.28424167  1  0.420076  0  0.043923  0.109304  0  3.948003  0
C  C264  1  0.47122746  0.89315257  0.24812701  1  0.442926  0  0.046354  0.108465  0  3.934286  0
C  C265  1  0.52877240  0.60684731  0.74812780  1  0.442715  0  0.04632  0.108397  0  3.934232  0
C  C266  1  0.52877294  0.10684691  0.75187227  1  0.442738  0  0.046298  0.108378  0  3.93432  0
C  C267  1  0.47122818  0.39315345  0.25187223  1  0.442446  0  0.046282  0.108284  0  3.93428  0
C  C268  1  0.54286315  0.96690924  0.24198573  1  0.03234  0  -0.087124  -0.219607  0  3.908133  0
C  C269  1  0.45713744  0.53309000  0.74198653  1  0.03208  0  -0.087087  -0.219515  0  3.908018  0
C  C270  1  0.45713716  0.03308960  0.75801355  1  0.032067  0  -0.087128  -0.219558  0  3.908106  0
C  C271  1  0.54286386  0.46691012  0.25801388  1  0.032266  0  -0.087085  -0.219486  0  3.908007  0
N  N272  1  0.02368863  0.47844740  0.22024343  1  -1.271383  0  -0.344629  -0.253459  0  3.590875  0
N  N273  1  0.97631256  0.02155294  0.72024250  1  -1.271379  0  -0.34461  -0.253382  0  3.590848  0
N  N274  1  0.97631186  0.52155271  0.77975660  1  -1.271307  0  -0.344622  -0.253412  0  3.590928  0
N  N275  1  0.02368875  0.97844718  0.27975715  1  -1.271391  0  -0.344634  -0.253459  0  3.590851  0
N  N276  1  0.82980299  0.24269298  0.21185157  1  -1.301444  0  -0.378814  -0.349363  0  3.556515  0
N  N277  1  0.17019740  0.25730736  0.71185254  1  -1.301436  0  -0.378826  -0.349391  0  3.556505  0
N  N278  1  0.17019750  0.75730714  0.78814734  1  -1.301437  0  -0.378825  -0.349319  0  3.556562  0
N  N279  1  0.82980310  0.74269275  0.28814900  1  -1.301461  0  -0.378812  -0.349365  0  3.556477  0
N  N280  1  0.56555050  0.11855652  0.21632386  1  -1.283618  0  -0.376887  -0.345729  0  3.566977  0
N  N281  1  0.43444970  0.38144254  0.71632474  1  -1.283521  0  -0.376931  -0.345738  0  3.566952  0
N  N282  1  0.43444981  0.88144232  0.78367579  1  -1.283534  0  -0.376932  -0.34571  0  3.566944  0
N  N283  1  0.56555161  0.61855757  0.28367641  1  -1.28352  0  -0.37692  -0.345721  0  3.567041  0
N  N284  1  0.36448493  0.88783258  0.23503042  1  -1.26575  0  -0.340311  -0.258663  0  3.56661  0
N  N285  1  0.63551495  0.61216729  0.73503079  1  -1.265255  0  -0.340299  -0.258686  0  3.566686  0
N  N286  1  0.63551393  0.11216754  0.76496923  1  -1.26528  0  -0.340208  -0.258527  0  3.566627  0
N  N287  1  0.36448636  0.38783282  0.26496924  1  -1.265241  0  -0.340285  -0.258616  0  3.566593  0
O  O288  1  0.83856622  0.90090479  0.79886658  1  -1.17394  0  -0.330459  -0.577935  0  2.406543  0
O  O289  1  0.16143444  0.59909575  0.29886662  1  -1.173933  0  -0.330485  -0.578035  0  2.406531  0
O  O290  1  0.16143355  0.09909597  0.20113308  1  -1.173915  0  -0.33048  -0.57802  0  2.406576  0
O  O291  1  0.83856686  0.40090436  0.70113341  1  -1.173909  0  -0.330503  -0.578068  0  2.406531  0
O  O292  1  0.00759156  0.86323835  0.81382980  1  -1.200989  0  -0.318977  -0.570185  0  2.230413  0
O  O293  1  0.99240790  0.63675964  0.31383025  1  -1.200953  0  -0.31899  -0.570282  0  2.230377  0
O  O294  1  0.99240776  0.13675921  0.18616948  1  -1.200973  0  -0.318993  -0.570284  0  2.230433  0
O  O295  1  0.00759268  0.36324112  0.68616941  1  -1.200938  0  -0.318994  -0.57031  0  2.230411  0
O  O296  1  0.82545929  0.90893798  0.03584098  1  -1.089047  0  -0.15545  -0.219004  0  2.538393  0
O  O297  1  0.17454017  0.59106181  0.53584154  1  -1.089042  0  -0.155458  -0.219039  0  2.538457  0
O  O298  1  0.17453849  0.09106021  0.96415830  1  -1.089043  0  -0.155457  -0.219112  0  2.538367  0
O  O299  1  0.82545860  0.40893766  0.46415812  1  -1.089258  0  -0.155476  -0.219039  0  2.538425  0
O  O300  1  0.14023570  0.79968686  0.20820559  1  -1.196448  0  -0.316096  -0.557915  0  2.394719  0
O  O301  1  0.85976360  0.70031428  0.70820550  1  -1.196435  0  -0.316102  -0.557934  0  2.394846  0
O  O302  1  0.85976497  0.20031453  0.79179407  1  -1.196427  0  -0.316115  -0.557884  0  2.394832  0
O  O303  1  0.14023616  0.29968648  0.29179454  1  -1.196427  0  -0.316099  -0.557926  0  2.394836  0
O  O304  1  0.03858978  0.67307752  0.19228774  1  -1.180522  0  -0.315584  -0.536762  0  2.384823  0
O  O305  1  0.96141019  0.82692234  0.69228801  1  -1.18051  0  -0.315533  -0.536711  0  2.384825  0
O  O306  1  0.96141153  0.32692260  0.80771191  1  -1.180538  0  -0.315535  -0.536717  0  2.384807  0
O  O307  1  0.03859030  0.17307778  0.30771202  1  -1.180516  0  -0.315533  -0.536703  0  2.384832  0
O  O308  1  0.75403775  0.71244972  0.82296479  1  -1.16601  0  -0.33541  -0.575196  0  2.365802  0
O  O309  1  0.24596123  0.78755082  0.32296446  1  -1.166046  0  -0.335435  -0.575226  0  2.365777  0
O  O310  1  0.24596120  0.28755103  0.17703562  1  -1.16605  0  -0.335441  -0.575236  0  2.365827  0
O  O311  1  0.75403763  0.21244929  0.67703557  1  -1.166028  0  -0.335413  -0.575197  0  2.365836  0
O  O312  1  0.58906364  0.76241134  0.83345939  1  -1.188925  0  -0.326377  -0.563261  0  2.144327  0
O  O313  1  0.41093605  0.73758858  0.33345897  1  -1.188929  0  -0.3264  -0.563318  0  2.144272  0
O  O314  1  0.41093603  0.23758878  0.16654065  1  -1.188916  0  -0.326389  -0.563273  0  2.144316  0
O  O315  1  0.58906363  0.26241154  0.66654106  1  -1.188967  0  -0.326361  -0.563228  0  2.144276  0
O  O316  1  0.67801221  0.59868890  0.04879722  1  -1.113723  0  -0.161268  -0.230432  0  2.537133  0
O  O317  1  0.32198886  0.90131090  0.54879703  1  -1.1137  0  -0.161251  -0.2304  0  2.537135  0
O  O318  1  0.32198738  0.40131057  0.95120281  1  -1.113735  0  -0.161278  -0.230397  0  2.537103  0
O  O319  1  0.67801082  0.09868922  0.45120263  1  -1.113697  0  -0.161246  -0.230393  0  2.537107  0
O  O320  1  0.34906403  0.69279533  0.21739436  1  -1.179338  0  -0.317934  -0.565368  0  2.441261  0
O  O321  1  0.65093443  0.80720582  0.71739514  1  -1.17878  0  -0.317907  -0.565304  0  2.441244  0
O  O322  1  0.65093483  0.30720479  0.78260529  1  -1.179355  0  -0.317874  -0.5653  0  2.441257  0
O  O323  1  0.34906533  0.19279494  0.28260490  1  -1.178791  0  -0.31792  -0.565336  0  2.44125  0
O  O324  1  0.24636364  0.57815936  0.18391141  1  -1.177357  0  -0.315311  -0.53583  0  2.327733  0
O  O325  1  0.75363635  0.92184050  0.68391179  1  -1.177348  0  -0.315333  -0.535852  0  2.327871  0
O  O326  1  0.75363586  0.42183948  0.81608862  1  -1.17732  0  -0.31536  -0.535903  0  2.327825  0
O  O327  1  0.24636432  0.07816090  0.31608825  1  -1.177326  0  -0.315319  -0.535817  0  2.327885  0
O  O328  1  0.65704362  0.28225289  0.22908344  1  -1.116688  0  -0.266691  -0.437253  0  2.185376  0
O  O329  1  0.34295484  0.21774554  0.72908245  1  -1.116732  0  -0.266698  -0.437251  0  2.185416  0
O  O330  1  0.34295506  0.71774595  0.77091697  1  -1.116736  0  -0.266712  -0.437243  0  2.185432  0
O  O331  1  0.65704557  0.78225394  0.27091721  1  -1.116736  0  -0.266681  -0.437227  0  2.185411  0
O  O332  1  0.74065513  0.07613491  0.22021058  1  -1.129891  0  -0.26496  -0.426595  0  2.165468  0
O  O333  1  0.25934670  0.42386415  0.72021079  1  -1.129867  0  -0.264912  -0.426517  0  2.165561  0
O  O334  1  0.25934682  0.92386392  0.77978982  1  -1.129865  0  -0.264934  -0.426541  0  2.165576  0
O  O335  1  0.74065452  0.57613533  0.27979036  1  -1.129901  0  -0.264885  -0.426497  0  2.165605  0
