# generated using pymatgen
data_ZnH16C20(NO3)2
_symmetry_space_group_name_H-M   'P 1'
_cell_length_a   6.87535667
_cell_length_b   11.16041131
_cell_length_c   12.30740096
_cell_angle_alpha   86.24125456
_cell_angle_beta   86.13064363
_cell_angle_gamma   70.70956187
_symmetry_Int_Tables_number   1
_chemical_formula_structural   ZnH16C20(NO3)2
_chemical_formula_sum   'Zn2 H32 C40 N4 O12'
_cell_volume   888.37778470
_cell_formula_units_Z   2
loop_
 _symmetry_equiv_pos_site_id
 _symmetry_equiv_pos_as_xyz
  1  'x, y, z'
loop_
 _atom_site_type_symbol
 _atom_site_label
 _atom_site_symmetry_multiplicity
 _atom_site_fract_x
 _atom_site_fract_y
 _atom_site_fract_z
 _atom_site_occupancy
 _atom_site_hle17_bader_spin_density
 _atom_site_hle17_ddec_charge
 _atom_site_hle17_ddec_spin_density
 _atom_site_hle17_ddec_sum_bond_order
 _atom_site_hle17_magmom
 _atom_site_hse06_10hf_bader_spin_density
 _atom_site_hse06_10hf_ddec_charge
 _atom_site_hse06_10hf_ddec_spin_density
 _atom_site_hse06_10hf_ddec_sum_bond_order
 _atom_site_hse06_10hf_magmom
 _atom_site_hse06_bader_spin_density
 _atom_site_hse06_ddec_charge
 _atom_site_hse06_ddec_spin_density
 _atom_site_hse06_ddec_sum_bond_order
 _atom_site_hse06_magmom
 _atom_site_pbe_bader_spin_density
 _atom_site_pbe_cm5_charge
 _atom_site_pbe_ddec_charge
 _atom_site_pbe_ddec_spin_density
 _atom_site_pbe_ddec_sum_bond_order
 _atom_site_pbe_magmom
Zn  Zn0  1  0.44837881  0.82009252  0.79527786  1  0  0.980277  0  1.832229  0  0  0.788217  0  2.294764  0  0  0.837948  0  2.241297  0  0  0.6884  0.753642  0  2.331334  0
Zn  Zn1  1  0.55162608  0.17990661  0.20472121  1  0  0.980273  0  1.832205  0  0  0.788226  0  2.294749  0  0  0.83795  0  2.241282  0  0  0.688414  0.753645  0  2.331323  0
H  H2  1  0.92009819  0.37847117  0.78693629  1  0  0.125922  0  0.937901  0  0  0.139641  0  0.994975  0  0  0.14341  0  0.993026  0  0  0.107537  0.136909  0  0.996594  0
H  H3  1  0.07989742  0.62152615  0.21306569  1  0  0.125886  0  0.937832  0  0  0.139597  0  0.994921  0  0  0.143357  0  0.992984  0  0  0.107519  0.136865  0  0.996542  0
H  H4  1  0.89736087  0.84154857  0.10468690  1  0  0.109632  0  0.979085  0  0  0.117149  0  1.044873  0  0  0.120052  0  1.044435  0  0  0.108294  0.115025  0  1.045459  0
H  H5  1  0.10264306  0.15845245  0.89531292  1  0  0.109639  0  0.979055  0  0  0.117167  0  1.044829  0  0  0.120066  0  1.044396  0  0  0.108276  0.115041  0  1.045418  0
H  H6  1  0.13603206  0.63870980  0.58622873  1  0  0.113452  0  0.948143  0  0  0.126936  0  1.00333  0  0  0.130076  0  1.002033  0  0  0.115466  0.12462  0  1.004527  0
H  H7  1  0.86396889  0.36128845  0.41376811  1  0  0.113464  0  0.948122  0  0  0.126957  0  1.0033  0  0  0.130097  0  1.002003  0  0  0.115456  0.124629  0  1.004508  0
H  H8  1  0.89310611  0.10379267  0.82753837  1  0  0.119289  0  0.955874  0  0  0.126469  0  1.018423  0  0  0.130004  0  1.016713  0  0  0.113413  0.123878  0  1.019862  0
H  H9  1  0.10690218  0.89620548  0.17245981  1  0  0.119308  0  0.955842  0  0  0.126483  0  1.018394  0  0  0.130016  0  1.016686  0  0  0.113425  0.123892  0  1.019834  0
H  H10  1  0.65215130  0.77067643  0.01024615  1  0  0.095428  0  0.943413  0  0  0.103473  0  1.00578  0  0  0.105867  0  1.004247  0  0  0.120252  0.101664  0  1.007017  0
H  H11  1  0.34785893  0.22932076  0.98975120  1  0  0.09543  0  0.943439  0  0  0.103466  0  1.005801  0  0  0.105857  0  1.004272  0  0  0.120236  0.101645  0  1.007036  0
H  H12  1  0.67330772  0.46945221  0.52316194  1  0  0.103749  0  0.961882  0  0  0.11556  0  1.021508  0  0  0.118122  0  1.021319  0  0  0.110461  0.113741  0  1.021751  0
H  H13  1  0.32669131  0.53054413  0.47683995  1  0  0.103744  0  0.961812  0  0  0.115556  0  1.021453  0  0  0.118089  0  1.021305  0  0  0.110469  0.113733  0  1.021702  0
H  H14  1  0.51082455  0.43126191  0.81120340  1  0  0.102629  0  0.972247  0  0  0.11476  0  1.032919  0  0  0.117823  0  1.03173  0  0  0.098539  0.112507  0  1.034037  0
H  H15  1  0.48916624  0.56874206  0.18880003  1  0  0.102645  0  0.972264  0  0  0.114791  0  1.032904  0  0  0.117843  0  1.031727  0  0  0.098532  0.112525  0  1.034038  0
H  H16  1  0.35859675  0.48227221  0.97483469  1  0  0.09135  0  0.952163  0  0  0.099505  0  1.022057  0  0  0.102016  0  1.019364  0  0  0.106815  0.097716  0  1.024097  0
H  H17  1  0.64139207  0.51773274  0.02516632  1  0  0.091303  0  0.952215  0  0  0.099495  0  1.022094  0  0  0.101995  0  1.019395  0  0  0.106795  0.097699  0  1.02414  0
H  H18  1  0.12018768  0.59514452  0.01574487  1  0  0.103402  0  0.940411  0  0  0.110863  0  1.008256  0  0  0.113157  0  1.006378  0  0  0.115097  0.109309  0  1.009594  0
H  H19  1  0.87980355  0.40486137  0.98425275  1  0  0.10344  0  0.940346  0  0  0.1109  0  1.008206  0  0  0.113182  0  1.006324  0  0  0.115121  0.109344  0  1.009543  0
H  H20  1  0.89241249  0.76725735  0.71913194  1  0  0.089291  0  0.964028  0  0  0.095233  0  1.029997  0  0  0.097884  0  1.027899  0  0  0.118143  0.09322  0  1.031715  0
H  H21  1  0.10758552  0.23274662  0.28086064  1  0  0.089231  0  0.964048  0  0  0.095181  0  1.030009  0  0  0.097831  0  1.027914  0  0  0.118145  0.093162  0  1.031724  0
H  H22  1  0.65727921  0.27714031  0.66794884  1  0  0.093178  0  0.962711  0  0  0.102225  0  1.023904  0  0  0.105782  0  1.021021  0  0  0.098486  0.099544  0  1.026154  0
H  H23  1  0.34271841  0.72286169  0.33205524  1  0  0.093185  0  0.962692  0  0  0.102193  0  1.023942  0  0  0.105753  0  1.021054  0  0  0.098454  0.099516  0  1.026186  0
H  H24  1  0.43988361  0.61457414  0.65600575  1  0  0.082653  0  0.976507  0  0  0.088288  0  1.046306  0  0  0.090882  0  1.044074  0  0  0.116203  0.086349  0  1.048014  0
H  H25  1  0.56011737  0.38542407  0.34399516  1  0  0.082708  0  0.97648  0  0  0.088287  0  1.046346  0  0  0.090881  0  1.044114  0  0  0.11618  0.086345  0  1.048053  0
H  H26  1  0.63642282  0.02799365  0.74978884  1  0  0.08291  0  0.946674  0  0  0.092324  0  1.008627  0  0  0.094302  0  1.007578  0  0  0.1189  0.090795  0  1.009556  0
H  H27  1  0.36358743  0.97200354  0.25021013  1  0  0.082987  0  0.946588  0  0  0.092384  0  1.008566  0  0  0.094365  0  1.007513  0  0  0.118924  0.090853  0  1.009499  0
H  H28  1  0.44909052  0.17024582  0.58461547  1  0  0.120145  0  0.978425  0  0  0.127632  0  1.04479  0  0  0.131668  0  1.042324  0  0  0.099599  0.124719  0  1.046688  0
H  H29  1  0.55090806  0.82975429  0.41538786  1  0  0.120048  0  0.978492  0  0  0.127578  0  1.044804  0  0  0.131614  0  1.042339  0  0  0.099563  0.124668  0  1.046697  0
H  H30  1  0.20894095  0.13415774  0.50481515  1  0  0.079792  0  0.949691  0  0  0.089914  0  1.016399  0  0  0.091159  0  1.015926  0  0  0.104486  0.08909  0  1.016751  0
H  H31  1  0.79105665  0.86584428  0.49518649  1  0  0.07981  0  0.949653  0  0  0.089929  0  1.016362  0  0  0.091177  0  1.015891  0  0  0.1045  0.089102  0  1.016724  0
H  H32  1  0.97625037  0.10072583  0.53786457  1  0  0.107924  0  0.943249  0  0  0.118402  0  1.006067  0  0  0.120814  0  1.004026  0  0  0.113454  0.116646  0  1.007611  0
H  H33  1  0.02375110  0.89927143  0.46213718  1  0  0.107921  0  0.943298  0  0  0.118415  0  1.006092  0  0  0.120827  0  1.004051  0  0  0.113476  0.116654  0  1.007638  0
C  C34  1  0.92336139  0.97880008  0.97427585  1  0  0.102005  0  3.713389  0  0  0.11434  0  3.941102  0  0  0.118565  0  3.961292  0  0  0.021452  0.111476  0  3.927728  0
C  C35  1  0.07664253  0.02120095  0.02572234  1  0  0.10203  0  3.713315  0  0  0.114362  0  3.941029  0  0  0.11859  0  3.961212  0  0  0.021426  0.111493  0  3.927655  0
C  C36  1  0.92813229  0.54106877  0.54000782  1  0  0.099241  0  3.744033  0  0  0.110062  0  3.974443  0  0  0.114303  0  3.995587  0  0  0.019989  0.107381  0  3.960105  0
C  C37  1  0.07186671  0.45892758  0.45999164  1  0  0.099266  0  3.744075  0  0  0.110162  0  3.974415  0  0  0.114403  0  3.995554  0  0  0.020043  0.107465  0  3.960085  0
C  C38  1  0.08349767  0.35421959  0.76271309  1  0  -0.31733  0  3.741644  0  0  -0.348308  0  4.003821  0  0  -0.356867  0  4.02024  0  0  -0.125939  -0.342556  0  3.992827  0
C  C39  1  0.91649746  0.64577867  0.23728885  1  0  -0.31722  0  3.741639  0  0  -0.348173  0  4.003799  0  0  -0.356724  0  4.020226  0  0  -0.125895  -0.342427  0  3.992805  0
C  C40  1  0.84964243  0.88460113  0.02480186  1  0  -0.138295  0  3.671734  0  0  -0.158814  0  3.920949  0  0  -0.166121  0  3.942098  0  0  -0.07417  -0.154146  0  3.907021  0
C  C41  1  0.15036198  0.11539894  0.97519799  1  0  -0.138442  0  3.671848  0  0  -0.158978  0  3.92107  0  0  -0.166284  0  3.942214  0  0  -0.074249  -0.154312  0  3.90714  0
C  C42  1  0.20422249  0.41504066  0.80860361  1  0  0.291181  0  3.83339  0  0  0.282093  0  4.096389  0  0  0.295144  0  4.111864  0  0  0.078863  0.2733  0  4.085718  0
C  C43  1  0.79577072  0.58496140  0.19139902  1  0  0.291004  0  3.833659  0  0  0.281914  0  4.09664  0  0  0.294968  0  4.112118  0  0  0.078833  0.273127  0  4.085963  0
C  C44  1  0.17008747  0.26439757  0.68394369  1  0  0.295533  0  3.830083  0  0  0.286351  0  4.094261  0  0  0.299824  0  4.108567  0  0  0.079028  0.277146  0  4.084445  0
C  C45  1  0.82990914  0.73560067  0.31605901  1  0  0.295298  0  3.830274  0  0  0.286101  0  4.094477  0  0  0.299563  0  4.108796  0  0  0.078884  0.276911  0  4.084653  0
C  C46  1  0.27816274  0.66190119  0.88200188  1  0  0.632042  0  3.915229  0  0  0.583517  0  4.216185  0  0  0.615267  0  4.211963  0  0  0.187649  0.562052  0  4.218162  0
C  C47  1  0.72183190  0.33810088  0.11799744  1  0  0.632217  0  3.915112  0  0  0.583704  0  4.216053  0  0  0.615442  0  4.211821  0  0  0.187731  0.562232  0  4.218034  0
C  C48  1  0.98482178  0.62757672  0.59739680  1  0  -0.120581  0  3.660102  0  0  -0.144193  0  3.913285  0  0  -0.150963  0  3.932153  0  0  -0.068535  -0.139967  0  3.900932  0
C  C49  1  0.01517671  0.37242060  0.40260019  1  0  -0.120694  0  3.660142  0  0  -0.144338  0  3.913313  0  0  -0.15111  0  3.932181  0  0  -0.06859  -0.140104  0  3.900957  0
C  C50  1  0.23914434  0.98156319  0.62410833  1  0  0.65042  0  3.904588  0  0  0.604271  0  4.204827  0  0  0.637003  0  4.198249  0  0  0.195323  0.581972  0  4.208508  0
C  C51  1  0.76086150  0.01843404  0.37589000  1  0  0.650365  0  3.904615  0  0  0.60423  0  4.204832  0  0  0.636963  0  4.198255  0  0  0.195276  0.581933  0  4.208501  0
C  C52  1  0.84437577  0.03090652  0.87294916  1  0  -0.128407  0  3.662433  0  0  -0.147725  0  3.909011  0  0  -0.154226  0  3.929078  0  0  -0.069348  -0.143505  0  3.89564  0
C  C53  1  0.15563204  0.96909257  0.12704980  1  0  -0.128393  0  3.662414  0  0  -0.147701  0  3.908983  0  0  -0.154206  0  3.929058  0  0  -0.069341  -0.14348  0  3.895608  0
C  C54  1  0.71005658  0.84452192  0.97329882  1  0  0.137341  0  3.672216  0  0  0.106115  0  3.921309  0  0  0.112952  0  3.939926  0  0  0.051222  0.101697  0  3.908713  0
C  C55  1  0.28994975  0.15547720  0.02669857  1  0  0.137348  0  3.672309  0  0  0.106173  0  3.921375  0  0  0.113007  0  3.939988  0  0  0.051302  0.101769  0  3.908775  0
C  C56  1  0.72824888  0.53558494  0.56275153  1  0  -0.143203  0  3.693611  0  0  -0.164951  0  3.946087  0  0  -0.172872  0  3.968181  0  0  -0.075053  -0.159917  0  3.931391  0
C  C57  1  0.27175013  0.46441141  0.43724874  1  0  -0.143176  0  3.693528  0  0  -0.16493  0  3.945955  0  0  -0.172834  0  3.968065  0  0  -0.075049  -0.159891  0  3.931258  0
C  C58  1  0.41338716  0.38614570  0.77583597  1  0  -0.242397  0  3.790432  0  0  -0.266291  0  4.048407  0  0  -0.273977  0  4.069122  0  0  -0.129041  -0.261191  0  4.034404  0
C  C59  1  0.58660556  0.61385447  0.22416759  1  0  -0.242404  0  3.790501  0  0  -0.266296  0  4.048447  0  0  -0.273973  0  4.069173  0  0  -0.129016  -0.261185  0  4.034456  0
C  C60  1  0.21983254  0.55585185  0.94449656  1  0  -0.072246  0  3.641077  0  0  -0.128647  0  3.903264  0  0  -0.125585  0  3.903136  0  0  -0.07057  -0.130952  0  3.903639  0
C  C61  1  0.78015968  0.44415213  0.05550275  1  0  -0.07223  0  3.641034  0  0  -0.128691  0  3.903253  0  0  -0.125569  0  3.903051  0  0  -0.070536  -0.13098  0  3.903621  0
C  C62  1  0.84585237  0.70283606  0.67239134  1  0  0.141481  0  3.682525  0  0  0.106572  0  3.939754  0  0  0.11548  0  3.954285  0  0  0.05251  0.100652  0  3.930101  0
C  C63  1  0.15414760  0.29716409  0.32760462  1  0  0.141571  0  3.682495  0  0  0.106666  0  3.939735  0  0  0.115572  0  3.954265  0  0  0.052495  0.100759  0  3.930061  0
C  C64  1  0.49557526  0.29826232  0.69516946  1  0  -0.025448  0  3.808489  0  0  -0.035551  0  4.060579  0  0  -0.032566  0  4.079836  0  0  -0.096648  -0.037128  0  4.047235  0
C  C65  1  0.50442090  0.70173969  0.30483549  1  0  -0.025394  0  3.808461  0  0  -0.035475  0  4.060551  0  0  -0.03249  0  4.079808  0  0  -0.096585  -0.037054  0  4.047208  0
C  C66  1  0.59650648  0.61509381  0.63730006  1  0  0.136148  0  3.700058  0  0  0.102859  0  3.95291  0  0  0.110093  0  3.970784  0  0  0.04846  0.098137  0  3.940939  0
C  C67  1  0.40349205  0.38490348  0.36270017  1  0  0.136061  0  3.700068  0  0  0.102807  0  3.95294  0  0  0.110041  0  3.970806  0  0  0.048466  0.098088  0  3.940964  0
C  C68  1  0.70253187  0.98734055  0.82735233  1  0  0.131529  0  3.692823  0  0  0.101495  0  3.940981  0  0  0.107767  0  3.960125  0  0  0.051723  0.097407  0  3.928037  0
C  C69  1  0.29747495  0.01265762  0.17264591  1  0  0.131361  0  3.692803  0  0  0.101368  0  3.940967  0  0  0.107634  0  3.96011  0  0  0.051694  0.097281  0  3.928021  0
C  C70  1  0.37781255  0.23639921  0.64833582  1  0  -0.237862  0  3.770177  0  0  -0.260976  0  4.02581  0  0  -0.268693  0  4.045569  0  0  -0.126784  -0.255876  0  4.012502  0
C  C71  1  0.62218651  0.76359994  0.35166755  1  0  -0.237673  0  3.770372  0  0  -0.26081  0  4.02597  0  0  -0.268525  0  4.045735  0  0  -0.126681  -0.255716  0  4.012665  0
C  C72  1  0.11359605  0.11003865  0.57262594  1  0  -0.080538  0  3.635706  0  0  -0.135845  0  3.896061  0  0  -0.133101  0  3.896965  0  0  -0.074296  -0.137852  0  3.895464  0
C  C73  1  0.88640447  0.88996051  0.42737574  1  0  -0.080608  0  3.635725  0  0  -0.135932  0  3.896074  0  0  -0.133199  0  3.896989  0  0  -0.074343  -0.137928  0  3.895477  0
N  N74  1  0.63729654  0.89453598  0.87563354  1  0  -0.331751  0  3.298668  0  0  -0.248557  0  3.572207  0  0  -0.267594  0  3.587941  0  0  -0.327269  -0.235664  0  3.561444  0
N  N75  1  0.36270981  0.10546313  0.12436548  1  0  -0.331609  0  3.298557  0  0  -0.248499  0  3.572144  0  0  -0.267527  0  3.587875  0  0  -0.327289  -0.235604  0  3.561368  0
N  N76  1  0.65387404  0.69791380  0.69191565  1  0  -0.328131  0  3.316985  0  0  -0.241624  0  3.591421  0  0  -0.260957  0  3.604938  0  0  -0.329938  -0.228722  0  3.582287  0
N  N77  1  0.34612643  0.30208539  0.30808197  1  0  -0.328084  0  3.316887  0  0  -0.241594  0  3.591332  0  0  -0.26092  0  3.604841  0  0  -0.329935  -0.228701  0  3.5822  0
O  O78  1  0.40168883  0.70538289  0.92875959  1  0  -0.646849  0  1.972429  0  0  -0.58272  0  2.231322  0  0  -0.611382  0  2.220169  0  0  -0.336571  -0.562536  0  2.238174  0
O  O79  1  0.59830826  0.29462010  0.07123877  1  0  -0.646925  0  1.972433  0  0  -0.582781  0  2.231299  0  0  -0.611442  0  2.220152  0  0  -0.336601  -0.562599  0  2.238153  0
O  O80  1  0.27077167  0.97906285  0.72699655  1  0  -0.65033  0  2.07903  0  0  -0.575937  0  2.35945  0  0  -0.605386  0  2.345361  0  0  -0.33436  -0.555229  0  2.368383  0
O  O81  1  0.72923469  0.02093626  0.27300328  1  0  -0.650305  0  2.079088  0  0  -0.575915  0  2.359497  0  0  -0.60536  0  2.345407  0  0  -0.334336  -0.555208  0  2.368425  0
O  O82  1  0.10210870  0.50107573  0.88496464  1  0  -0.262312  0  2.345193  0  0  -0.192869  0  2.5777  0  0  -0.209629  0  2.57945  0  0  -0.180997  -0.181058  0  2.576198  0
O  O83  1  0.89788451  0.49892918  0.11503539  1  0  -0.262243  0  2.345249  0  0  -0.192801  0  2.577788  0  0  -0.209585  0  2.579526  0  0  -0.181026  -0.180997  0  2.576285  0
O  O84  1  0.03532442  0.21190864  0.64526400  1  0  -0.275104  0  2.345925  0  0  -0.205925  0  2.582769  0  0  -0.223037  0  2.584332  0  0  -0.185162  -0.193627  0  2.581249  0
O  O85  1  0.96467756  0.78808764  0.35474022  1  0  -0.274973  0  2.345786  0  0  -0.205792  0  2.582636  0  0  -0.222896  0  2.584203  0  0  -0.185123  -0.193503  0  2.581115  0
O  O86  1  0.21037316  0.70393218  0.78988446  1  0  -0.607726  0  1.978199  0  0  -0.550186  0  2.214888  0  0  -0.575307  0  2.206982  0  0  -0.30808  -0.532523  0  2.219695  0
O  O87  1  0.78962246  0.29607083  0.21011396  1  0  -0.607869  0  1.978192  0  0  -0.550318  0  2.214867  0  0  -0.575438  0  2.206959  0  0  -0.308161  -0.532648  0  2.219671  0
O  O88  1  0.30073795  0.89054854  0.56270492  1  0  -0.60938  0  1.902837  0  0  -0.565126  0  2.118607  0  0  -0.589066  0  2.111616  0  0  -0.326953  -0.548105  0  2.122707  0
O  O89  1  0.69927038  0.10945243  0.43729473  1  0  -0.609355  0  1.902705  0  0  -0.565092  0  2.118456  0  0  -0.589032  0  2.111465  0  0  -0.326929  -0.548073  0  2.122557  0
