# generated using pymatgen
data_MnH8C8(SN3)2
_symmetry_space_group_name_H-M   'P 1'
_cell_length_a   5.45514865
_cell_length_b   6.89424853
_cell_length_c   15.64150541
_cell_angle_alpha   89.99555572
_cell_angle_beta   94.93234063
_cell_angle_gamma   90.00145294
_symmetry_Int_Tables_number   1
_chemical_formula_structural   MnH8C8(SN3)2
_chemical_formula_sum   'Mn2 H16 C16 S4 N12'
_cell_volume   586.08534517
_cell_formula_units_Z   2
loop_
 _symmetry_equiv_pos_site_id
 _symmetry_equiv_pos_as_xyz
  1  'x, y, z'
loop_
 _atom_site_type_symbol
 _atom_site_label
 _atom_site_symmetry_multiplicity
 _atom_site_fract_x
 _atom_site_fract_y
 _atom_site_fract_z
 _atom_site_occupancy
 _atom_site_pbe_cm5_charge
 _atom_site_pbe_ddec_charge
 _atom_site_pbe_ddec_spin_density
 _atom_site_pbe_ddec_sum_bond_order
 _atom_site_pbe_magmom
Mn  Mn0  1  0.50001494  0.49997069  0.49999890  1  0.557824  0.678713  4.577709  2.825343  4.345
Mn  Mn1  1  0.50003674  0.00001262  0.99999620  1  0.557969  0.679494  4.577596  2.824402  4.345
H  H2  1  0.36645373  0.42040899  0.68457771  1  0.327535  0.259268  0.000275  0.976696  0.0
H  H3  1  0.63351518  0.92042449  0.81540354  1  0.327337  0.259139  0.000274  0.976646  0.0
H  H4  1  0.63354300  0.57958316  0.31542095  1  0.327561  0.259363  0.000275  0.976606  0.0
H  H5  1  0.36648165  0.07957782  0.18458745  1  0.327363  0.259115  0.000274  0.976692  0.0
H  H6  1  0.59336434  0.46863568  0.83481657  1  0.11919  0.111578  0.00062  1.031226  0.0
H  H7  1  0.40639792  0.96858974  0.66519305  1  0.11921  0.111512  0.00062  1.030973  0.0
H  H8  1  0.40660841  0.53136083  0.16518645  1  0.119242  0.11159  0.00062  1.031235  0.0
H  H9  1  0.59358228  0.03141112  0.33480317  1  0.119215  0.111545  0.00062  1.030932  0.0
H  H10  1  0.01721542  0.66872084  0.80462917  1  0.100555  0.128086  0.000556  1.051514  0.0
H  H11  1  0.98262522  0.16870316  0.69542289  1  0.100681  0.128313  0.000557  1.051415  0.0
H  H12  1  0.98276276  0.33127276  0.19538041  1  0.100543  0.128063  0.000556  1.051334  0.0
H  H13  1  0.01736601  0.83129624  0.30457432  1  0.100634  0.128255  0.000556  1.051442  0.0
H  H14  1  0.97144321  0.72661722  0.62930030  1  0.114386  0.102418  7e-06  1.039048  0.0
H  H15  1  0.02855540  0.22672225  0.87070795  1  0.114502  0.10256  8e-06  1.038952  0.0
H  H16  1  0.02856630  0.27336332  0.37070643  1  0.114451  0.102592  7e-06  1.038966  0.0
H  H17  1  0.97145239  0.77328586  0.12928978  1  0.114464  0.102492  9e-06  1.038989  0.0
C  C18  1  0.01397470  0.27297135  0.53737028  1  0.161789  0.268774  0.044325  4.289608  0.038
C  C19  1  0.98600071  0.77300186  0.96272467  1  0.161775  0.268675  0.044383  4.288292  0.038
C  C20  1  0.98604219  0.72700920  0.46263541  1  0.161702  0.268699  0.044303  4.289672  0.038
C  C21  1  0.01400145  0.22700625  0.03728120  1  0.161772  0.268678  0.044332  4.288285  0.038
C  C22  1  0.65723736  0.52215096  0.77534840  1  0.023563  0.007498  0.006468  3.915749  0.005
C  C23  1  0.34257306  0.02214319  0.72466399  1  0.023626  0.007851  0.006481  3.914575  0.005
C  C24  1  0.34273906  0.47786150  0.22465538  1  0.023591  0.007597  0.006472  3.915657  0.005
C  C25  1  0.65741450  0.97785476  0.27533246  1  0.023616  0.007793  0.006482  3.914453  0.005
C  C26  1  0.86816338  0.62435366  0.75852515  1  -0.122146  -0.229208  0.001453  4.015174  0.001
C  C27  1  0.13170857  0.12440948  0.74151260  1  -0.122434  -0.229669  0.001453  4.014764  0.001
C  C28  1  0.13182029  0.37565444  0.24148716  1  -0.122145  -0.229169  0.001453  4.014755  0.001
C  C29  1  0.86827902  0.87559573  0.25848194  1  -0.122407  -0.229641  0.001451  4.014907  0.001
C  C30  1  0.84687775  0.65375199  0.66920088  1  0.018875  0.012074  0.007278  3.968167  0.007
C  C31  1  0.15312273  0.15384135  0.83082385  1  0.018757  0.012171  0.007289  3.96802  0.007
C  C32  1  0.15311149  0.34624451  0.33080777  1  0.018802  0.011904  0.007279  3.968057  0.007
C  C33  1  0.84687407  0.84616675  0.16917033  1  0.018857  0.012246  0.007288  3.968066  0.007
S  S34  1  0.74856769  0.16851253  0.51920671  1  -0.101767  -0.252991  0.075013  2.546693  0.041
S  S35  1  0.25151152  0.66853146  0.98076083  1  -0.101778  -0.253126  0.075033  2.545805  0.041
S  S36  1  0.25144740  0.83147383  0.48079573  1  -0.101781  -0.252983  0.074994  2.546544  0.041
S  S37  1  0.74849446  0.33149405  0.01923429  1  -0.101802  -0.25315  0.075014  2.545553  0.041
N  N38  1  0.20717029  0.35159784  0.55184663  1  -0.39799  -0.48542  0.039397  3.249324  0.013
N  N39  1  0.79285429  0.85168040  0.94809502  1  -0.397965  -0.485403  0.039374  3.248545  0.013
N  N40  1  0.79284298  0.64839431  0.44815447  1  -0.397914  -0.485311  0.039387  3.249182  0.013
N  N41  1  0.20715368  0.14835527  0.05188929  1  -0.397882  -0.485347  0.039379  3.248617  0.013
N  N42  1  0.63738215  0.57460900  0.63335766  1  -0.245284  -0.179658  0.033174  3.447449  0.017
N  N43  1  0.36262643  0.07470749  0.86666750  1  -0.245151  -0.179824  0.033166  3.446833  0.017
N  N44  1  0.36262004  0.42537155  0.36664629  1  -0.245222  -0.179557  0.033174  3.447038  0.017
N  N45  1  0.63738506  0.92529917  0.13332907  1  -0.245294  -0.179794  0.033169  3.446799  0.017
N  N46  1  0.52534316  0.49659731  0.69902369  1  -0.27766  -0.081862  0.002594  3.727406  0.003
N  N47  1  0.47456418  0.99660085  0.80098311  1  -0.277501  -0.081879  0.002599  3.726407  0.003
N  N48  1  0.47465171  0.50339774  0.30097683  1  -0.277801  -0.082175  0.002597  3.727323  0.003
N  N49  1  0.52542893  0.00340435  0.19901096  1  -0.277462  -0.081889  0.002601  3.726172  0.003
