# generated using pymatgen
data_ZnH32C36(N7O3)2
_symmetry_space_group_name_H-M   'P 1'
_cell_length_a   7.21129683
_cell_length_b   8.75323692
_cell_length_c   15.76805672
_cell_angle_alpha   81.56631214
_cell_angle_beta   77.76840319
_cell_angle_gamma   69.03675228
_symmetry_Int_Tables_number   1
_chemical_formula_structural   ZnH32C36(N7O3)2
_chemical_formula_sum   'Zn1 H32 C36 N14 O6'
_cell_volume   905.59290857
_cell_formula_units_Z   1
loop_
 _symmetry_equiv_pos_site_id
 _symmetry_equiv_pos_as_xyz
  1  'x, y, z'
loop_
 _atom_site_type_symbol
 _atom_site_label
 _atom_site_symmetry_multiplicity
 _atom_site_fract_x
 _atom_site_fract_y
 _atom_site_fract_z
 _atom_site_occupancy
 _atom_site_hle17_bader_spin_density
 _atom_site_hle17_ddec_charge
 _atom_site_hle17_ddec_spin_density
 _atom_site_hle17_ddec_sum_bond_order
 _atom_site_hle17_magmom
 _atom_site_hse06_10hf_bader_charge
 _atom_site_hse06_10hf_bader_spin_density
 _atom_site_hse06_10hf_ddec_charge
 _atom_site_hse06_10hf_ddec_spin_density
 _atom_site_hse06_10hf_ddec_sum_bond_order
 _atom_site_hse06_10hf_magmom
 _atom_site_hse06_bader_spin_density
 _atom_site_hse06_ddec_charge
 _atom_site_hse06_ddec_spin_density
 _atom_site_hse06_ddec_sum_bond_order
 _atom_site_hse06_magmom
 _atom_site_pbe_bader_spin_density
 _atom_site_pbe_cm5_charge
 _atom_site_pbe_ddec_charge
 _atom_site_pbe_ddec_spin_density
 _atom_site_pbe_ddec_sum_bond_order
 _atom_site_pbe_magmom
Zn  Zn0  1  0.49999828  0.00000021  0.00000056  1  0  0.945482  0  1.95034  0  1.332796  0  0.762747  0  2.394335  0  0  0.804587  0  2.351768  0  0  0.697961  0.733731  0  2.42344  0
H  H1  1  0.90422192  0.95545584  0.08411958  1  0  0.119221  0  0.945459  0  0.21326  0  0.121488  0  1.020628  0  0  0.125601  0  1.014807  0  0  0.141123  0.11834  0  1.024907  0
H  H2  1  0.09577600  0.04454501  0.91588024  1  0  0.119231  0  0.945415  0  0.21325  0  0.121468  0  1.020614  0  0  0.125581  0  1.014794  0  0  0.141129  0.11832  0  1.024893  0
H  H3  1  0.67434747  0.58792294  0.05842976  1  0  0.105712  0  0.951435  0  0.188616  0  0.107103  0  1.024813  0  0  0.110387  0  1.020686  0  0  0.13207  0.104613  0  1.027873  0
H  H4  1  0.32565187  0.41207791  0.94156992  1  0  0.105715  0  0.95144  0  0.188628  0  0.107106  0  1.024812  0  0  0.110389  0  1.020686  0  0  0.132073  0.104615  0  1.027874  0
H  H5  1  0.48320228  0.83124448  0.20866708  1  0  0.089543  0  0.936408  0  0.107813  0  0.1009  0  0.994721  0  0  0.10252  0  0.99338  0  0  0.134604  0.099661  0  0.995779  0
H  H6  1  0.51679340  0.16875147  0.79133399  1  0  0.08958  0  0.936375  0  0.107833  0  0.100911  0  0.994716  0  0  0.102529  0  0.993378  0  0  0.134619  0.099671  0  0.995773  0
H  H7  1  0.10695563  0.28556385  0.11203235  1  0  0.117028  0  0.95334  0  0.235792  0  0.118053  0  1.030196  0  0  0.121341  0  1.025775  0  0  0.141722  0.115597  0  1.033359  0
H  H8  1  0.89304372  0.71443700  0.88796860  1  0  0.117017  0  0.953391  0  0.235776  0  0.118023  0  1.030248  0  0  0.12131  0  1.025828  0  0  0.141718  0.115571  0  1.033411  0
H  H9  1  0.18059090  0.78510933  0.16493104  1  0  0.091786  0  0.945246  0  0.095783  0  0.106728  0  1.010408  0  0  0.10683  0  1.011353  0  0  0.115806  0.106581  0  1.009794  0
H  H10  1  0.81940803  0.21488907  0.83506825  1  0  0.091719  0  0.945296  0  0.095785  0  0.106678  0  1.010446  0  0  0.106779  0  1.011393  0  0  0.115809  0.10655  0  1.009812  0
H  H11  1  0.27765766  0.57469447  0.14572669  1  0  0.111597  0  0.951332  0  0.167303  0  0.124017  0  1.017827  0  0  0.125692  0  1.015572  0  0  0.118456  0.122693  0  1.019566  0
H  H12  1  0.72234310  0.42530638  0.85427222  1  0  0.111574  0  0.951343  0  0.1673  0  0.123992  0  1.017845  0  0  0.125666  0  1.015593  0  0  0.118453  0.122667  0  1.019587  0
H  H13  1  0.87150276  0.37201970  0.24793773  1  0  0.0956  0  0.942222  0  0.121814  0  0.104977  0  1.014179  0  0  0.10633  0  1.01274  0  0  0.117076  0.103936  0  1.015225  0
H  H14  1  0.12850044  0.62797868  0.75206304  1  0  0.095572  0  0.942227  0  0.121726  0  0.104944  0  1.014206  0  0  0.106298  0  1.012766  0  0  0.117057  0.103903  0  1.015251  0
H  H15  1  0.02057989  0.33073877  0.33051561  1  0  0.082494  0  0.96716  0  0.091791  0  0.093996  0  1.036887  0  0  0.093659  0  1.039398  0  0  0.109246  0.094184  0  1.035165  0
H  H16  1  0.97942383  0.66925838  0.66948584  1  0  0.082486  0  0.967186  0  0.091793  0  0.094038  0  1.036858  0  0  0.093703  0  1.03937  0  0  0.109263  0.094226  0  1.035135  0
H  H17  1  0.77890052  0.76530039  0.29037562  1  0  0.084049  0  0.964126  0  0.040382  0  0.093429  0  1.029335  0  0  0.095691  0  1.029075  0  0  0.096362  0.091838  0  1.029526  0
H  H18  1  0.22109790  0.23469923  0.70962298  1  0  0.084057  0  0.964097  0  0.040441  0  0.093436  0  1.02931  0  0  0.095699  0  1.029049  0  0  0.096376  0.091844  0  1.0295  0
H  H19  1  0.40558871  0.47068592  0.27818329  1  0  0.09582  0  0.951373  0  0.054467  0  0.107967  0  1.009469  0  0  0.110604  0  1.008599  0  0  0.100958  0.106021  0  1.010245  0
H  H20  1  0.59441155  0.52931615  0.72181620  1  0  0.095727  0  0.951459  0  0.054425  0  0.107901  0  1.009544  0  0  0.110539  0  1.008672  0  0  0.100894  0.105961  0  1.010311  0
H  H21  1  0.67101919  0.16537751  0.25399078  1  0  0.095249  0  0.962961  0  0.101676  0  0.103308  0  1.029267  0  0  0.106319  0  1.02762  0  0  0.095305  0.101085  0  1.030532  0
H  H22  1  0.32897915  0.83462579  0.74600943  1  0  0.095117  0  0.963087  0  0.101723  0  0.103237  0  1.029328  0  0  0.106218  0  1.027713  0  0  0.095259  0.101011  0  1.030595  0
H  H23  1  0.92343774  0.21307327  0.46871305  1  0  0.094112  0  0.957571  0  0.075441  0  0.104888  0  1.018271  0  0  0.107073  0  1.018805  0  0  0.09974  0.103318  0  1.017939  0
H  H24  1  0.07656496  0.78692634  0.53128767  1  0  0.094029  0  0.957618  0  0.075497  0  0.104841  0  1.018276  0  0  0.107007  0  1.018845  0  0  0.099742  0.103271  0  1.017945  0
H  H25  1  0.71167941  0.68065560  0.44422309  1  0  0.087662  0  0.981026  0  0.071142  0  0.099721  0  1.040757  0  0  0.102008  0  1.040528  0  0  0.098552  0.098062  0  1.041046  0
H  H26  1  0.28832327  0.31934401  0.55577446  1  0  0.087672  0  0.981008  0  0.071253  0  0.099711  0  1.040759  0  0  0.101999  0  1.040527  0  0  0.098543  0.098055  0  1.041042  0
H  H27  1  0.34308181  0.39106362  0.43325776  1  0  0.088711  0  0.985298  0  0.085953  0  0.099424  0  1.047273  0  0  0.101397  0  1.047757  0  0  0.098306  0.097935  0  1.047112  0
H  H28  1  0.65691754  0.60893722  0.56674255  1  0  0.088698  0  0.985267  0  0.086009  0  0.099406  0  1.047248  0  0  0.101405  0  1.0477  0  0  0.09827  0.097919  0  1.047086  0
H  H29  1  0.45071555  0.03506537  0.35464586  1  0  0.080519  0  1.016661  0  0.085704  0  0.087203  0  1.086344  0  0  0.089949  0  1.085344  0  0  0.093458  0.08524  0  1.08711  0
H  H30  1  0.54928289  0.96493425  0.64535591  1  0  0.080544  0  1.016616  0  0.085674  0  0.087214  0  1.086324  0  0  0.08996  0  1.085326  0  0  0.093465  0.08525  0  1.087092  0
H  H31  1  0.71339535  0.07697517  0.56912301  1  0  0.092499  0  0.986934  0  0.103898  0  0.09819  0  1.056727  0  0  0.101974  0  1.053903  0  0  0.096754  0.095444  0  1.058806  0
H  H32  1  0.28660776  0.92302689  0.43087810  1  0  0.092543  0  0.986952  0  0.103884  0  0.098246  0  1.056726  0  0  0.102021  0  1.053911  0  0  0.096779  0.095501  0  1.058804  0
C  C33  1  0.87688434  0.83992788  0.08886180  1  0  0.176323  0  3.615736  0  1.016426  0  0.095511  0  3.884597  0  0  0.110351  0  3.893785  0  0  0.162493  0.086185  0  3.878102  0
C  C34  1  0.12311409  0.16007174  0.91113807  1  0  0.176394  0  3.615626  0  1.016861  0  0.095637  0  3.884501  0  0  0.110476  0  3.893689  0  0  0.162512  0.086308  0  3.878005  0
C  C35  1  0.76335503  0.65044100  0.07722619  1  0  0.193121  0  3.697489  0  0.971984  0  0.13893  0  3.990597  0  0  0.150292  0  4.002189  0  0  0.143244  0.131586  0  3.982626  0
C  C36  1  0.23664431  0.34955984  0.92277349  1  0  0.193067  0  3.697537  0  0.971946  0  0.138918  0  3.990646  0  0  0.150279  0  4.00224  0  0  0.14323  0.131571  0  3.982675  0
C  C37  1  0.36536007  0.94976188  0.20440450  1  0  0.183541  0  3.734263  0  1.010373  0  0.133118  0  4.022109  0  0  0.143959  0  4.035261  0  0  0.140314  0.126116  0  4.012947  0
C  C38  1  0.63463703  0.05023407  0.79559580  1  0  0.183525  0  3.734389  0  1.010367  0  0.133114  0  4.022234  0  0  0.143956  0  4.035385  0  0  0.140295  0.126111  0  4.01307  0
C  C39  1  0.17752335  0.17811219  0.15272829  1  0  0.201499  0  3.597969  0  1.03682  0  0.122028  0  3.865632  0  0  0.136912  0  3.876083  0  0  0.169961  0.112579  0  3.858328  0
C  C40  1  0.82247651  0.82188742  0.84727334  1  0  0.201489  0  3.598098  0  1.036706  0  0.122088  0  3.865746  0  0  0.136974  0  3.876197  0  0  0.169945  0.112631  0  3.858447  0
C  C41  1  0.14527430  0.67102441  0.17652442  1  0  -0.068119  0  3.648734  0  0.25526  0  -0.149137  0  3.897042  0  0  -0.1454  0  3.907334  0  0  -0.046719  -0.151324  0  3.889963  0
C  C42  1  0.85472454  0.32897766  0.82347521  1  0  -0.068063  0  3.648715  0  0.255277  0  -0.149079  0  3.897049  0  0  -0.145342  0  3.907342  0  0  -0.046765  -0.151282  0  3.889962  0
C  C43  1  0.95076146  0.27592675  0.29355353  1  0  -0.059527  0  3.648101  0  0.281491  0  -0.140036  0  3.895444  0  0  -0.135872  0  3.905703  0  0  -0.045623  -0.14251  0  3.888284  0
C  C44  1  0.04924316  0.72407163  0.70644774  1  0  -0.059537  0  3.64815  0  0.281559  0  -0.14004  0  3.895535  0  0  -0.135877  0  3.905791  0  0  -0.045626  -0.142513  0  3.888371  0
C  C45  1  0.09735017  0.62405536  0.27237613  1  0  0.075658  0  3.76015  0  -0.023179  0  0.091835  0  4.007787  0  0  0.091289  0  4.032119  0  0  -0.012554  0.092268  0  3.991116  0
C  C46  1  0.90264926  0.37594180  0.72762257  1  0  0.075729  0  3.760037  0  -0.023132  0  0.091826  0  4.007785  0  0  0.091279  0  4.032117  0  0  -0.01254  0.092258  0  3.991116  0
C  C47  1  0.81407999  0.19695834  0.35426974  1  0  0.067684  0  3.762681  0  0.050269  0  0.086864  0  4.005389  0  0  0.086045  0  4.029162  0  0  -0.016292  0.087438  0  3.989143  0
C  C48  1  0.18591937  0.80304250  0.64573121  1  0  0.067675  0  3.762599  0  0.050364  0  0.086773  0  4.005451  0  0  0.08596  0  4.029209  0  0  -0.016304  0.087348  0  3.989201  0
C  C49  1  0.90356373  0.68190724  0.32121272  1  0  -0.112552  0  3.763636  0  -0.109489  0  -0.133559  0  4.014295  0  0  -0.136217  0  4.036257  0  0  -0.094202  -0.131662  0  3.999272  0
C  C50  1  0.09643469  0.31809238  0.67878588  1  0  -0.112578  0  3.763599  0  -0.109499  0  -0.13356  0  4.014274  0  0  -0.136218  0  4.036235  0  0  -0.094211  -0.131664  0  3.999248  0
C  C51  1  0.25338256  0.51971616  0.31505007  1  0  -0.121151  0  3.757897  0  -0.012733  0  -0.138343  0  4.000649  0  0  -0.141323  0  4.022154  0  0  -0.094049  -0.13626  0  3.986008  0
C  C52  1  0.74661677  0.48028469  0.68494834  1  0  -0.121067  0  3.757814  0  -0.012679  0  -0.13826  0  4.000586  0  0  -0.141241  0  4.022099  0  0  -0.093999  -0.136182  0  3.985938  0
C  C53  1  0.67941320  0.14553654  0.32335526  1  0  -0.113995  0  3.751596  0  -0.133603  0  -0.134115  0  4.001227  0  0  -0.136683  0  4.022816  0  0  -0.095625  -0.132239  0  3.986517  0
C  C54  1  0.32058655  0.85446675  0.67664481  1  0  -0.113873  0  3.751542  0  -0.133362  0  -0.133994  0  4.001177  0  0  -0.136539  0  4.022789  0  0  -0.095577  -0.132121  0  3.986471  0
C  C55  1  0.82040242  0.17276953  0.44339935  1  0  -0.102804  0  3.746741  0  -0.083843  0  -0.121396  0  3.989434  0  0  -0.123396  0  4.010905  0  0  -0.088907  -0.119943  0  3.974796  0
C  C56  1  0.17959968  0.82723499  0.55660166  1  0  -0.102697  0  3.746687  0  -0.084189  0  -0.121298  0  3.989423  0  0  -0.123289  0  4.010891  0  0  -0.08893  -0.119846  0  3.974786  0
C  C57  1  0.86571643  0.63373997  0.40942302  1  0  -0.098565  0  3.731975  0  0.015401  0  -0.114841  0  3.973707  0  0  -0.116878  0  3.994552  0  0  -0.087722  -0.11335  0  3.959531  0
C  C58  1  0.13428341  0.36625965  0.59057544  1  0  -0.098615  0  3.731987  0  0.015261  0  -0.114875  0  3.973726  0  0  -0.116913  0  3.99457  0  0  -0.087742  -0.113385  0  3.959546  0
C  C59  1  0.21635479  0.47357753  0.40365061  1  0  -0.104554  0  3.739648  0  -0.134144  0  -0.12258  0  3.984473  0  0  -0.124224  0  4.004901  0  0  -0.089553  -0.121283  0  3.97054  0
C  C60  1  0.78364455  0.52642331  0.59634843  1  0  -0.104556  0  3.739574  0  -0.134272  0  -0.122577  0  3.984396  0  0  -0.124241  0  4.00481  0  0  -0.089501  -0.121278  0  3.970459  0
C  C61  1  0.55657884  0.07046192  0.38049897  1  0  -0.111794  0  3.754983  0  -0.095398  0  -0.129742  0  4.004567  0  0  -0.133097  0  4.026769  0  0  -0.095931  -0.12738  0  3.989461  0
C  C62  1  0.44342385  0.92953769  0.61950048  1  0  -0.111819  0  3.754965  0  -0.095359  0  -0.129788  0  4.004599  0  0  -0.133146  0  4.026802  0  0  -0.095998  -0.127425  0  3.989489  0
C  C63  1  0.69895123  0.09588831  0.50058005  1  0  -0.112702  0  3.733928  0  -0.073705  0  -0.128375  0  3.977944  0  0  -0.131142  0  3.997841  0  0  -0.092563  -0.126389  0  3.964427  0
C  C64  1  0.30104996  0.90411498  0.49942179  1  0  -0.112811  0  3.733989  0  -0.073707  0  -0.128486  0  3.978003  0  0  -0.131244  0  3.9979  0  0  -0.092617  -0.126501  0  3.964489  0
C  C65  1  0.02071700  0.52719988  0.45313730  1  0  0.0386  0  3.7759  0  0.063497  0  0.051237  0  4.012751  0  0  0.051447  0  4.035121  0  0  -0.011048  0.051058  0  3.997563  0
C  C66  1  0.97928476  0.47279851  0.54686107  1  0  0.038616  0  3.775948  0  0.030514  0  0.051247  0  4.012801  0  0  0.051458  0  4.035176  0  0  -0.01104  0.051066  0  3.997614  0
C  C67  1  0.56471155  0.04172385  0.47017966  1  0  0.041542  0  3.776153  0  0.026622  0  0.055035  0  4.00948  0  0  0.055102  0  4.033683  0  0  -0.010743  0.054969  0  3.993064  0
C  C68  1  0.43528770  0.95828067  0.52982036  1  0  0.041549  0  3.776184  0  -0.010318  0  0.055048  0  4.009508  0  0  0.055116  0  4.033711  0  0  -0.010644  0.054983  0  3.993092  0
N  N69  1  0.73738523  0.81289136  0.05475774  1  0  -0.405578  0  3.241816  0  -1.264311  0  -0.331557  0  3.536247  0  0  -0.352582  0  3.548901  0  0  -0.343031  -0.317341  0  3.527146  0
N  N70  1  0.26261269  0.18710949  0.94524207  1  0  -0.405584  0  3.241768  0  -1.264687  0  -0.331661  0  3.536282  0  0  -0.352685  0  3.548933  0  0  -0.343072  -0.317439  0  3.527175  0
N  N71  1  0.33775288  0.04664823  0.12867839  1  0  -0.405599  0  3.232625  0  -1.27001  0  -0.333732  0  3.526874  0  0  -0.356063  0  3.541458  0  0  -0.345396  -0.318756  0  3.516666  0
N  N72  1  0.66224321  0.95335017  0.87132244  1  0  -0.405701  0  3.232787  0  -1.269978  0  -0.333823  0  3.526998  0  0  -0.356153  0  3.54158  0  0  -0.34541  -0.318847  0  3.516793  0
N  N73  1  0.36565475  0.73685343  0.94021629  1  0  0.695964  0  4.138774  0  0.845187  0  0.728084  0  4.432894  0  0  0.756185  0  4.437966  0  0  0.098072  0.709177  0  4.429055  0
N  N74  1  0.63434651  0.26314619  0.05978267  1  0  0.695997  0  4.13863  0  0.845198  0  0.728039  0  4.432825  0  0  0.756136  0  4.437902  0  0  0.098087  0.709135  0  4.428984  0
N  N75  1  0.98008572  0.69966200  0.13006062  1  0  0.057649  0  3.562369  0  -0.879091  0  0.177883  0  3.748295  0  0  0.167929  0  3.771476  0  0  -0.130791  0.183454  0  3.73415  0
N  N76  1  0.01991362  0.30033884  0.86993906  1  0  0.057582  0  3.562393  0  -0.879124  0  0.177838  0  3.748281  0  0  0.167882  0  3.771464  0  0  -0.130772  0.183408  0  3.734139  0
N  N77  1  0.91029536  0.57697422  0.12329276  1  0  -0.27093  0  2.866228  0  -0.691839  0  -0.266455  0  3.134187  0  0  -0.275378  0  3.148212  0  0  -0.215047  -0.260219  0  3.124713  0
N  N78  1  0.08970590  0.42302539  0.87670620  1  0  -0.270894  0  2.866327  0  -0.691849  0  -0.266423  0  3.134264  0  0  -0.275346  0  3.148291  0  0  -0.215038  -0.260188  0  3.12479  0
N  N79  1  0.23220095  0.01336450  0.27312223  1  0  -0.261977  0  2.863915  0  -0.709115  0  -0.257979  0  3.124085  0  0  -0.265093  0  3.136713  0  0  -0.215745  -0.252929  0  3.11552  0
N  N80  1  0.76779708  0.98663267  0.72687851  1  0  -0.261958  0  2.863867  0  -0.709015  0  -0.257917  0  3.124056  0  0  -0.265028  0  3.136683  0  0  -0.215745  -0.252867  0  3.115488  0
N  N81  1  0.11402319  0.15865159  0.23865817  1  0  0.055339  0  3.516227  0  -0.845182  0  0.178013  0  3.700025  0  0  0.167376  0  3.722698  0  0  -0.12388  0.184008  0  3.686256  0
N  N82  1  0.88597860  0.84134679  0.76134337  1  0  0.055456  0  3.516126  0  -0.845188  0  0.178019  0  3.700035  0  0  0.167369  0  3.722732  0  0  -0.123817  0.184015  0  3.686264  0
O  O83  1  0.32942680  0.83283352  0.00140943  1  0  -0.528099  0  1.845409  0  -0.62537  0  -0.502815  0  2.100699  0  0  -0.520938  0  2.092279  0  0  -0.218241  -0.490045  0  2.106064  0
O  O84  1  0.67057112  0.16716733  0.99858975  1  0  -0.52809  0  1.845352  0  -0.625384  0  -0.502816  0  2.10072  0  0  -0.520924  0  2.092277  0  0  -0.218248  -0.490047  0  2.106087  0
O  O85  1  0.53784549  0.63183405  0.92257851  1  0  -0.449798  0  1.770712  0  -0.541072  0  -0.446128  0  1.989078  0  0  -0.4588  0  1.982324  0  0  -0.183773  -0.437252  0  1.993562  0
O  O86  1  0.46215528  0.36816679  0.07742167  1  0  -0.44985  0  1.770621  0  -0.541082  0  -0.446144  0  1.989002  0  0  -0.458816  0  1.982252  0  0  -0.183806  -0.437261  0  1.99347  0
O  O87  1  0.22537540  0.75176542  0.90033986  1  0  -0.463464  0  1.728016  0  -0.553552  0  -0.46044  0  1.943091  0  0  -0.473384  0  1.936607  0  0  -0.195138  -0.451292  0  1.947282  0
O  O88  1  0.77462597  0.24823051  0.09966066  1  0  -0.463464  0  1.727975  0  -0.553554  0  -0.460407  0  1.943068  0  0  -0.473365  0  1.93662  0  0  -0.195125  -0.451265  0  1.947263  0
