# generated using pymatgen
data_ZnH8C9NO4
_symmetry_space_group_name_H-M   'P 1'
_cell_length_a   6.27621620
_cell_length_b   7.89310106
_cell_length_c   10.02372558
_cell_angle_alpha   101.36371492
_cell_angle_beta   103.97237077
_cell_angle_gamma   104.74178390
_symmetry_Int_Tables_number   1
_chemical_formula_structural   ZnH8C9NO4
_chemical_formula_sum   'Zn2 H16 C18 N2 O8'
_cell_volume   447.98518202
_cell_formula_units_Z   2
loop_
 _symmetry_equiv_pos_site_id
 _symmetry_equiv_pos_as_xyz
  1  'x, y, z'
loop_
 _atom_site_type_symbol
 _atom_site_label
 _atom_site_symmetry_multiplicity
 _atom_site_fract_x
 _atom_site_fract_y
 _atom_site_fract_z
 _atom_site_occupancy
 _atom_site_hle17_bader_spin_density
 _atom_site_hle17_ddec_charge
 _atom_site_hle17_ddec_spin_density
 _atom_site_hle17_ddec_sum_bond_order
 _atom_site_hle17_magmom
 _atom_site_hse06_10hf_bader_spin_density
 _atom_site_hse06_10hf_ddec_charge
 _atom_site_hse06_10hf_ddec_spin_density
 _atom_site_hse06_10hf_ddec_sum_bond_order
 _atom_site_hse06_10hf_magmom
 _atom_site_hse06_bader_spin_density
 _atom_site_hse06_ddec_charge
 _atom_site_hse06_ddec_spin_density
 _atom_site_hse06_ddec_sum_bond_order
 _atom_site_hse06_magmom
 _atom_site_pbe_bader_spin_density
 _atom_site_pbe_cm5_charge
 _atom_site_pbe_ddec_charge
 _atom_site_pbe_ddec_spin_density
 _atom_site_pbe_ddec_sum_bond_order
 _atom_site_pbe_magmom
Zn  Zn0  1  0.55048165  0.57925346  0.15263219  1  0  1.033508  0  1.871252  0  0  0.860286  0  2.337973  0  0  0.913265  0  2.272812  0  0  0.670774  0.823639  0  2.382074  0
Zn  Zn1  1  0.44951841  0.42074518  0.84736735  1  0  1.033539  0  1.871185  0  0  0.860349  0  2.337895  0  0  0.913326  0  2.272738  0  0  0.670813  0.823697  0  2.382008  0
H  H2  1  0.86476134  0.85342631  0.42056128  1  0  0.080382  0  0.95094  0  0  0.090681  0  1.013828  0  0  0.092785  0  1.01228  0  0  0.119029  0.088971  0  1.01534  0
H  H3  1  0.13524246  0.14656557  0.57943560  1  0  0.080323  0  0.95094  0  0  0.090653  0  1.013806  0  0  0.092755  0  1.012259  0  0  0.119019  0.088946  0  1.015321  0
H  H4  1  0.84749766  0.99829313  0.66413376  1  0  0.112999  0  0.976915  0  0  0.118436  0  1.044538  0  0  0.12217  0  1.042856  0  0  0.106806  0.115698  0  1.045957  0
H  H5  1  0.15249584  0.00169733  0.33586351  1  0  0.112994  0  0.976867  0  0  0.118424  0  1.044501  0  0  0.122156  0  1.042823  0  0  0.106798  0.115686  0  1.04592  0
H  H6  1  0.47724029  0.88556263  0.72195218  1  0  0.101323  0  0.941096  0  0  0.113319  0  0.999867  0  0  0.115531  0  0.998027  0  0  0.111969  0.111682  0  1.001204  0
H  H7  1  0.52276311  0.11443192  0.27804810  1  0  0.101314  0  0.941131  0  0  0.113319  0  0.999886  0  0  0.115536  0  0.998039  0  0  0.111956  0.111681  0  1.001217  0
H  H8  1  0.14322403  0.64038450  0.53651004  1  0  0.104853  0  0.951171  0  0  0.116267  0  1.008778  0  0  0.119272  0  1.008061  0  0  0.109615  0.11385  0  1.009998  0
H  H9  1  0.85676817  0.35961556  0.46348473  1  0  0.104814  0  0.951224  0  0  0.116234  0  1.00882  0  0  0.119239  0  1.008102  0  0  0.109597  0.113832  0  1.010021  0
H  H10  1  0.18498722  0.51890881  0.29572035  1  0  0.096721  0  0.953657  0  0  0.101949  0  1.021618  0  0  0.104871  0  1.018817  0  0  0.120033  0.09971  0  1.023778  0
H  H11  1  0.81501090  0.48108993  0.70427298  1  0  0.096702  0  0.953549  0  0  0.101908  0  1.021542  0  0  0.104824  0  1.018739  0  0  0.120038  0.099668  0  1.023704  0
H  H12  1  0.70980733  0.02418861  0.11089943  1  0  0.11661  0  0.943703  0  0  0.130393  0  1.006  0  0  0.133003  0  1.005082  0  0  0.102349  0.128558  0  1.006659  0
H  H13  1  0.29020271  0.97582225  0.88910653  1  0  0.116696  0  0.94357  0  0  0.13041  0  1.005926  0  0  0.133018  0  1.005012  0  0  0.10235  0.12858  0  1.006584  0
H  H14  1  0.97769149  0.19510413  0.20751439  1  0  0.102582  0  0.9463  0  0  0.115086  0  1.013695  0  0  0.117805  0  1.012474  0  0  0.096511  0.113086  0  1.014812  0
H  H15  1  0.02231672  0.80490272  0.79248664  1  0  0.102586  0  0.9463  0  0  0.115069  0  1.013683  0  0  0.117785  0  1.012466  0  0  0.096499  0.113082  0  1.014788  0
H  H16  1  0.80588204  0.01826306  0.88327313  1  0  0.081078  0  0.942624  0  0  0.091492  0  1.004811  0  0  0.093686  0  1.003923  0  0  0.102438  0.089893  0  1.005576  0
H  H17  1  0.19411865  0.98173691  0.11672873  1  0  0.081059  0  0.94257  0  0  0.09149  0  1.004808  0  0  0.093684  0  1.003923  0  0  0.102446  0.089892  0  1.005571  0
C  C18  1  0.70911054  0.81151927  0.45201878  1  0  0.110826  0  3.708554  0  0  0.081735  0  3.952056  0  0  0.088038  0  3.972574  0  0  0.046282  0.077721  0  3.938161  0
C  C19  1  0.29088784  0.18847122  0.54797814  1  0  0.110978  0  3.708628  0  0  0.081883  0  3.95212  0  0  0.088189  0  3.97264  0  0  0.046336  0.077861  0  3.938231  0
C  C20  1  0.69846754  0.88989861  0.58629931  1  0  -0.135221  0  3.742482  0  0  -0.146137  0  3.994489  0  0  -0.15468  0  4.017603  0  0  -0.084786  -0.140444  0  3.978921  0
C  C21  1  0.30152914  0.11009597  0.41369710  1  0  -0.135263  0  3.742465  0  0  -0.146163  0  3.994468  0  0  -0.154707  0  4.017584  0  0  -0.084776  -0.140476  0  3.978905  0
C  C22  1  0.49262014  0.82805353  0.61798783  1  0  0.017798  0  3.69022  0  0  -0.004045  0  3.940255  0  0  0.000479  0  3.958878  0  0  -0.058433  -0.006766  0  3.927332  0
C  C23  1  0.50737753  0.17194790  0.38200790  1  0  0.017754  0  3.690293  0  0  -0.004103  0  3.940337  0  0  0.000418  0  3.958956  0  0  -0.058454  -0.006822  0  3.92741  0
C  C24  1  0.30531626  0.69193853  0.51430508  1  0  -0.116411  0  3.726329  0  0  -0.128445  0  3.977273  0  0  -0.136102  0  3.999166  0  0  -0.077942  -0.123719  0  3.962949  0
C  C25  1  0.69468187  0.30805613  0.48568754  1  0  -0.116281  0  3.726268  0  0  -0.128308  0  3.977198  0  0  -0.135965  0  3.99909  0  0  -0.077872  -0.123596  0  3.962866  0
C  C26  1  0.32787172  0.62236281  0.38152399  1  0  0.13401  0  3.656535  0  0  0.101808  0  3.904387  0  0  0.108987  0  3.92287  0  0  0.052463  0.097355  0  3.891944  0
C  C27  1  0.67211984  0.37763592  0.61846847  1  0  0.133969  0  3.65633  0  0  0.101807  0  3.904226  0  0  0.108996  0  3.922702  0  0  0.052429  0.097354  0  3.891782  0
C  C28  1  0.72952156  0.28236251  0.07431055  1  0  0.718139  0  3.812866  0  0  0.671637  0  4.107598  0  0  0.705827  0  4.100985  0  0  0.213931  0.648322  0  4.111431  0
C  C29  1  0.27048570  0.71764156  0.92569287  1  0  0.718231  0  3.812794  0  0  0.671768  0  4.107419  0  0  0.70596  0  4.100798  0  0  0.214022  0.648446  0  4.111267  0
C  C30  1  0.84352031  0.13989152  0.10312978  1  0  -0.283538  0  3.672482  0  0  -0.332664  0  3.927991  0  0  -0.338117  0  3.934447  0  0  -0.171914  -0.32881  0  3.92349  0
C  C31  1  0.15648540  0.86011251  0.89687543  1  0  -0.283799  0  3.672523  0  0  -0.332775  0  3.928005  0  0  -0.338224  0  3.934461  0  0  -0.171989  -0.328934  0  3.923513  0
C  C32  1  0.94429204  0.07460206  0.98569664  1  0  -0.099233  0  3.607385  0  0  -0.107183  0  3.844181  0  0  -0.111706  0  3.856885  0  0  -0.084947  -0.104136  0  3.835509  0
C  C33  1  0.05570805  0.92540065  0.01430461  1  0  -0.098922  0  3.607072  0  0  -0.107093  0  3.844068  0  0  -0.11162  0  3.856779  0  0  -0.084872  -0.104047  0  3.835395  0
C  C34  1  0.12739792  0.23409500  0.97135362  1  0  0.690785  0  3.796172  0  0  0.641821  0  4.088634  0  0  0.675933  0  4.082176  0  0  0.217607  0.618574  0  4.092447  0
C  C35  1  0.87260538  0.76590367  0.02864535  1  0  0.690726  0  3.795934  0  0  0.641756  0  4.088518  0  0  0.675869  0  4.082053  0  0  0.217536  0.618516  0  4.092324  0
N  N36  1  0.52783397  0.68066675  0.35154363  1  0  -0.312085  0  3.286415  0  0  -0.227292  0  3.554027  0  0  -0.247607  0  3.570201  0  0  -0.326998  -0.213726  0  3.542861  0
N  N37  1  0.47215709  0.31933060  0.64844953  1  0  -0.312105  0  3.2864  0  0  -0.227404  0  3.554134  0  0  -0.247713  0  3.570286  0  0  -0.327025  -0.213826  0  3.54296  0
O  O38  1  0.73679823  0.40250414  0.18239402  1  0  -0.637939  0  2.038439  0  0  -0.573092  0  2.302352  0  0  -0.60166  0  2.28972  0  0  -0.319408  -0.553099  0  2.310181  0
O  O39  1  0.26320931  0.59750391  0.81761612  1  0  -0.637952  0  2.038546  0  0  -0.573136  0  2.302436  0  0  -0.601704  0  2.289813  0  0  -0.319429  -0.553134  0  2.31027  0
O  O40  1  0.62881656  0.26754368  0.94412357  1  0  -0.645581  0  2.062116  0  0  -0.579555  0  2.324901  0  0  -0.608542  0  2.312349  0  0  -0.318521  -0.55935  0  2.332748  0
O  O41  1  0.37118555  0.73246299  0.05588661  1  0  -0.645632  0  2.061903  0  0  -0.579617  0  2.324664  0  0  -0.608606  0  2.31211  0  0  -0.318584  -0.559408  0  2.332512  0
O  O42  1  0.14905312  0.23057740  0.84771482  1  0  -0.631288  0  2.034739  0  0  -0.565592  0  2.291398  0  0  -0.593535  0  2.278748  0  0  -0.314853  -0.546125  0  2.299467  0
O  O43  1  0.85094726  0.76942929  0.15229315  1  0  -0.631325  0  2.034432  0  0  -0.565597  0  2.29108  0  0  -0.59354  0  2.278431  0  0  -0.314844  -0.546127  0  2.299139  0
O  O44  1  0.25113663  0.35619801  0.08667083  1  0  -0.640376  0  2.079516  0  0  -0.570919  0  2.343754  0  0  -0.599705  0  2.331205  0  0  -0.312025  -0.5509  0  2.351629  0
O  O45  1  0.74886475  0.64380736  0.91333504  1  0  -0.640346  0  2.079663  0  0  -0.57086  0  2.343856  0  0  -0.599673  0  2.331369  0  0  -0.311972  -0.550852  0  2.351745  0
