# generated using pymatgen
data_Zr3H26C54N9O16
_symmetry_space_group_name_H-M   'P 1'
_cell_length_a   19.01604536
_cell_length_b   19.02173820
_cell_length_c   19.16165884
_cell_angle_alpha   91.02883724
_cell_angle_beta   91.44358471
_cell_angle_gamma   91.41415808
_symmetry_Int_Tables_number   1
_chemical_formula_structural   Zr3H26C54N9O16
_chemical_formula_sum   'Zr6 H52 C108 N18 O32'
_cell_volume   6925.61433320
_cell_formula_units_Z   2
loop_
 _symmetry_equiv_pos_site_id
 _symmetry_equiv_pos_as_xyz
  1  'x, y, z'
loop_
 _atom_site_type_symbol
 _atom_site_label
 _atom_site_symmetry_multiplicity
 _atom_site_fract_x
 _atom_site_fract_y
 _atom_site_fract_z
 _atom_site_occupancy
 _atom_site_pbe_bader_charge
 _atom_site_pbe_bader_spin_density
 _atom_site_pbe_cm5_charge
 _atom_site_pbe_ddec_charge
 _atom_site_pbe_ddec_spin_density
 _atom_site_pbe_ddec_sum_bond_order
 _atom_site_pbe_magmom
Zr  Zr0  1  0.81496172  0.94034927  0.85591839  1  2.631018  0  1.621807  2.373011  0  2.762621  0
Zr  Zr1  1  0.76419822  0.84286167  0.00244296  1  2.629715  0  1.623354  2.371464  0  2.772406  0
Zr  Zr2  1  0.98513227  0.96621216  0.93104170  1  2.627867  0  1.624942  2.37143  0  2.772882  0
Zr  Zr3  1  0.91300945  0.79402987  0.90765168  1  2.630758  0  1.622914  2.372185  0  2.769559  0
Zr  Zr4  1  0.83648139  0.01395524  0.02636066  1  2.629762  0  1.624103  2.371777  0  2.768108  0
Zr  Zr5  1  0.93546088  0.86773666  0.07703246  1  2.631149  0  1.624006  2.371429  0  2.767762  0
H  H6  1  0.77057253  0.79744636  0.86067268  1  0.607599  0  0.331499  0.422972  0  0.85954  0
H  H7  1  0.88402933  0.06971149  0.90161883  1  0.623998  0  0.33101  0.423992  0  0.857845  0
H  H8  1  0.04093047  0.84069648  0.97790068  1  0.635733  0  0.331879  0.425649  0  0.855584  0
H  H9  1  0.80847207  0.91342695  0.13027785  1  0.602667  0  0.331857  0.424663  0  0.856946  0
H  H10  1  0.25626575  0.75052613  0.74158912  1  0.074823  0  0.108389  0.109655  0  0.992763  0
H  H11  1  0.19281255  0.94788537  0.65696008  1  0.087721  0  0.108911  0.111493  0  0.990358  0
H  H12  1  0.09309803  0.95056148  0.74020041  1  0.086244  0  0.107592  0.110497  0  1.006641  0
H  H13  1  0.14786748  0.74590668  0.81328446  1  0.071737  0  0.106766  0.108286  0  0.995881  0
H  H14  1  0.55272072  0.88477594  0.64098079  1  0.090058  0  0.109329  0.11115  0  1.003279  0
H  H15  1  0.42031915  0.82365072  0.80912052  1  0.130756  0  0.106696  0.107156  0  1.011474  0
H  H16  1  0.52427715  0.83088750  0.89262724  1  0.094959  0  0.110595  0.115262  0  0.983028  0
H  H17  1  0.65581870  0.89468778  0.72461286  1  0.102125  0  0.111623  0.11809  0  0.997027  0
H  H18  1  0.19379460  0.93850394  0.29459737  1  0.077116  0  0.109377  0.111353  0  1.002339  0
H  H19  1  0.32571157  0.99428319  0.12422223  1  0.108582  0  0.10688  0.107368  0  1.012123  0
H  H20  1  0.22107190  0.98661747  0.04158231  1  0.095676  0  0.110113  0.114582  0  0.9855  0
H  H21  1  0.08987736  0.92810564  0.21161682  1  0.133051  0  0.111577  0.118646  0  0.996979  0
H  H22  1  0.55553589  0.86893656  0.27569829  1  0.099415  0  0.10921  0.112247  0  0.991146  0
H  H23  1  0.48774567  0.06128126  0.18354037  1  0.097526  0  0.108576  0.109291  0  0.996086  0
H  H24  1  0.59430651  0.06382728  0.10933727  1  0.051041  0  0.107817  0.109168  0  0.998328  0
H  H25  1  0.65350100  0.86361903  0.19064275  1  0.07617  0  0.105568  0.106873  0  1.007981  0
H  H26  1  0.66210975  0.29488058  0.81885031  1  0.088515  0  0.108037  0.108697  0  0.999901  0
H  H27  1  0.55066260  0.21209506  0.99307587  1  0.09036  0  0.108784  0.111177  0  0.994766  0
H  H28  1  0.63094765  0.10920941  0.99532618  1  0.088563  0  0.106372  0.107621  0  1.005302  0
H  H29  1  0.73268002  0.18553261  0.81234497  1  0.043455  0  0.106512  0.107293  0  0.995159  0
H  H30  1  0.54929863  0.58258313  0.94216073  1  0.119957  0  0.109498  0.11192  0  1.00238  0
H  H31  1  0.72040559  0.44829329  0.89311493  1  0.092894  0  0.106584  0.106727  0  1.012851  0
H  H32  1  0.80474393  0.55212948  0.90067852  1  0.109708  0  0.110238  0.11436  0  0.983806  0
H  H33  1  0.63361805  0.68562038  0.95213914  1  0.085023  0  0.111069  0.117224  0  0.997974  0
H  H34  1  0.11894892  0.11931311  0.99209992  1  0.106879  0  0.111496  0.118481  0  0.998077  0
H  H35  1  0.94795369  0.25047124  0.04938548  1  0.097707  0  0.10954  0.114089  0  0.986678  0
H  H36  1  0.03162363  0.35469225  0.05830108  1  0.120161  0  0.106573  0.106882  0  1.011973  0
H  H37  1  0.20287094  0.22288524  0.00344886  1  0.084468  0  0.109567  0.111909  0  1.003007  0
H  H38  1  0.08502076  0.51149598  0.12177117  1  0.08228  0  0.108567  0.109088  0  0.996613  0
H  H39  1  0.19319852  0.59043812  0.94382092  1  0.10883  0  0.108912  0.11123  0  0.992711  0
H  H40  1  0.11056255  0.69098590  0.93838744  1  0.069487  0  0.105209  0.106836  0  1.002408  0
H  H41  1  0.01200782  0.61930160  0.12496897  1  0.067382  0  0.107073  0.107981  0  0.999572  0
H  H42  1  0.73930914  0.70060807  0.36452716  1  0.083326  0  0.107616  0.107554  0  1.001406  0
H  H43  1  0.90081657  0.57713949  0.27323023  1  0.100099  0  0.108362  0.109869  0  0.996873  0
H  H44  1  0.90013054  0.65549092  0.16933056  1  0.078174  0  0.106195  0.107294  0  1.003595  0
H  H45  1  0.72986804  0.77087427  0.25587873  1  0.05024  0  0.104843  0.105084  0  0.998888  0
H  H46  1  0.80580527  0.75025853  0.51384436  1  0.089474  0  0.106347  0.106801  0  1.01299  0
H  H47  1  0.86369408  0.57934042  0.64546365  1  0.104142  0  0.108687  0.11132  0  1.002646  0
H  H48  1  0.87101630  0.66216220  0.74852066  1  0.114164  0  0.11151  0.118411  0  0.995216  0
H  H49  1  0.81047606  0.83286681  0.61764821  1  0.097568  0  0.110209  0.115056  0  0.98452  0
H  H50  1  0.89026478  0.14911603  0.18121700  1  0.09618  0  0.111503  0.117831  0  0.996938  0
H  H51  1  0.95808247  0.97859224  0.30863126  1  0.088622  0  0.109237  0.113718  0  0.986427  0
H  H52  1  0.96588954  0.06058855  0.41277272  1  0.095418  0  0.106097  0.105291  0  1.015609  0
H  H53  1  0.90121848  0.23174203  0.28460283  1  0.11496  0  0.10936  0.111501  0  1.001521  0
H  H54  1  0.87888643  0.23871722  0.66266358  1  0.130474  0  0.109453  0.111403  0  0.997715  0
H  H55  1  0.00379868  0.08694693  0.55664079  1  0.10928  0  0.107765  0.106616  0  1.010393  0
H  H56  1  0.00590612  0.01253347  0.66249305  1  0.034306  0  0.107184  0.107985  0  0.994529  0
H  H57  1  0.87424135  0.16098842  0.76632222  1  0.032114  0  0.103941  0.102898  0  0.995991  0
C  C58  1  0.93427810  0.20495823  0.53692637  1  1.067389  0  0.260254  0.384727  0  4.014467  0
C  C59  1  0.93170900  0.19680137  0.41797887  1  1.049194  0  0.260751  0.382794  0  4.011865  0
C  C60  1  0.90773669  0.30004970  0.47269542  1  1.165495  0  0.264046  0.442112  0  4.075011  0
C  C61  1  0.83102810  0.60018938  0.39293136  1  1.07812  0  0.26111  0.387946  0  4.010577  0
C  C62  1  0.83619194  0.61260773  0.51146639  1  1.074729  0  0.260525  0.384949  0  4.004115  0
C  C63  1  0.86224572  0.50837150  0.45959255  1  1.168927  0  0.264057  0.442405  0  4.077682  0
C  C64  1  0.17926252  0.47725924  0.02623217  1  1.069435  0  0.262485  0.388038  0  4.013295  0
C  C65  1  0.27123332  0.41096596  0.99631102  1  1.226993  0  0.264493  0.443419  0  4.082539  0
C  C66  1  0.16883382  0.35784673  0.02767242  1  1.084624  0  0.261392  0.383944  0  4.010605  0
C  C67  1  0.56827934  0.32799222  0.91520984  1  1.080298  0  0.261765  0.386917  0  4.01474  0
C  C68  1  0.47768292  0.39552032  0.94656650  1  1.16309  0  0.264098  0.442014  0  4.083737  0
C  C69  1  0.58188146  0.44724250  0.91867540  1  1.062448  0  0.261733  0.385175  0  4.008476  0
C  C70  1  0.44829704  0.95990573  0.27068446  1  1.068512  0  0.262159  0.38615  0  4.013501  0
C  C71  1  0.38184342  0.93164582  0.36275463  1  1.160322  0  0.264293  0.441943  0  4.078948  0
C  C72  1  0.32893187  0.96300663  0.26069584  1  1.092723  0  0.260947  0.384365  0  4.00816  0
C  C73  1  0.29877330  0.85596826  0.65999358  1  1.067253  0  0.262701  0.389352  0  4.009696  0
C  C74  1  0.36645745  0.88536692  0.56917939  1  1.145089  0  0.264798  0.443676  0  4.078555  0
C  C75  1  0.41805386  0.85581408  0.67251586  1  1.060666  0  0.261586  0.385396  0  4.001226  0
C  C76  1  0.93047066  0.03199207  0.77935080  1  1.569111  0  0.24047  0.64636  0  4.104993  0
C  C77  1  0.65930464  0.87510666  0.86130165  1  1.546506  0  0.235065  0.633647  0  4.101895  0
C  C78  1  0.85095403  0.79975039  0.75224895  1  1.551077  0  0.235307  0.634775  0  4.103749  0
C  C79  1  0.73985804  0.08592850  0.91199000  1  1.579645  0  0.239925  0.647132  0  4.100242  0
C  C80  1  0.82173031  0.76998742  0.14950318  1  1.570862  0  0.241531  0.649607  0  4.099728  0
C  C81  1  0.08752323  0.94076949  0.07389735  1  1.542254  0  0.237666  0.638744  0  4.099882  0
C  C82  1  0.77211871  0.68762451  0.93960209  1  1.532976  0  0.234312  0.633277  0  4.105853  0
C  C83  1  0.68526335  0.95636425  0.09217736  1  1.547663  0  0.236514  0.640312  0  4.11168  0
C  C84  1  0.97998685  0.11773995  0.00263210  1  1.553195  0  0.236649  0.637905  0  4.100516  0
C  C85  1  0.05961660  0.85412093  0.83509081  1  1.575974  0  0.238776  0.644844  0  4.100573  0
C  C86  1  0.00381115  0.71722165  0.02290863  1  1.569408  0  0.236821  0.640406  0  4.110938  0
C  C87  1  0.90767115  0.01078432  0.17783336  1  1.551087  0  0.237625  0.639355  0  4.097885  0
C  C88  1  0.21826121  0.79241617  0.73911083  1  -0.010555  0  -0.080644  -0.105773  0  3.978135  0
C  C89  1  0.23076482  0.84941736  0.69527681  1  -0.012858  0  -0.000191  0.016198  0  3.977153  0
C  C90  1  0.18301583  0.90434188  0.69196061  1  -0.012745  0  -0.078393  -0.103014  0  3.963956  0
C  C91  1  0.12701380  0.90526028  0.73728431  1  -0.01153  0  -0.080069  -0.092018  0  3.967483  0
C  C92  1  0.11499456  0.84853261  0.78161825  1  -0.037903  0  -0.009736  -0.022612  0  3.960394  0
C  C93  1  0.15881438  0.79048737  0.77992355  1  -0.031894  0  -0.081157  -0.096295  0  3.98324  0
C  C94  1  0.54707339  0.87288569  0.69599652  1  -0.020117  0  -0.076662  -0.096396  0  3.960185  0
C  C95  1  0.48032243  0.85389345  0.72014794  1  -0.083762  0  -0.001862  0.010123  0  3.959477  0
C  C96  1  0.47253528  0.83793099  0.79109128  1  -0.014002  0  -0.077906  -0.098516  0  3.950167  0
C  C97  1  0.53016725  0.84230137  0.83747773  1  -0.015232  0  -0.078481  -0.09125  0  3.970417  0
C  C98  1  0.59619046  0.86394625  0.81367003  1  -0.089972  0  -0.011015  -0.031847  0  3.947738  0
C  C99  1  0.60416466  0.87832422  0.74245953  1  0.038806  0  -0.077705  -0.08359  0  3.953134  0
C  C100  1  0.19914875  0.94917926  0.23928142  1  0.037624  0  -0.076693  -0.096177  0  3.957616  0
C  C101  1  0.26601742  0.96633916  0.21412939  1  -0.033073  0  -0.001833  0.00949  0  3.960819  0
C  C102  1  0.27346268  0.98121668  0.14292388  1  -0.055946  0  -0.07845  -0.0991  0  3.954657  0
C  C103  1  0.21548266  0.97662945  0.09706009  1  -0.036125  0  -0.078896  -0.093703  0  3.974349  0
C  C104  1  0.14959218  0.95574560  0.12173030  1  -0.014224  0  -0.009819  -0.028122  0  3.948416  0
C  C105  1  0.14166922  0.94345138  0.19329687  1  -0.069219  0  -0.076345  -0.083253  0  3.950891  0
C  C106  1  0.56393359  0.91084179  0.23848801  1  -0.054911  0  -0.078091  -0.101073  0  3.961075  0
C  C107  1  0.51547899  0.96503174  0.23375490  1  0.008694  0  -0.001044  0.01592  0  3.972903  0
C  C108  1  0.52632934  0.02000939  0.18704939  1  -0.062233  0  -0.078869  -0.103458  0  3.977716  0
C  C109  1  0.58471136  0.02068141  0.14482305  1  0.056413  0  -0.079728  -0.092692  0  3.980314  0
C  C110  1  0.62926103  0.96320112  0.14486523  1  -0.048847  0  -0.009788  -0.02319  0  3.966336  0
C  C111  1  0.61892178  0.90850230  0.19200329  1  -0.00596  0  -0.082107  -0.096758  0  3.975281  0
C  C112  1  0.37685079  0.91484738  0.43509619  1  -0.188001  0  -0.003489  -0.080469  0  3.938958  0
C  C113  1  0.37228019  0.90190882  0.49683174  1  0.035814  0  -0.003392  -0.080157  0  3.937565  0
C  C114  1  0.65352688  0.25231855  0.85520370  1  -0.05959  0  -0.079496  -0.101902  0  3.981126  0
C  C115  1  0.60273447  0.25985553  0.90649777  1  -0.047653  0  -0.002682  0.011916  0  3.979514  0
C  C116  1  0.59119451  0.20605742  0.95431526  1  0.00078  0  -0.077908  -0.101303  0  3.963211  0
C  C117  1  0.63504528  0.14861761  0.95490729  1  -0.047738  0  -0.079799  -0.092556  0  3.966682  0
C  C118  1  0.68672205  0.14194822  0.90443225  1  -0.035107  0  -0.006523  -0.014692  0  3.955388  0
C  C119  1  0.69354613  0.19219531  0.85240919  1  0.058631  0  -0.082642  -0.101157  0  3.988077  0
C  C120  1  0.60514838  0.57650475  0.93299236  1  -0.058215  0  -0.077091  -0.097646  0  3.96187  0
C  C121  1  0.63001680  0.50932068  0.91742057  1  -0.014556  0  -0.001771  0.010959  0  3.963524  0
C  C122  1  0.70198544  0.50086735  0.90481185  1  -0.050573  0  -0.07904  -0.100785  0  3.954844  0
C  C123  1  0.74875766  0.55835930  0.90928264  1  -0.05571  0  -0.078149  -0.089847  0  3.972845  0
C  C124  1  0.72418715  0.62481631  0.92763811  1  -0.049568  0  -0.01086  -0.03162  0  3.952683  0
C  C125  1  0.65196790  0.63351963  0.93846515  1  0.048452  0  -0.077906  -0.083725  0  3.954115  0
C  C126  1  0.10065398  0.17098999  0.00746086  1  -0.048989  0  -0.076663  -0.081957  0  3.949136  0
C  C127  1  0.02851445  0.17914533  0.01894927  1  -0.024895  0  -0.009875  -0.029153  0  3.949862  0
C  C128  1  0.00386083  0.24481342  0.03994597  1  -0.008135  0  -0.079677  -0.094745  0  3.978416  0
C  C129  1  0.05026684  0.30252394  0.04521662  1  -0.057463  0  -0.078559  -0.098976  0  3.954501  0
C  C130  1  0.12194494  0.29497976  0.03078018  1  -0.010059  0  -0.002126  0.010146  0  3.96297  0
C  C131  1  0.14716585  0.22823596  0.01378028  1  -0.021088  0  -0.076506  -0.097255  0  3.959896  0
C  C132  1  0.09231354  0.55287638  0.08386237  1  -0.006411  0  -0.078209  -0.100188  0  3.97436  0
C  C133  1  0.14295677  0.54465904  0.03252300  1  -0.033858  0  -0.00245  0.011111  0  3.978932  0
C  C134  1  0.15279202  0.59682320  0.98264516  1  -0.036343  0  -0.07691  -0.096521  0  3.960348  0
C  C135  1  0.10758338  0.65314780  0.98038323  1  -0.004726  0  -0.083151  -0.101445  0  3.977701  0
C  C136  1  0.05622402  0.66065218  0.03112211  1  -0.038165  0  -0.007877  -0.016255  0  3.961717  0
C  C137  1  0.05094011  0.61210013  0.08484435  1  -0.015116  0  -0.080565  -0.096718  0  3.979588  0
C  C138  1  0.34355097  0.40596910  0.97824097  1  -0.288499  0  -0.00397  -0.081313  0  3.945282  0
C  C139  1  0.40531278  0.40135697  0.96415712  1  0.090558  0  -0.003957  -0.080983  0  3.945915  0
C  C140  1  0.77218884  0.68923301  0.32018680  1  -0.043738  0  -0.078291  -0.097768  0  3.975579  0
C  C141  1  0.82083024  0.63512301  0.32537548  1  0.007666  0  -0.004288  0.007854  0  3.97593  0
C  C142  1  0.86406669  0.62005693  0.26906060  1  -0.010339  0  -0.076471  -0.096541  0  3.961544  0
C  C143  1  0.86293142  0.66300273  0.21103295  1  -0.012386  0  -0.081489  -0.09854  0  3.969282  0
C  C144  1  0.81520583  0.71787403  0.20663042  1  -0.061701  0  -0.004915  -0.010828  0  3.953545  0
C  C145  1  0.76765553  0.72886341  0.26007189  1  0.023963  0  -0.083929  -0.104043  0  3.989457  0
C  C146  1  0.81895747  0.73144502  0.56579803  1  -0.029031  0  -0.078755  -0.100454  0  3.952642  0
C  C147  1  0.83462567  0.65995374  0.57345861  1  0.000484  0  -0.000564  0.011838  0  3.957345  0
C  C148  1  0.85208263  0.63479676  0.63992725  1  -0.032872  0  -0.077805  -0.098257  0  3.961019  0
C  C149  1  0.85604954  0.68079456  0.69699953  1  -0.072551  0  -0.07805  -0.084855  0  3.954148  0
C  C150  1  0.84168082  0.75250142  0.68918306  1  -0.030459  0  -0.011376  -0.032046  0  3.950032  0
C  C151  1  0.82184516  0.77731930  0.62333263  1  -0.008916  0  -0.078729  -0.091467  0  3.973117  0
C  C152  1  0.90758918  0.13058506  0.23209936  1  -0.033732  0  -0.076634  -0.081256  0  3.94863  0
C  C153  1  0.92238440  0.05893249  0.23917273  1  0.013404  0  -0.010706  -0.0315  0  3.95351  0
C  C154  1  0.94597918  0.03406130  0.30379727  1  -0.081726  0  -0.079129  -0.093006  0  3.979051  0
C  C155  1  0.95066704  0.07961577  0.36145450  1  0.00943  0  -0.079018  -0.099554  0  3.958184  0
C  C156  1  0.93345148  0.15084726  0.35498883  1  -0.051999  0  -0.001107  0.011346  0  3.959579  0
C  C157  1  0.91363195  0.17638092  0.28929328  1  0.001225  0  -0.077059  -0.097489  0  3.956886  0
C  C158  1  0.90644591  0.18913763  0.66320221  1  -0.021517  0  -0.076203  -0.093029  0  3.961517  0
C  C159  1  0.94103084  0.16697404  0.60316197  1  -0.041362  0  -0.005928  0.002873  0  3.974655  0
C  C160  1  0.97755177  0.10364526  0.60374134  1  -0.031639  0  -0.077266  -0.093242  0  3.972003  0
C  C161  1  0.97821985  0.06207014  0.66256705  1  0.042484  0  -0.083977  -0.106031  0  3.983606  0
C  C162  1  0.93977109  0.08199947  0.72064175  1  -0.028451  0  -0.002396  -0.003474  0  3.9521  0
C  C163  1  0.90451155  0.14589793  0.72104329  1  -0.026133  0  -0.085285  -0.107647  0  3.982325  0
C  C164  1  0.87904631  0.43550272  0.46498546  1  -0.338594  0  -0.004898  -0.08285  0  3.938245  0
C  C165  1  0.89199290  0.37329103  0.46885642  1  0.153466  0  -0.00497  -0.081474  0  3.938074  0
N  N166  1  0.94560038  0.16634083  0.47913385  1  -1.173548  0  -0.302574  -0.399504  0  3.235781  0
N  N167  1  0.91354044  0.26461606  0.41157280  1  -1.143253  0  -0.301286  -0.402295  0  3.126069  0
N  N168  1  0.91475907  0.27265517  0.53699385  1  -1.143107  0  -0.304763  -0.407596  0  3.117288  0
N  N169  1  0.81922719  0.64042236  0.44960765  1  -1.188355  0  -0.303307  -0.403947  0  3.217762  0
N  N170  1  0.85652940  0.54563383  0.51958915  1  -1.151332  0  -0.301037  -0.402642  0  3.130572  0
N  N171  1  0.85362854  0.53363095  0.39454252  1  -1.157084  0  -0.30489  -0.40792  0  3.116792  0
N  N172  1  0.24486289  0.47610139  0.00139571  1  -1.168614  0  -0.307012  -0.410695  0  3.117874  0
N  N173  1  0.23529562  0.35020308  0.00617876  1  -1.167778  0  -0.299482  -0.399821  0  3.133783  0
N  N174  1  0.14073016  0.42016422  0.04297931  1  -1.185064  0  -0.303676  -0.403096  0  3.214644  0
N  N175  1  0.50231682  0.32988910  0.93902967  1  -1.116729  0  -0.306115  -0.408324  0  3.119152  0
N  N176  1  0.51530019  0.45577399  0.93950596  1  -1.163074  0  -0.300012  -0.400461  0  3.131937  0
N  N177  1  0.60870936  0.38479384  0.90160348  1  -1.169265  0  -0.304004  -0.404195  0  3.214204  0
N  N178  1  0.44695784  0.93514990  0.33604864  1  -1.125698  0  -0.306698  -0.409491  0  3.114155  0
N  N179  1  0.32119043  0.94205753  0.32705657  1  -1.159016  0  -0.298743  -0.398227  0  3.132525  0
N  N180  1  0.39146591  0.97771946  0.23252457  1  -1.201558  0  -0.30217  -0.401814  0  3.212144  0
N  N181  1  0.30086021  0.88046876  0.59457557  1  -1.143616  0  -0.306915  -0.41093  0  3.113423  0
N  N182  1  0.42663337  0.87659287  0.60619675  1  -1.152196  0  -0.299162  -0.399517  0  3.132288  0
N  N183  1  0.35523992  0.83967628  0.69948534  1  -1.158603  0  -0.302899  -0.403739  0  3.202041  0
O  O184  1  0.98060927  0.02216239  0.82239706  1  -1.175105  0  -0.326324  -0.59175  0  2.224922  0
O  O185  1  0.66300637  0.84939214  0.92184124  1  -1.17236  0  -0.321404  -0.591918  0  2.174256  0
O  O186  1  0.82467722  0.86032039  0.75564383  1  -1.174401  0  -0.323016  -0.594646  0  2.173409  0
O  O187  1  0.75271499  0.04503625  0.86132138  1  -1.171099  0  -0.330215  -0.593893  0  2.229576  0
O  O188  1  0.77014126  0.08633713  0.97284337  1  -1.177545  0  -0.376911  -0.634577  0  2.284065  0
O  O189  1  0.88717586  0.77160535  0.80172763  1  -1.185034  0  -0.387194  -0.640719  0  2.36534  0
O  O190  1  0.70853049  0.91222019  0.83349676  1  -1.179304  0  -0.386758  -0.640797  0  2.360962  0
O  O191  1  0.86874300  0.00303150  0.78011578  1  -1.178628  0  -0.371249  -0.62871  0  2.266636  0
O  O192  1  0.78767525  0.93934965  0.96023270  1  -1.201791  0  -0.791851  -1.152156  0  2.134746  0
O  O193  1  0.91169407  0.89935808  0.88069527  1  -1.203326  0  -0.791754  -1.153237  0  2.13077  0
O  O194  1  0.80011583  0.82770476  0.89097322  1  -1.238114  0  -0.694842  -1.072252  0  2.366684  0
O  O195  1  0.88116391  0.02203840  0.91857282  1  -1.255893  0  -0.69517  -1.074969  0  2.360917  0
O  O196  1  0.77044561  0.78133053  0.10827733  1  -1.173039  0  -0.328088  -0.593624  0  2.225081  0
O  O197  1  0.08325788  0.96597698  0.01310968  1  -1.175895  0  -0.326292  -0.598868  0  2.196047  0
O  O198  1  0.83322405  0.69179902  0.91484367  1  -1.171453  0  -0.321313  -0.59088  0  2.174682  0
O  O199  1  0.72641592  0.00793399  0.08031441  1  -1.173237  0  -0.329648  -0.597437  0  2.226236  0
O  O200  1  0.91844559  0.11324256  0.02649864  1  -1.179614  0  -0.325544  -0.598008  0  2.190516  0
O  O201  1  0.01936533  0.80198774  0.84740977  1  -1.18291  0  -0.330977  -0.597909  0  2.22712  0
O  O202  1  0.99158433  0.75878279  0.07324216  1  -1.168735  0  -0.328202  -0.593787  0  2.225945  0
O  O203  1  0.93332070  0.94989573  0.17397059  1  -1.179511  0  -0.327075  -0.599437  0  2.195094  0
O  O204  1  0.97510474  0.71840844  0.96137396  1  -1.177504  0  -0.376102  -0.633068  0  2.283156  0
O  O205  1  0.86597068  0.03714374  0.13173142  1  -1.184525  0  -0.386295  -0.641063  0  2.351947  0
O  O206  1  0.74377537  0.73614948  0.97656389  1  -1.174198  0  -0.388111  -0.640068  0  2.364436  0
O  O207  1  0.05925575  0.91468631  0.86622724  1  -1.180708  0  -0.379388  -0.637115  0  2.289705  0
O  O208  1  0.00703268  0.07219720  0.96124296  1  -1.184404  0  -0.386967  -0.641094  0  2.352421  0
O  O209  1  0.68699924  0.89495144  0.06297838  1  -1.180108  0  -0.376695  -0.633193  0  2.28568  0
O  O210  1  0.88262508  0.80101834  0.14953283  1  -1.177585  0  -0.376327  -0.633463  0  2.279585  0
O  O211  1  0.04121248  0.89937980  0.10061000  1  -1.18115  0  -0.385206  -0.640373  0  2.350351  0
O  O212  1  0.93050110  0.96110164  0.02315036  1  -1.200012  0  -0.790698  -1.151756  0  2.128595  0
O  O213  1  0.86994500  0.81747842  0.00282210  1  -1.199654  0  -0.791688  -1.152859  0  2.132554  0
O  O214  1  0.99313610  0.85721107  0.97490579  1  -1.267366  0  -0.695438  -1.074432  0  2.363073  0
O  O215  1  0.82576882  0.91044751  0.08317095  1  -1.233622  0  -0.695129  -1.073466  0  2.362523  0
