# generated using pymatgen
data_FeH10Au2(C8N5)2
_symmetry_space_group_name_H-M   'P 1'
_cell_length_a   12.68053335
_cell_length_b   16.72473567
_cell_length_c   30.16568624
_cell_angle_alpha   78.26474705
_cell_angle_beta   78.02810061
_cell_angle_gamma   68.09836673
_symmetry_Int_Tables_number   1
_chemical_formula_structural   FeH10Au2(C8N5)2
_chemical_formula_sum   'Fe8 H80 Au16 C128 N80'
_cell_volume   5750.41824461
_cell_formula_units_Z   8
loop_
 _symmetry_equiv_pos_site_id
 _symmetry_equiv_pos_as_xyz
  1  'x, y, z'
loop_
 _atom_site_type_symbol
 _atom_site_label
 _atom_site_symmetry_multiplicity
 _atom_site_fract_x
 _atom_site_fract_y
 _atom_site_fract_z
 _atom_site_occupancy
 _atom_site_pbe_bader_charge
 _atom_site_pbe_bader_spin_density
 _atom_site_pbe_cm5_charge
 _atom_site_pbe_ddec_charge
 _atom_site_pbe_ddec_spin_density
 _atom_site_pbe_ddec_sum_bond_order
 _atom_site_pbe_magmom
Fe  Fe0  1  0.19563198  0.33816352  0.27213927  1  1.238275  0.001922  0.919714  0.583439  0.001979  3.988539  0.002
Fe  Fe1  1  0.80436792  0.66183910  0.72785946  1  1.238285  0.001921  0.919757  0.583527  0.001978  3.988292  0.002
Fe  Fe2  1  0.69732572  0.08821248  0.51718124  1  1.232234  4e-06  0.921337  0.587376  -1.7e-05  3.988181  0.0
Fe  Fe3  1  0.30267648  0.91178688  0.48281797  1  1.232203  4e-06  0.921328  0.587354  -1.7e-05  3.988369  0.0
Fe  Fe4  1  0.20123126  0.83822799  0.76209785  1  1.247355  0.001908  0.921927  0.586669  0.001969  3.991192  0.002
Fe  Fe5  1  0.79876875  0.16177265  0.23790208  1  1.247325  0.001907  0.921955  0.586601  0.001969  3.991351  0.002
Fe  Fe6  1  0.69776400  0.58831632  0.01705056  1  1.45904  3.661292  0.798318  0.832159  3.912876  2.902639  3.634
Fe  Fe7  1  0.30223732  0.41168498  0.98294918  1  1.459091  3.661322  0.798247  0.832073  3.912905  2.90265  3.634
H  H8  1  0.82384980  0.72858040  0.36291518  1  0.435401  -1e-06  0.323235  0.289793  -1e-06  0.916129  0.0
H  H9  1  0.17614760  0.27141892  0.63708578  1  0.435382  -1e-06  0.323254  0.289836  -1e-06  0.916141  0.0
H  H10  1  0.84334968  0.65428901  0.40863292  1  0.437826  -1e-06  0.31545  0.279733  -0.0  0.94647  0.0
H  H11  1  0.15664750  0.34570902  0.59136721  1  0.437865  -1e-06  0.315458  0.279784  -0.0  0.946437  0.0
H  H12  1  0.58734281  0.47572460  0.61007033  1  0.42311  -1e-06  0.322927  0.288999  -1e-06  0.917031  0.0
H  H13  1  0.41265861  0.52427474  0.38992994  1  0.423089  -1e-06  0.322939  0.288972  -1e-06  0.917039  0.0
H  H14  1  0.59357523  0.40330143  0.65657629  1  0.429353  -1e-06  0.316565  0.279661  -0.0  0.944641  0.0
H  H15  1  0.40642187  0.59669854  0.34342463  1  0.429297  -1e-06  0.316581  0.279652  -0.0  0.944636  0.0
H  H16  1  0.83260706  0.21996191  0.85946647  1  0.441959  -0.000131  0.321737  0.286793  -0.00012  0.921939  0.0
H  H17  1  0.16739246  0.78003807  0.14053424  1  0.441933  -0.000131  0.321734  0.286774  -0.00012  0.921996  0.0
H  H18  1  0.85662813  0.14594684  0.90510759  1  0.432926  -7e-05  0.315956  0.280251  -5.2e-05  0.943365  0.0
H  H19  1  0.14337117  0.85405185  0.09489261  1  0.432956  -7e-05  0.315979  0.280266  -5.2e-05  0.943371  0.0
H  H20  1  0.57587629  0.98219031  0.11518788  1  0.434106  -0.000275  0.323113  0.288506  -0.000246  0.91719  0.0
H  H21  1  0.42412342  0.01781098  0.88481200  1  0.434102  -0.000275  0.323111  0.288508  -0.000246  0.917163  0.0
H  H22  1  0.58600361  0.90965751  0.16165729  1  0.414784  -9.8e-05  0.31477  0.278239  -6.6e-05  0.949622  0.0
H  H23  1  0.41399530  0.09034377  0.83834300  1  0.414786  -9.8e-05  0.314755  0.278237  -6.6e-05  0.949632  0.0
H  H24  1  0.30964075  0.44809835  0.28869462  1  0.134104  -2e-06  0.125856  0.100776  -4e-06  1.000842  0.0
H  H25  1  0.69036026  0.55190362  0.71130408  1  0.134107  -2e-06  0.125825  0.100741  -4e-06  1.000861  0.0
H  H26  1  0.25892582  0.57610809  0.32825103  1  0.082583  -0.0  0.105379  0.104475  -0.0  1.052331  0.0
H  H27  1  0.74107107  0.42389582  0.67174815  1  0.082632  -0.0  0.105399  0.104498  -0.0  1.052355  0.0
H  H28  1  0.90851760  0.57729930  0.35713483  1  0.103053  -0.0  0.102657  0.097331  0.0  1.087039  0.0
H  H29  1  0.09148140  0.42270004  0.64286533  1  0.103064  -0.0  0.102651  0.097347  0.0  1.087046  0.0
H  H30  1  0.97236118  0.45363872  0.31669937  1  0.141485  -1e-06  0.120974  0.088369  -3e-06  1.044323  0.0
H  H31  1  0.02763760  0.54635933  0.68330028  1  0.141509  -1e-06  0.120971  0.088375  -3e-06  1.044363  0.0
H  H32  1  0.05380508  0.85107368  0.46181705  1  0.130175  0.0  0.111425  0.121036  0.0  1.033336  0.0
H  H33  1  0.94619402  0.14892369  0.53818397  1  0.130153  0.0  0.111475  0.121077  0.0  1.03335  0.0
H  H34  1  0.93546760  0.97439208  0.50383614  1  0.080089  0.0  0.122287  0.092826  0.0  1.028048  0.0
H  H35  1  0.06453240  0.02560858  0.49616312  1  0.080266  0.0  0.122312  0.092808  0.0  1.028095  0.0
H  H36  1  0.63553196  0.97661883  0.46858779  1  0.094724  -0.0  0.119714  0.095779  0.0  1.011432  0.0
H  H37  1  0.36446644  0.02338181  0.53141261  1  0.094745  -0.0  0.119724  0.095792  0.0  1.011376  0.0
H  H38  1  0.74096110  0.85337515  0.42462851  1  0.105005  -0.0  0.099808  0.103299  -0.0  1.060965  0.0
H  H39  1  0.25903692  0.14662284  0.57537386  1  0.10531  -0.0  0.099785  0.103263  -0.0  1.060999  0.0
H  H40  1  0.45783451  0.19638619  0.53337064  1  0.117003  0.0  0.126181  0.101436  0.0  1.000895  0.0
H  H41  1  0.54216549  0.80361447  0.46662862  1  0.116991  0.0  0.126183  0.101429  0.0  1.000908  0.0
H  H42  1  0.34059915  0.32284962  0.57358857  1  0.088149  -0.0  0.105825  0.105826  -0.0  1.049364  0.0
H  H43  1  0.65939974  0.67715170  0.42641039  1  0.08816  -0.0  0.105815  0.105865  -0.0  1.049305  0.0
H  H44  1  0.65837615  0.32601389  0.60456596  1  0.092671  -0.0  0.102138  0.096941  -0.0  1.08678  0.0
H  H45  1  0.34162215  0.67398347  0.39543513  1  0.092532  -0.0  0.102144  0.096939  -0.0  1.086694  0.0
H  H46  1  0.75908755  0.20383916  0.56330623  1  0.18076  0.0  0.1212  0.089169  0.0  1.043991  0.0
H  H47  1  0.24091014  0.79615952  0.43669444  1  0.180728  0.0  0.121222  0.089211  0.0  1.043922  0.0
H  H48  1  0.13558842  0.60031723  0.70644829  1  0.114019  1e-06  0.111191  0.12101  0.0  1.034102  0.0
H  H49  1  0.86441159  0.39968341  0.29355164  1  0.114006  1e-06  0.11119  0.120999  0.0  1.0341  0.0
H  H50  1  0.08904844  0.72482151  0.74776438  1  0.11979  0.0  0.122517  0.093169  1e-06  1.026756  0.0
H  H51  1  0.91095136  0.27517784  0.25223537  1  0.119807  0.0  0.122524  0.093159  1e-06  1.026765  0.0
H  H52  1  0.42209142  0.72649826  0.71434728  1  0.130873  -1e-06  0.120261  0.096587  -1e-06  1.009536  0.0
H  H53  1  0.57790838  0.27350109  0.28565247  1  0.129712  -1e-06  0.120272  0.096643  -1e-06  1.009465  0.0
H  H54  1  0.48330714  0.60201770  0.67114011  1  0.136754  -1e-06  0.099381  0.102428  -0.0  1.062284  0.0
H  H55  1  0.51669366  0.39798296  0.32885908  1  0.136783  -1e-06  0.099402  0.102455  -0.0  1.062288  0.0
H  H56  1  0.31635904  0.94803146  0.77835879  1  0.135167  -6e-06  0.125741  0.100806  -2e-06  1.001037  0.0
H  H57  1  0.68363986  0.05196984  0.22164083  1  0.135138  -6e-06  0.125739  0.100802  -2e-06  1.001056  0.0
H  H58  1  0.26802367  0.07364434  0.81953722  1  0.098125  -5e-06  0.105313  0.104607  -9e-06  1.047946  0.0
H  H59  1  0.73197430  0.92635895  0.18046062  1  0.098082  -5e-06  0.105374  0.104726  -9e-06  1.047809  0.0
H  H60  1  0.91802677  0.07378239  0.85049762  1  0.098371  -1.2e-05  0.102498  0.09679  -2.8e-05  1.08701  0.0
H  H61  1  0.08197343  0.92621958  0.14950115  1  0.098343  -1.2e-05  0.102462  0.096735  -2.8e-05  1.08702  0.0
H  H62  1  0.97938669  0.95276584  0.80833585  1  0.135425  0.0  0.120715  0.088847  1.6e-05  1.044544  0.0
H  H63  1  0.02061413  0.04723480  0.19166433  1  0.13539  0.0  0.120721  0.088884  1.6e-05  1.044598  0.0
H  H64  1  0.06161712  0.33561952  0.96320444  1  0.09904  0.000964  0.11017  0.1216  0.000384  1.026694  0.0
H  H65  1  0.93838091  0.66437847  0.03679793  1  0.099008  0.000964  0.110154  0.121609  0.000384  1.026679  0.0
H  H66  1  0.94046224  0.45765011  0.00612084  1  0.098421  0.001956  0.115916  0.087993  0.000534  1.019957  0.001
H  H67  1  0.05953697  0.54235053  0.99387949  1  0.098481  0.001956  0.115901  0.087971  0.000534  1.019922  0.001
H  H68  1  0.64724721  0.47363350  0.95934382  1  0.103198  0.001853  0.114199  0.0904  0.000505  1.011104  0.001
H  H69  1  0.35275140  0.52636320  0.04065798  1  0.103208  0.001852  0.114192  0.090384  0.000505  1.011096  0.001
H  H70  1  0.75546014  0.35235511  0.91406914  1  0.092987  0.000774  0.099261  0.102433  0.000301  1.054927  0.0
H  H71  1  0.24454051  0.64763895  0.08593442  1  0.09301  0.000774  0.09925  0.102381  0.000301  1.055001  0.0
H  H72  1  0.45123166  0.71146400  0.03220954  1  0.097888  0.001852  0.119648  0.094157  0.000383  0.995999  0.001
H  H73  1  0.54877398  0.28853665  0.96779021  1  0.097873  0.001852  0.119636  0.094138  0.000383  0.996028  0.001
H  H74  1  0.33143751  0.83576611  0.07447843  1  0.103841  0.000856  0.104494  0.105518  0.000392  1.042896  0.0
H  H75  1  0.66856422  0.16423257  0.92552222  1  0.103806  0.000856  0.104475  0.105466  0.000392  1.042918  0.0
H  H76  1  0.64630385  0.82940775  0.11313244  1  0.119074  0.00081  0.100188  0.092751  0.000375  1.089583  0.0
H  H77  1  0.35369577  0.17059550  0.88686757  1  0.119251  0.00081  0.100182  0.092757  0.000375  1.089538  0.0
H  H78  1  0.74878346  0.70979118  0.06997391  1  0.108396  0.001687  0.114756  0.081681  0.000278  1.044316  0.001
H  H79  1  0.25121969  0.29021141  0.93002652  1  0.108427  0.001686  0.114781  0.081724  0.000278  1.044306  0.001
H  H80  1  0.12959034  0.09894683  0.21767835  1  0.114437  1e-05  0.110752  0.120307  1e-06  1.033138  0.0
H  H81  1  0.87041238  0.90105317  0.78232140  1  0.114426  1e-05  0.11073  0.120261  1e-06  1.033145  0.0
H  H82  1  0.08477100  0.22176951  0.26006849  1  0.128261  -3e-06  0.122011  0.09254  5e-06  1.028535  0.0
H  H83  1  0.91522869  0.77823181  0.73993039  1  0.128213  -3e-06  0.122017  0.092559  5e-06  1.028495  0.0
H  H84  1  0.41569594  0.22718993  0.22329453  1  0.121471  5e-06  0.1196  0.095065  1.2e-05  1.012295  0.0
H  H85  1  0.58430284  0.77281336  0.77670323  1  0.121008  5e-06  0.119623  0.095104  1.2e-05  1.012285  0.0
H  H86  1  0.47503956  0.10468319  0.17880523  1  0.11729  -0.0  0.09928  0.102334  -1.5e-05  1.06608  0.0
H  H87  1  0.52496194  0.89531945  0.82119269  1  0.117328  -0.0  0.099332  0.102355  -1.5e-05  1.066072  0.0
Au  Au88  1  0.93483308  0.46284104  0.15316876  1  0.257341  0.004746  0.252323  0.014523  0.004992  2.889725  0.005
Au  Au89  1  0.06516076  0.53715374  0.84683168  1  0.25738  0.004745  0.252324  0.014487  0.004991  2.889651  0.005
Au  Au90  1  0.95517044  0.21446110  0.40046018  1  0.260565  -2e-06  0.247231  0.009103  3e-06  2.91099  0.0
Au  Au91  1  0.04483288  0.78553761  0.59953933  1  0.26056  -1e-06  0.247269  0.009146  3e-06  2.910905  0.0
Au  Au92  1  0.45863542  0.21705961  0.39022063  1  0.242137  -1e-06  0.247252  0.002042  4e-06  3.034507  0.0
Au  Au93  1  0.54137298  0.78293851  0.60977617  1  0.242161  -1e-06  0.247181  0.001969  4e-06  3.034305  0.0
Au  Au94  1  0.43388634  0.46567159  0.14476501  1  0.252652  0.004276  0.250307  0.005381  0.004305  2.988269  0.004
Au  Au95  1  0.56612613  0.53432127  0.85523532  1  0.25254  0.004276  0.250334  0.005432  0.004304  2.98811  0.004
Au  Au96  1  0.93489593  0.96438490  0.64502893  1  0.253288  -3e-06  0.246747  0.008226  0.0  2.910904  0.0
Au  Au97  1  0.06510330  0.03561570  0.35497273  1  0.253342  -3e-06  0.246712  0.008156  0.0  2.910909  0.0
Au  Au98  1  0.43776064  0.96624874  0.63474970  1  0.250663  6e-06  0.248453  0.002338  9e-06  3.04362  0.0
Au  Au99  1  0.56224114  0.03374803  0.36524883  1  0.250839  6e-06  0.248458  0.002365  9e-06  3.043662  0.0
Au  Au100  1  0.95804684  0.71588951  0.89000410  1  0.264164  0.004598  0.253007  0.015909  0.004485  2.899378  0.005
Au  Au101  1  0.04195410  0.28410914  0.10999795  1  0.26407  0.004596  0.253062  0.015963  0.004482  2.899361  0.005
Au  Au102  1  0.46081439  0.71808981  0.88114494  1  0.251099  0.00396  0.255206  0.011078  0.004079  2.995693  0.004
Au  Au103  1  0.53919134  0.28190890  0.11885435  1  0.251125  0.003958  0.255257  0.011096  0.004078  2.995748  0.004
C  C104  1  0.02166580  0.41739711  0.20525679  1  0.792935  6e-05  -0.006952  0.042756  3e-06  3.928665  0.0
C  C105  1  0.97832886  0.58259765  0.79474391  1  0.792922  6e-05  -0.006978  0.042801  3e-06  3.928658  0.0
C  C106  1  0.04668399  0.26417407  0.34960041  1  0.812997  1.4e-05  -0.005358  0.04453  3e-06  3.93207  0.0
C  C107  1  0.95331371  0.73582983  0.65039936  1  0.812927  1.4e-05  -0.005339  0.044493  3e-06  3.932082  0.0
C  C108  1  0.36779424  0.26367929  0.33946377  1  0.80093  3.2e-05  -0.00932  0.038085  1.8e-05  3.938328  0.0
C  C109  1  0.63221451  0.73631812  0.66053572  1  0.801589  3.2e-05  -0.00926  0.038121  1.8e-05  3.938368  0.0
C  C110  1  0.34270847  0.41795654  0.19688221  1  0.807252  7.1e-05  -0.012042  0.0301  -3.5e-05  3.938441  0.0
C  C111  1  0.65729684  0.58203958  0.80311674  1  0.807237  7.1e-05  -0.012107  0.030019  -3.5e-05  3.938531  0.0
C  C112  1  0.22206572  0.47924139  0.30438059  1  0.419456  -7.6e-05  0.0493  0.088137  -7.7e-05  3.919829  0.0
C  C113  1  0.77793358  0.52076253  0.69561838  1  0.419526  -7.6e-05  0.049386  0.088216  -7.7e-05  3.919663  0.0
C  C114  1  0.19321489  0.55032764  0.32664693  1  0.024143  1.2e-05  -0.085427  -0.160987  -1e-06  3.969122  0.0
C  C115  1  0.80678238  0.44967368  0.67335184  1  0.024009  1.2e-05  -0.085464  -0.161003  -1e-06  3.969008  0.0
C  C116  1  0.07974301  0.58926026  0.34757231  1  -0.063608  -0.000126  0.002417  0.057666  -0.000131  4.0427  0.0
C  C117  1  0.92025641  0.41074167  0.65242852  1  -0.063205  -0.000126  0.002404  0.057579  -0.000131  4.04263  0.0
C  C118  1  0.99896696  0.55349844  0.34293262  1  -0.005697  -4e-06  -0.089702  -0.180146  -1.1e-05  3.951783  0.0
C  C119  1  0.00103283  0.44650092  0.65706680  1  -0.00558  -4e-06  -0.089704  -0.180143  -1.1e-05  3.951791  0.0
C  C120  1  0.03447877  0.48209098  0.31956881  1  0.49936  -7.9e-05  0.057011  0.109145  -8.1e-05  3.877503  0.0
C  C121  1  0.96552234  0.51790903  0.68043043  1  0.500232  -7.9e-05  0.056985  0.109101  -8.1e-05  3.877545  0.0
C  C122  1  0.05951733  0.66048126  0.37274883  1  0.913575  -7e-06  0.211492  0.163092  -1e-05  4.024766  0.0
C  C123  1  0.94048086  0.33951808  0.62725106  1  0.912543  -7e-06  0.211582  0.163236  -1e-05  4.024655  0.0
C  C124  1  0.98420607  0.77073767  0.41287984  1  0.92999  -2.2e-05  0.227231  0.193333  -2.5e-05  3.965055  0.0
C  C125  1  0.01579122  0.22925839  0.58712181  1  0.930145  -2.2e-05  0.227327  0.19339  -2.5e-05  3.965052  0.0
C  C126  1  0.90855503  0.84108535  0.43869387  1  -0.023759  2e-06  0.010545  0.065327  0.0  4.004369  0.0
C  C127  1  0.09144248  0.15891200  0.56130795  1  -0.023808  2e-06  0.010524  0.065473  0.0  4.004336  0.0
C  C128  1  0.96149826  0.87690713  0.46208101  1  0.025617  -6e-06  -0.076594  -0.152092  -7e-06  3.944884  0.0
C  C129  1  0.03850085  0.12309024  0.53792001  1  0.025692  -6e-06  -0.076681  -0.152196  -7e-06  3.944878  0.0
C  C130  1  0.89597903  0.94616797  0.48552975  1  0.503316  2e-06  0.051259  0.089994  1e-06  3.904719  0.0
C  C131  1  0.10401916  0.05383137  0.51447014  1  0.503189  2e-06  0.051239  0.090029  1e-06  3.904645  0.0
C  C132  1  0.72844528  0.94697354  0.46620365  1  0.533208  3e-06  0.053151  0.097659  1e-06  3.886697  0.0
C  C133  1  0.27155072  0.05302707  0.53379763  1  0.532324  3e-06  0.053198  0.097739  1e-06  3.886817  0.0
C  C134  1  0.78838223  0.87753350  0.44158556  1  -0.041152  -9e-06  -0.086181  -0.168837  -9e-06  3.95446  0.0
C  C135  1  0.21161408  0.12246644  0.55841643  1  -0.040593  -9e-06  -0.086188  -0.168885  -9e-06  3.95455  0.0
C  C136  1  0.85935193  0.16863966  0.45122077  1  0.80195  -3e-06  -0.008819  0.04266  -2e-06  3.939013  0.0
C  C137  1  0.14065259  0.83135644  0.54877891  1  0.801993  -3e-06  -0.008823  0.042685  -2e-06  3.938936  0.0
C  C138  1  0.84337303  0.01392364  0.59452579  1  0.796653  -3e-06  -0.004709  0.045972  -2e-06  3.929667  0.0
C  C139  1  0.15662639  0.98607829  0.40547471  1  0.796682  -3e-06  -0.004645  0.046083  -2e-06  3.929613  0.0
C  C140  1  0.53238243  0.01252079  0.58370664  1  0.800133  -3e-06  -0.009387  0.039839  -3e-06  3.940423  0.0
C  C141  1  0.46761787  0.98747922  0.41629233  1  0.799962  -3e-06  -0.009399  0.03984  -3e-06  3.940456  0.0
C  C142  1  0.54763169  0.16910151  0.44151988  1  0.791107  -4e-06  -0.013824  0.030825  -3e-06  3.945088  0.0
C  C143  1  0.45237563  0.83089724  0.55847794  1  0.790861  -4e-06  -0.013863  0.030768  -3e-06  3.94507  0.0
C  C144  1  0.49792187  0.22759889  0.54967188  1  0.486101  2e-06  0.048688  0.085249  1e-06  3.920805  0.0
C  C145  1  0.50207734  0.77240176  0.45032812  1  0.486147  2e-06  0.048685  0.085288  1e-06  3.920767  0.0
C  C146  1  0.43318139  0.29792485  0.57230524  1  -0.046877  -6e-06  -0.085086  -0.160013  -7e-06  3.968353  0.0
C  C147  1  0.56681891  0.70207517  0.42769373  1  -0.046888  -6e-06  -0.085114  -0.160091  -7e-06  3.968233  0.0
C  C148  1  0.48597924  0.33699851  0.59397831  1  -0.003129  3e-06  0.00165  0.056121  0.0  4.044533  0.0
C  C149  1  0.51402166  0.66300019  0.40602141  1  -0.003143  2e-06  0.001659  0.056078  0.0  4.044581  0.0
C  C150  1  0.60652738  0.30213590  0.58974061  1  0.055973  -8e-06  -0.090255  -0.181313  -8e-06  3.95364  0.0
C  C151  1  0.39347324  0.69786343  0.41025974  1  0.056131  -8e-06  -0.090243  -0.181251  -8e-06  3.953488  0.0
C  C152  1  0.66609866  0.23149035  0.56593206  1  0.372792  3e-06  0.057598  0.109527  1e-06  3.875343  0.0
C  C153  1  0.33389974  0.76851029  0.43406834  1  0.372811  3e-06  0.05758  0.109473  1e-06  3.875288  0.0
C  C154  1  0.40974346  0.40771157  0.61923381  1  0.901199  -1.8e-05  0.21154  0.163969  -2e-05  4.023196  0.0
C  C155  1  0.59025493  0.59228908  0.38076559  1  0.901155  -1.8e-05  0.211595  0.16403  -2e-05  4.023245  0.0
C  C156  1  0.33456793  0.51855566  0.65898428  1  0.921844  -7e-06  0.227514  0.193612  -9e-06  3.965595  0.0
C  C157  1  0.66543016  0.48144564  0.34101508  1  0.919744  -7e-06  0.227471  0.193643  -9e-06  3.965376  0.0
C  C158  1  0.31404614  0.58970944  0.68442998  1  0.022904  -0.000102  0.010531  0.066315  -0.000107  4.00751  0.0
C  C159  1  0.68595305  0.41029122  0.31556935  1  0.024576  -0.000101  0.010588  0.06636  -0.000107  4.007459  0.0
C  C160  1  0.20198113  0.62618015  0.70702770  1  0.027357  1.7e-05  -0.076419  -0.153855  6e-06  3.947927  0.0
C  C161  1  0.79801998  0.37381987  0.29297153  1  0.027386  1.6e-05  -0.07639  -0.153788  6e-06  3.947884  0.0
C  C162  1  0.17506109  0.69607579  0.73013076  1  0.420484  -4.5e-05  0.051341  0.090956  -4.3e-05  3.903493  0.0
C  C163  1  0.82493810  0.30392487  0.26986858  1  0.420455  -4.5e-05  0.051278  0.090877  -4.2e-05  3.903526  0.0
C  C164  1  0.36111740  0.69659139  0.71181121  1  0.467018  -6.8e-05  0.053102  0.096878  -6.8e-05  3.88598  0.0
C  C165  1  0.63888289  0.30340862  0.28818809  1  0.468114  -6.8e-05  0.053094  0.096824  -6.8e-05  3.886147  0.0
C  C166  1  0.39494438  0.62645816  0.68760157  1  -0.017399  2e-06  -0.085376  -0.167405  -5e-06  3.95618  0.0
C  C167  1  0.60505701  0.37354121  0.31239738  1  -0.017241  2e-06  -0.085459  -0.167504  -5e-06  3.956454  0.0
C  C168  1  0.02633283  0.91866628  0.69561948  1  0.781317  2.7e-05  -0.007269  0.044308  1.4e-05  3.93723  0.0
C  C169  1  0.97366478  0.08133434  0.30438166  1  0.781223  2.7e-05  -0.007272  0.044311  1.5e-05  3.937215  0.0
C  C170  1  0.04976938  0.76450607  0.83855420  1  0.799794  7.6e-05  -0.005313  0.042866  -1.6e-05  3.924369  0.0
C  C171  1  0.95022912  0.23549261  0.16144607  1  0.799862  7.5e-05  -0.00533  0.042844  -1.6e-05  3.924271  0.0
C  C172  1  0.37415572  0.76305725  0.82900857  1  0.771172  3.9e-05  -0.008576  0.038128  -1e-06  3.929096  0.0
C  C173  1  0.62584630  0.23694080  0.17099146  1  0.771144  3.9e-05  -0.008593  0.03815  -1e-06  3.929123  0.0
C  C174  1  0.34595071  0.91884315  0.68645915  1  0.79542  3e-05  -0.013168  0.031759  1.5e-05  3.950475  0.0
C  C175  1  0.65405158  0.08115427  0.31353959  1  0.795443  3e-05  -0.013233  0.031664  1.5e-05  3.950744  0.0
C  C176  1  0.22943810  0.97836267  0.79493474  1  0.476483  -7.6e-05  0.047963  0.084588  -0.000137  3.923345  0.0
C  C177  1  0.77055990  0.02164058  0.20506475  1  0.476393  -7.6e-05  0.047933  0.084564  -0.000136  3.92326  0.0
C  C178  1  0.20189524  0.04815284  0.81807714  1  -0.033857  -0.001  -0.084428  -0.158921  -0.00104  3.96741  -0.001
C  C179  1  0.79810195  0.95185040  0.18192242  1  -0.033726  -0.001  -0.084551  -0.159178  -0.00104  3.96727  -0.001
C  C180  1  0.08927424  0.08592894  0.84012510  1  0.02085  -0.000274  0.002655  0.058372  -0.000417  4.040179  0.0
C  C181  1  0.91072275  0.91407302  0.15987429  1  0.02057  -0.000274  0.002736  0.058566  -0.000417  4.040276  0.0
C  C182  1  0.00795252  0.05067017  0.83552639  1  -0.006495  -0.001364  -0.090072  -0.179695  -0.001393  3.949608  -0.001
C  C183  1  0.99204476  0.94933114  0.16447271  1  -0.006374  -0.001364  -0.090065  -0.179722  -0.001393  3.949719  -0.001
C  C184  1  0.04206087  0.98070807  0.81119413  1  0.453909  0.000203  0.057149  0.108318  3.1e-05  3.877662  0.0
C  C185  1  0.95793824  0.01929452  0.18880567  1  0.454231  0.000204  0.057176  0.108268  3.1e-05  3.877615  0.0
C  C186  1  0.07000033  0.15575926  0.86615873  1  0.862175  -0.002892  0.210786  0.162461  -0.00314  4.029055  -0.002
C  C187  1  0.93000029  0.84424008  0.13384161  1  0.86216  -0.002891  0.210774  0.162396  -0.003139  4.029074  -0.002
C  C188  1  0.99563741  0.26400155  0.90766461  1  0.916586  -0.00107  0.226614  0.191981  -0.001384  3.968623  0.001
C  C189  1  0.00436302  0.73599645  0.09233722  1  0.916446  -0.001069  0.226681  0.192103  -0.001383  3.968376  0.001
C  C190  1  0.91966113  0.33311293  0.93423986  1  -0.028669  -0.015914  0.008623  0.062666  -0.016799  4.009757  -0.01
C  C191  1  0.08033962  0.66688440  0.06576301  1  -0.028817  -0.015912  0.008569  0.062711  -0.016797  4.009585  -0.01
C  C192  1  0.97025615  0.36428998  0.96112200  1  -0.026581  0.005249  -0.076588  -0.15094  0.001834  3.928843  0.004
C  C193  1  0.02974206  0.63570933  0.03887922  1  -0.026272  0.005249  -0.07651  -0.150909  0.001835  3.928606  0.004
C  C194  1  0.90280200  0.43269901  0.98512498  1  0.536206  -0.009557  0.048085  0.100976  -0.01013  3.930264  -0.006
C  C195  1  0.09719672  0.56730095  0.01487613  1  0.536387  -0.009553  0.0481  0.101  -0.010127  3.930473  -0.006
C  C196  1  0.73944408  0.44118236  0.95932352  1  0.546384  -0.009711  0.048531  0.105491  -0.010367  3.920602  -0.006
C  C197  1  0.26055365  0.55881628  0.04067915  1  0.546806  -0.009713  0.048531  0.105517  -0.010367  3.92059  -0.006
C  C198  1  0.80058999  0.37299352  0.93394229  1  -0.040883  0.005205  -0.087123  -0.168527  0.001742  3.951903  0.004
C  C199  1  0.19940803  0.62700448  0.06605975  1  -0.041113  0.005203  -0.087096  -0.16854  0.001742  3.952072  0.004
C  C200  1  0.86666584  0.67177906  0.94330265  1  0.84156  0.019065  0.003344  0.084256  0.010146  3.943471  0.019
C  C201  1  0.13333534  0.32822087  0.05670056  1  0.841896  0.019051  0.003271  0.084242  0.010139  3.943521  0.019
C  C202  1  0.85060253  0.51189883  0.10053868  1  0.858836  0.017862  0.008825  0.089892  0.009859  3.9348  0.019
C  C203  1  0.14939375  0.48810116  0.89946131  1  0.858769  0.01786  0.008885  0.089924  0.009857  3.934788  0.019
C  C204  1  0.52413109  0.51142372  0.09160809  1  0.820283  0.018511  0.000921  0.079081  0.009719  3.948146  0.019
C  C205  1  0.47588202  0.48857302  0.90839308  1  0.820332  0.018509  0.000842  0.079138  0.009718  3.947895  0.019
C  C206  1  0.54178297  0.67252058  0.93474303  1  0.8337  0.017183  0.000923  0.075772  0.009371  3.953785  0.019
C  C207  1  0.45822238  0.32748073  0.06525668  1  0.833845  0.017175  0.000938  0.075779  0.009368  3.954021  0.019
C  C208  1  0.49002086  0.74025963  0.05074593  1  0.473304  -0.013672  0.045815  0.096713  -0.014179  3.950089  -0.008
C  C209  1  0.50998127  0.25974167  0.94925406  1  0.473556  -0.013671  0.045791  0.096647  -0.014178  3.950032  -0.008
C  C210  1  0.42372007  0.80912477  0.07443915  1  -0.02016  0.005509  -0.087233  -0.163041  0.00146  3.962086  0.005
C  C211  1  0.57628164  0.19087392  0.92556116  1  -0.020145  0.005509  -0.087176  -0.162896  0.00146  3.961914  0.005
C  C212  1  0.47551780  0.84465149  0.09872865  1  0.024215  -0.026073  0.0012  0.055454  -0.027356  4.04339  -0.017
C  C213  1  0.52448059  0.15534916  0.90127108  1  0.024183  -0.026072  0.001174  0.055379  -0.027355  4.043379  -0.017
C  C214  1  0.59575363  0.80805088  0.09616278  1  -0.040984  0.004942  -0.092055  -0.18069  0.000874  3.951168  0.005
C  C215  1  0.40424629  0.19195172  0.90383694  1  -0.040807  0.004941  -0.09204  -0.180657  0.000874  3.951185  0.005
C  C216  1  0.65594321  0.73903148  0.07125516  1  0.47245  -0.01613  0.052263  0.117689  -0.016678  3.909396  -0.009
C  C217  1  0.34405751  0.26097112  0.92874449  1  0.47215  -0.01613  0.052176  0.117559  -0.016678  3.909611  -0.009
C  C218  1  0.39953183  0.91357067  0.12523034  1  0.897877  -0.001286  0.212032  0.165818  -0.002007  4.025284  0.001
C  C219  1  0.60046687  0.08642932  0.87476977  1  0.897977  -0.001286  0.212027  0.16584  -0.002007  4.025291  0.001
C  C220  1  0.32578383  0.02147847  0.16702210  1  0.935903  -0.004503  0.225963  0.190327  -0.005029  3.97074  -0.003
C  C221  1  0.67421458  0.97852216  0.83297830  1  0.936179  -0.004503  0.225955  0.190294  -0.005029  3.970816  -0.003
C  C222  1  0.30653286  0.09089186  0.19352567  1  0.002921  -2e-06  0.010743  0.066971  -0.000278  4.002982  0.0
C  C223  1  0.69346794  0.90910881  0.80647318  1  0.00262  -2e-06  0.010837  0.067094  -0.000278  4.003028  0.0
C  C224  1  0.19580042  0.12539069  0.21764668  1  0.049697  -0.001278  -0.076056  -0.151944  -0.001351  3.946678  -0.001
C  C225  1  0.80420098  0.87460866  0.78235293  1  0.049713  -0.001278  -0.075994  -0.151829  -0.001351  3.946499  -0.001
C  C226  1  0.16984458  0.19436546  0.24134455  1  0.416804  -2.8e-05  0.050801  0.089613  -0.000107  3.906168  0.0
C  C227  1  0.83015862  0.80563524  0.75865310  1  0.416789  -2.8e-05  0.050722  0.08957  -0.000107  3.906068  0.0
C  C228  1  0.35469684  0.19700943  0.22115090  1  0.42872  0.000334  0.052726  0.096814  9.4e-05  3.886066  0.0
C  C229  1  0.64530383  0.80299323  0.77884577  1  0.428806  0.000334  0.052722  0.096755  9.4e-05  3.886011  0.0
C  C230  1  0.38750750  0.12795095  0.19626152  1  0.001721  -0.001756  -0.087062  -0.169659  -0.001787  3.954107  -0.001
C  C231  1  0.61249177  0.87205300  0.80373580  1  0.002239  -0.001756  -0.087153  -0.169679  -0.001787  3.954046  -0.001
N  N232  1  0.08013514  0.38837831  0.23413626  1  -1.285217  0.000713  -0.384862  -0.295601  0.000288  3.615332  0.001
N  N233  1  0.91986305  0.61162103  0.76586396  1  -1.285217  0.000713  -0.384898  -0.295707  0.000288  3.615267  0.001
N  N234  1  0.10044804  0.29335523  0.31869843  1  -1.308427  -7e-06  -0.38747  -0.297847  -2.1e-05  3.632154  0.0
N  N235  1  0.89955137  0.70664672  0.68130141  1  -1.308434  -7e-06  -0.387551  -0.297878  -2.1e-05  3.632184  0.0
N  N236  1  0.31067863  0.28897032  0.31013591  1  -1.290841  -1.1e-05  -0.385269  -0.290051  -3e-05  3.615886  0.0
N  N237  1  0.68932176  0.71103297  0.68986204  1  -1.291465  -1.1e-05  -0.385214  -0.289904  -3e-05  3.616077  0.0
N  N238  1  0.29016889  0.38459550  0.22626419  1  -1.303237  0.000593  -0.386696  -0.29338  0.00021  3.642779  0.0
N  N239  1  0.70983160  0.61540582  0.77373429  1  -1.303291  0.000593  -0.386644  -0.293353  0.00021  3.642874  0.0
N  N240  1  0.14419307  0.44408610  0.30088898  1  -1.157211  -9.6e-05  -0.324113  -0.13358  -9.5e-05  3.584607  0.0
N  N241  1  0.85580772  0.55591458  0.69910955  1  -1.158086  -9.6e-05  -0.324069  -0.133522  -9.5e-05  3.584544  0.0
N  N242  1  0.14451952  0.68226731  0.38055402  1  -0.675469  -5.1e-05  -0.227281  -0.25423  -5.3e-05  3.255488  0.0
N  N243  1  0.85547898  0.31773137  0.61944658  1  -0.674955  -5.1e-05  -0.227308  -0.254282  -5.3e-05  3.255495  0.0
N  N244  1  0.09810024  0.75022680  0.40515867  1  -0.631573  -1e-06  -0.211573  -0.221677  -2e-06  3.230897  0.0
N  N245  1  0.90189625  0.24976926  0.59484272  1  -0.631716  -1e-06  -0.211663  -0.221775  -2e-06  3.230808  0.0
N  N246  1  0.95650973  0.71525267  0.39284138  1  -0.856911  -2.3e-05  -0.136787  0.088317  -2.4e-05  3.712768  0.0
N  N247  1  0.04348747  0.28474534  0.60716008  1  -0.856936  -2.3e-05  -0.136902  0.088174  -2.4e-05  3.713035  0.0
N  N248  1  0.84491457  0.71516276  0.39522956  1  -0.724089  -0.0  -0.483399  -0.494517  -1e-06  3.155688  0.0
N  N249  1  0.15508343  0.28483527  0.60477115  1  -0.724102  -0.0  -0.483393  -0.494573  -1e-06  3.155848  0.0
N  N250  1  0.78068194  0.98230902  0.48745773  1  -1.17495  -6e-06  -0.318982  -0.13052  -7e-06  3.565293  0.0
N  N251  1  0.21931757  0.01769096  0.51254264  1  -1.174853  -6e-06  -0.318961  -0.130605  -7e-06  3.565377  0.0
N  N252  1  0.80056992  0.13945222  0.47982558  1  -1.29776  -1e-06  -0.385588  -0.297309  -2e-06  3.615368  0.0
N  N253  1  0.19943390  0.86054715  0.52017348  1  -1.297733  -1e-06  -0.38556  -0.297299  -2e-06  3.615397  0.0
N  N254  1  0.79054967  0.04308619  0.56386031  1  -1.286865  1e-06  -0.387011  -0.299197  -0.0  3.626829  0.0
N  N255  1  0.20945085  0.95691510  0.43613983  1  -1.286917  1e-06  -0.387014  -0.299204  0.0  3.626828  0.0
N  N256  1  0.59371813  0.03796551  0.55454618  1  -1.294828  2e-06  -0.386256  -0.293202  0.0  3.62008  0.0
N  N257  1  0.40628198  0.96203318  0.44545428  1  -1.294794  2e-06  -0.386265  -0.293229  0.0  3.620152  0.0
N  N258  1  0.60330885  0.13510545  0.47105643  1  -1.282383  1e-06  -0.387649  -0.294496  -0.0  3.643924  0.0
N  N259  1  0.39669415  0.86489392  0.52894204  1  -1.282126  1e-06  -0.387654  -0.294501  -0.0  3.64386  0.0
N  N260  1  0.61386936  0.19335882  0.54650262  1  -1.154178  -6e-06  -0.323635  -0.13197  -7e-06  3.580289  0.0
N  N261  1  0.38612954  0.80664247  0.45349734  1  -1.154195  -6e-06  -0.323648  -0.131987  -7e-06  3.580425  0.0
N  N262  1  0.29569132  0.42878190  0.62666017  1  -0.671485  3e-06  -0.227914  -0.256523  1e-06  3.256139  0.0
N  N263  1  0.70430656  0.57121810  0.37333968  1  -0.671421  3e-06  -0.227927  -0.256573  1e-06  3.256238  0.0
N  N264  1  0.24948946  0.49709267  0.65105485  1  -0.656645  -3.5e-05  -0.21185  -0.221592  -3.6e-05  3.226874  0.0
N  N265  1  0.75050973  0.50290798  0.34894448  1  -0.656296  -3.5e-05  -0.21183  -0.221585  -3.6e-05  3.226778  0.0
N  N266  1  0.43744585  0.46323783  0.63938133  1  -0.839041  -1.9e-05  -0.13751  0.087489  -1.9e-05  3.711534  0.0
N  N267  1  0.56255224  0.53676347  0.36061803  1  -0.839053  -1.9e-05  -0.137546  0.087459  -1.9e-05  3.711341  0.0
N  N268  1  0.54616286  0.46369133  0.64229228  1  -0.711135  -1e-06  -0.48278  -0.491948  -1e-06  3.15639  0.0
N  N269  1  0.45383584  0.53630866  0.35770784  1  -0.711102  -1e-06  -0.482815  -0.491911  -1e-06  3.156393  0.0
N  N270  1  0.25253108  0.73227696  0.73244222  1  -1.171893  -7.6e-05  -0.31928  -0.131256  -7.5e-05  3.565643  0.0
N  N271  1  0.74746871  0.26772240  0.26755720  1  -1.171926  -7.6e-05  -0.319236  -0.131182  -7.5e-05  3.565682  0.0
N  N272  1  0.08523013  0.88943024  0.72434559  1  -1.278903  -1e-05  -0.385955  -0.297733  -2.6e-05  3.613442  0.0
N  N273  1  0.91476878  0.11057105  0.27565436  1  -1.278822  -1e-05  -0.385956  -0.297736  -2.6e-05  3.613471  0.0
N  N274  1  0.10553781  0.79314595  0.80825756  1  -1.295438  0.000709  -0.385151  -0.29584  0.000276  3.630943  0.001
N  N275  1  0.89446089  0.20685403  0.19174288  1  -1.29552  0.000709  -0.385154  -0.295818  0.000276  3.630926  0.001
N  N276  1  0.31662029  0.78823066  0.79983432  1  -1.26621  0.000597  -0.384101  -0.290155  0.000228  3.620981  0.0
N  N277  1  0.68338115  0.21176866  0.20016695  1  -1.266245  0.000597  -0.384132  -0.29021  0.000228  3.621107  0.0
N  N278  1  0.29491719  0.88506696  0.71626115  1  -1.29067  -4e-06  -0.389329  -0.295498  -2e-05  3.648827  0.0
N  N279  1  0.70508402  0.11493108  0.28373895  1  -1.290687  -4e-06  -0.389254  -0.295387  -2e-05  3.649034  0.0
N  N280  1  0.15108398  0.94349349  0.79159445  1  -1.16068  -0.001512  -0.32289  -0.133271  -0.001592  3.580105  -0.001
N  N281  1  0.84891353  0.05650909  0.20840582  1  -1.160754  -0.001512  -0.322878  -0.133157  -0.001591  3.580018  -0.001
N  N282  1  0.15516738  0.17778310  0.87355337  1  -0.670978  0.000756  -0.228318  -0.255545  0.000269  3.255585  0.001
N  N283  1  0.84483294  0.82221689  0.12644693  1  -0.670989  0.000756  -0.228279  -0.255473  0.000269  3.255565  0.001
N  N284  1  0.10929493  0.24455588  0.89905914  1  -0.628822  -0.004247  -0.212051  -0.221771  -0.00435  3.226594  -0.003
N  N285  1  0.89070631  0.75544213  0.10094262  1  -0.628772  -0.004247  -0.212083  -0.221842  -0.00435  3.226495  -0.003
N  N286  1  0.96742845  0.20905659  0.88739049  1  -0.853062  -0.003219  -0.137442  0.087371  -0.003329  3.713881  -0.003
N  N287  1  0.03257247  0.79094209  0.11261023  1  -0.853084  -0.003219  -0.137476  0.087318  -0.003328  3.713876  -0.003
N  N288  1  0.85620135  0.20715198  0.89130871  1  -0.725135  0.00013  -0.484021  -0.494187  -1.2e-05  3.161714  0.0
N  N289  1  0.14379876  0.79284669  0.10869208  1  -0.725138  0.00013  -0.484077  -0.494215  -1.2e-05  3.161784  0.0
N  N290  1  0.78887144  0.47170844  0.98432711  1  -1.219761  0.058553  -0.318442  -0.224986  0.027082  3.518958  0.047
N  N291  1  0.21112506  0.52829283  0.01567372  1  -1.220273  0.058555  -0.318439  -0.224974  0.027081  3.519147  0.047
N  N292  1  0.81412144  0.64459497  0.97552229  1  -1.358904  0.056323  -0.365359  -0.365274  0.025746  3.355207  0.031
N  N293  1  0.18587905  0.35540297  0.02448252  1  -1.359139  0.056322  -0.365302  -0.36528  0.025745  3.35521  0.031
N  N294  1  0.80289971  0.54038625  0.06843554  1  -1.368595  0.057827  -0.362341  -0.361026  0.026562  3.374912  0.031
N  N295  1  0.19709495  0.45961374  0.93156427  1  -1.368532  0.057823  -0.3624  -0.36104  0.02656  3.374941  0.031
N  N296  1  0.57916290  0.53494558  0.05901795  1  -1.332903  0.056491  -0.361706  -0.354826  0.025886  3.345452  0.032
N  N297  1  0.42084246  0.46505572  0.94098209  1  -1.332787  0.056489  -0.361659  -0.354925  0.025887  3.34527  0.032
N  N298  1  0.59078595  0.64002738  0.96628863  1  -1.345436  0.0576  -0.360994  -0.355325  0.026591  3.385319  0.031
N  N299  1  0.40921802  0.35997519  0.03371240  1  -1.345558  0.057603  -0.361019  -0.3553  0.02659  3.385582  0.031
N  N300  1  0.60520312  0.70445014  0.04911858  1  -1.23779  0.054146  -0.320566  -0.224185  0.024661  3.528177  0.045
N  N301  1  0.39480011  0.29555052  0.95088106  1  -1.238063  0.054142  -0.320518  -0.224072  0.024659  3.528276  0.045
N  N302  1  0.28561852  0.93381530  0.13358483  1  -0.675656  -0.008936  -0.228889  -0.25824  -0.009184  3.251417  -0.007
N  N303  1  0.71438100  0.06618467  0.86641620  1  -0.675324  -0.008936  -0.228873  -0.258241  -0.009183  3.251389  -0.007
N  N304  1  0.24029692  0.00029279  0.15929617  1  -0.642063  0.00025  -0.213023  -0.222717  -0.000124  3.230027  0.001
N  N305  1  0.75970260  0.99970718  0.84070487  1  -0.642348  0.00025  -0.213022  -0.222679  -0.000124  3.23004  0.001
N  N306  1  0.42803005  0.96786452  0.14602748  1  -0.86168  -0.004949  -0.138098  0.086701  -0.005112  3.714238  -0.004
N  N307  1  0.57196804  0.03213678  0.85397221  1  -0.861972  -0.004948  -0.138092  0.086626  -0.005111  3.714431  -0.004
N  N308  1  0.53675581  0.96972477  0.14775288  1  -0.695462  0.000168  -0.482947  -0.49092  -5.2e-05  3.156617  0.0
N  N309  1  0.46324309  0.03027652  0.85224707  1  -0.695336  0.000168  -0.482944  -0.490911  -5.2e-05  3.156754  0.0
N  N310  1  0.24698294  0.23147327  0.24285357  1  -1.146031  -0.001791  -0.319291  -0.131971  -0.001886  3.563583  -0.001
N  N311  1  0.75301724  0.76852872  0.75714453  1  -1.146139  -0.001791  -0.319301  -0.132103  -0.001886  3.563734  -0.001
