# generated using pymatgen
data_ZnH10C15SN3O4
_symmetry_space_group_name_H-M   'P 1'
_cell_length_a   8.43993877
_cell_length_b   9.46805817
_cell_length_c   10.13903662
_cell_angle_alpha   63.05189463
_cell_angle_beta   72.19022436
_cell_angle_gamma   67.11804861
_symmetry_Int_Tables_number   1
_chemical_formula_structural   ZnH10C15SN3O4
_chemical_formula_sum   'Zn2 H20 C30 S2 N6 O8'
_cell_volume   657.05700514
_cell_formula_units_Z   2
loop_
 _symmetry_equiv_pos_site_id
 _symmetry_equiv_pos_as_xyz
  1  'x, y, z'
loop_
 _atom_site_type_symbol
 _atom_site_label
 _atom_site_symmetry_multiplicity
 _atom_site_fract_x
 _atom_site_fract_y
 _atom_site_fract_z
 _atom_site_occupancy
 _atom_site_hle17_bader_spin_density
 _atom_site_hle17_ddec_charge
 _atom_site_hle17_ddec_spin_density
 _atom_site_hle17_ddec_sum_bond_order
 _atom_site_hle17_magmom
 _atom_site_hse06_10hf_bader_spin_density
 _atom_site_hse06_10hf_ddec_charge
 _atom_site_hse06_10hf_ddec_spin_density
 _atom_site_hse06_10hf_ddec_sum_bond_order
 _atom_site_hse06_10hf_magmom
 _atom_site_hse06_bader_spin_density
 _atom_site_hse06_ddec_charge
 _atom_site_hse06_ddec_spin_density
 _atom_site_hse06_ddec_sum_bond_order
 _atom_site_hse06_magmom
 _atom_site_pbe_bader_spin_density
 _atom_site_pbe_cm5_charge
 _atom_site_pbe_ddec_charge
 _atom_site_pbe_ddec_spin_density
 _atom_site_pbe_ddec_sum_bond_order
 _atom_site_pbe_magmom
Zn  Zn0  1  0.90164206  0.63523017  0.64130072  1  0  1.031524  0  1.872243  0  0  0.838424  0  2.347563  0  0  0.884088  0  2.293153  0  0  0.707402  0.805749  0  2.385697  0
Zn  Zn1  1  0.09835891  0.36476932  0.35869931  1  0  1.031529  0  1.872238  0  0  0.838431  0  2.347552  0  0  0.884094  0  2.293143  0  0  0.70741  0.805758  0  2.385687  0
H  H2  1  0.69567588  0.57306659  0.47373306  1  0  0.082245  0  0.962803  0  0  0.088821  0  1.031017  0  0  0.091375  0  1.02809  0  0  0.117195  0.086585  0  1.033768  0
H  H3  1  0.30432470  0.42693415  0.52626655  1  0  0.082238  0  0.962793  0  0  0.08881  0  1.031022  0  0  0.091366  0  1.028092  0  0  0.117197  0.086573  0  1.033774  0
H  H4  1  0.39342687  0.70109135  0.39902167  1  0  0.121491  0  0.968375  0  0  0.128454  0  1.031095  0  0  0.131926  0  1.030202  0  0  0.108294  0.125837  0  1.031972  0
H  H5  1  0.60657371  0.29890939  0.60097695  1  0  0.121463  0  0.968359  0  0  0.128409  0  1.031097  0  0  0.131896  0  1.030189  0  0  0.108273  0.125794  0  1.031973  0
H  H6  1  0.17475755  0.90582569  0.50413126  1  0  0.1105  0  0.925473  0  0  0.12188  0  0.982246  0  0  0.124766  0  0.980052  0  0  0.11123  0.11936  0  0.984474  0
H  H7  1  0.82524342  0.09417381  0.49586779  1  0  0.11051  0  0.925479  0  0  0.121894  0  0.982243  0  0  0.12478  0  0.980049  0  0  0.111237  0.119375  0  0.984471  0
H  H8  1  0.25488287  0.97713347  0.67924963  1  0  0.126879  0  0.98367  0  0  0.131689  0  1.049267  0  0  0.135506  0  1.047519  0  0  0.108559  0.128987  0  1.050608  0
H  H9  1  0.74511647  0.02286726  0.32075029  1  0  0.126933  0  0.983613  0  0  0.131716  0  1.049239  0  0  0.135532  0  1.04749  0  0  0.10857  0.129012  0  1.050582  0
H  H10  1  0.33721860  0.98086139  0.85709545  1  0  0.136367  0  0.962369  0  0  0.144917  0  1.021926  0  0  0.148788  0  1.019806  0  0  0.116915  0.142183  0  1.02369  0
H  H11  1  0.66278237  0.01913810  0.14290458  1  0  0.13638  0  0.962363  0  0  0.14493  0  1.021908  0  0  0.148802  0  1.019786  0  0  0.116915  0.142189  0  1.023689  0
H  H12  1  0.80182462  0.90423554  0.01221118  1  0  0.134258  0  0.958847  0  0  0.141331  0  1.021887  0  0  0.1453  0  1.019408  0  0  0.119144  0.138444  0  1.023345  0
H  H13  1  0.19817634  0.09576395  0.98778885  1  0  0.134235  0  0.95888  0  0  0.141334  0  1.021888  0  0  0.145304  0  1.019409  0  0  0.119147  0.138447  0  1.023346  0
H  H14  1  0.06624864  0.78350014  0.00673498  1  0  0.130519  0  0.962351  0  0  0.136824  0  1.025155  0  0  0.140444  0  1.023124  0  0  0.115139  0.133554  0  1.027804  0
H  H15  1  0.93375194  0.21650059  0.99326463  1  0  0.130502  0  0.96237  0  0  0.136804  0  1.025181  0  0  0.140423  0  1.023151  0  0  0.115141  0.133533  0  1.027829  0
H  H16  1  0.36204074  0.58897435  0.02379059  1  0  0.0923  0  0.973163  0  0  0.102918  0  1.036584  0  0  0.10536  0  1.035136  0  0  0.105701  0.101444  0  1.037243  0
H  H17  1  0.63795860  0.41102638  0.97620933  1  0  0.092319  0  0.973149  0  0  0.102937  0  1.036572  0  0  0.105379  0  1.035123  0  0  0.105707  0.101463  0  1.037229  0
H  H18  1  0.47923291  0.40086117  0.87494085  1  0  0.118494  0  0.967428  0  0  0.127537  0  1.029495  0  0  0.130746  0  1.028183  0  0  0.107486  0.125214  0  1.030633  0
H  H19  1  0.52076768  0.59913956  0.12505876  1  0  0.118539  0  0.967408  0  0  0.127598  0  1.029453  0  0  0.130806  0  1.028142  0  0  0.107491  0.125275  0  1.030589  0
H  H20  1  0.27945335  0.41427964  0.73063316  1  0  0.078964  0  0.954213  0  0  0.090149  0  1.014491  0  0  0.091899  0  1.013411  0  0  0.118001  0.089308  0  1.014496  0
H  H21  1  0.72054723  0.58572110  0.26936546  1  0  0.078954  0  0.954203  0  0  0.090159  0  1.014455  0  0  0.091913  0  1.013375  0  0  0.117992  0.089311  0  1.01448  0
C  C22  1  0.59374871  0.66469713  0.51381040  1  0  0.143712  0  3.694124  0  0  0.110506  0  3.950288  0  0  0.117299  0  3.968139  0  0  0.05214  0.105098  0  3.938996  0
C  C23  1  0.40625188  0.33530360  0.48618822  1  0  0.143728  0  3.694084  0  0  0.110509  0  3.950254  0  0  0.117302  0  3.968106  0  0  0.052129  0.1051  0  3.938965  0
C  C24  1  0.42788280  0.73446446  0.47424338  1  0  -0.12456  0  3.695652  0  0  -0.135868  0  3.948317  0  0  -0.143297  0  3.970449  0  0  -0.082592  -0.13143  0  3.934254  0
C  C25  1  0.57211778  0.26553627  0.52575524  1  0  -0.124544  0  3.695659  0  0  -0.135827  0  3.948317  0  0  -0.143267  0  3.970442  0  0  -0.082562  -0.131391  0  3.934258  0
C  C26  1  0.30534784  0.84948577  0.53319711  1  0  0.02005  0  3.677196  0  0  -0.003279  0  3.933577  0  0  0.000444  0  3.951325  0  0  -0.063015  -0.005467  0  3.922951  0
C  C27  1  0.69465274  0.15051496  0.46680151  1  0  0.020081  0  3.677221  0  0  -0.003246  0  3.933591  0  0  0.000477  0  3.951342  0  0  -0.063  -0.005433  0  3.922963  0
C  C28  1  0.35059442  0.88972908  0.63018030  1  0  -0.139668  0  3.673516  0  0  -0.158156  0  3.92189  0  0  -0.16511  0  3.943482  0  0  -0.080043  -0.154537  0  3.90842  0
C  C29  1  0.64940530  0.11027041  0.36982005  1  0  -0.139746  0  3.673502  0  0  -0.158216  0  3.921889  0  0  -0.165171  0  3.943479  0  0  -0.080068  -0.154596  0  3.908415  0
C  C30  1  0.52011450  0.81464386  0.66367945  1  0  0.16119  0  3.769482  0  0  0.160993  0  4.002729  0  0  0.166247  0  4.024962  0  0  0.117185  0.157431  0  3.988109  0
C  C31  1  0.47988522  0.18535563  0.33632089  1  0  0.161167  0  3.769496  0  0  0.160992  0  4.002733  0  0  0.166248  0  4.024966  0  0  0.11718  0.157431  0  3.988113  0
C  C32  1  0.58333081  0.84785582  0.76501241  1  0  0.196668  0  3.786197  0  0  0.189732  0  4.030959  0  0  0.196709  0  4.051298  0  0  0.126558  0.184763  0  4.018707  0
C  C33  1  0.41667016  0.15214367  0.23498762  1  0  0.196656  0  3.786073  0  0  0.189662  0  4.030917  0  0  0.196638  0  4.051258  0  0  0.126523  0.184695  0  4.018664  0
C  C34  1  0.47719097  0.93365437  0.85747020  1  0  -0.158995  0  3.595242  0  0  -0.184311  0  3.839738  0  0  -0.190645  0  3.858432  0  0  -0.062982  -0.183621  0  3.829996  0
C  C35  1  0.52280875  0.06634512  0.14253015  1  0  -0.158987  0  3.595175  0  0  -0.184265  0  3.839665  0  0  -0.1906  0  3.85836  0  0  -0.062944  -0.183578  0  3.82992  0
C  C36  1  0.55385255  0.95633595  0.94899141  1  0  0.112841  0  3.704119  0  0  0.125653  0  3.935107  0  0  0.129769  0  3.954944  0  0  0.021621  0.122921  0  3.921425  0
C  C37  1  0.44614717  0.04366354  0.05100894  1  0  0.112845  0  3.704183  0  0  0.125647  0  3.935173  0  0  0.129764  0  3.955011  0  0  0.021616  0.122917  0  3.921491  0
C  C38  1  0.73510781  0.89085018  0.94403550  1  0  -0.144991  0  3.601345  0  0  -0.174651  0  3.850505  0  0  -0.180319  0  3.867829  0  0  -0.057221  -0.167988  0  3.835774  0
C  C39  1  0.26489316  0.10914931  0.05596453  1  0  -0.144971  0  3.60142  0  0  -0.174667  0  3.850559  0  0  -0.180338  0  3.867887  0  0  -0.057237  -0.168005  0  3.83583  0
C  C40  1  0.83130750  0.79964572  0.85437526  1  0  0.207232  0  3.764208  0  0  0.201145  0  4.007231  0  0  0.208936  0  4.025984  0  0  0.132889  0.195695  0  3.993737  0
C  C41  1  0.16869347  0.20035377  0.14562477  1  0  0.207185  0  3.764265  0  0  0.201153  0  4.007224  0  0  0.208946  0  4.025976  0  0  0.132894  0.195704  0  3.993729  0
C  C42  1  0.01641453  0.70114606  0.85941650  1  0  0.174444  0  3.73935  0  0  0.170348  0  3.977863  0  0  0.175446  0  3.998959  0  0  0.122732  0.16672  0  3.963835  0
C  C43  1  0.98358519  0.29885343  0.14058385  1  0  0.174504  0  3.739304  0  0  0.170389  0  3.97782  0  0  0.175487  0  3.998916  0  0  0.122748  0.16676  0  3.963791  0
C  C44  1  0.11696941  0.70070266  0.94633343  1  0  -0.109538  0  3.640063  0  0  -0.130439  0  3.89092  0  0  -0.135961  0  3.910547  0  0  -0.068949  -0.126761  0  3.878343  0
C  C45  1  0.88303156  0.29929683  0.05366661  1  0  -0.109493  0  3.640026  0  0  -0.130389  0  3.890884  0  0  -0.135911  0  3.910511  0  0  -0.068939  -0.126709  0  3.878305  0
C  C46  1  0.28487167  0.59122636  0.95408836  1  0  -0.00534  0  3.702257  0  0  -0.025761  0  3.958441  0  0  -0.023285  0  3.97705  0  0  -0.067277  -0.027161  0  3.945877  0
C  C47  1  0.71512891  0.40877437  0.04591223  1  0  -0.005356  0  3.70227  0  0  -0.025779  0  3.958457  0  0  -0.023303  0  3.977063  0  0  -0.06728  -0.02718  0  3.945889  0
C  C48  1  0.34831183  0.48728266  0.87491483  1  0  -0.121303  0  3.713931  0  0  -0.138233  0  3.970272  0  0  -0.144596  0  3.992602  0  0  -0.083375  -0.134232  0  3.956288  0
C  C49  1  0.65168837  0.51271931  0.12508435  1  0  -0.121399  0  3.713955  0  0  -0.138335  0  3.970292  0  0  -0.144698  0  3.992622  0  0  -0.083389  -0.13433  0  3.956305  0
C  C50  1  0.23918378  0.49611559  0.79075976  1  0  0.139795  0  3.711158  0  0  0.10996  0  3.962278  0  0  0.115877  0  3.98151  0  0  0.051472  0.106168  0  3.949219  0
C  C51  1  0.76081680  0.50388514  0.20923984  1  0  0.139854  0  3.711094  0  0  0.109999  0  3.962225  0  0  0.115912  0  3.98146  0  0  0.051473  0.106204  0  3.949163  0
S  S52  1  0.94571684  0.25535768  0.70230901  1  0  1.565566  0  5.839297  0  0  1.450252  0  6.37083  0  0  1.505997  0  6.335254  0  0  0.552322  1.410855  0  6.393935  0
S  S53  1  0.05428413  0.74464181  0.29769004  1  0  1.565626  0  5.839242  0  0  1.450329  0  6.370752  0  0  1.506071  0  6.335183  0  0  0.552365  1.410931  0  6.393857  0
N  N54  1  0.63952407  0.70524473  0.60449164  1  0  -0.355887  0  3.26567  0  0  -0.282531  0  3.533141  0  0  -0.300462  0  3.548528  0  0  -0.318899  -0.270087  0  3.523308  0
N  N55  1  0.36047565  0.29475476  0.39550772  1  0  -0.355878  0  3.265638  0  0  -0.282515  0  3.5331  0  0  -0.300447  0  3.548488  0  0  -0.318894  -0.270072  0  3.52327  0
N  N56  1  0.75528275  0.78294099  0.76623720  1  0  -0.399402  0  3.330636  0  0  -0.330861  0  3.596318  0  0  -0.348994  0  3.61081  0  0  -0.323991  -0.316697  0  3.586451  0
N  N57  1  0.24471697  0.21705850  0.23376315  1  0  -0.399396  0  3.330614  0  0  -0.330861  0  3.596307  0  0  -0.348994  0  3.610799  0  0  -0.323995  -0.316698  0  3.586439  0
N  N58  1  0.07792889  0.60044702  0.78260282  1  0  -0.35102  0  3.249666  0  0  -0.279518  0  3.509844  0  0  -0.296861  0  3.527403  0  0  -0.314761  -0.267624  0  3.498464  0
N  N59  1  0.92207208  0.39955247  0.21739722  1  0  -0.351063  0  3.249603  0  0  -0.279576  0  3.509828  0  0  -0.29692  0  3.527386  0  0  -0.314766  -0.26768  0  3.498446  0
O  O60  1  0.75829331  0.29083050  0.76041621  1  0  -0.721278  0  1.892384  0  0  -0.675162  0  2.139159  0  0  -0.69624  0  2.124833  0  0  -0.36875  -0.65983  0  2.148656  0
O  O61  1  0.24170641  0.70916900  0.23958315  1  0  -0.721315  0  1.892445  0  0  -0.675205  0  2.139204  0  0  -0.69628  0  2.124875  0  0  -0.36878  -0.659877  0  2.148705  0
O  O62  1  0.00986276  0.39918429  0.66908825  1  0  -0.782854  0  2.095825  0  0  -0.708146  0  2.404658  0  0  -0.732076  0  2.380004  0  0  -0.379943  -0.689969  0  2.42047  0
O  O63  1  0.99013658  0.60081645  0.33091068  1  0  -0.78287  0  2.095801  0  0  -0.708161  0  2.40462  0  0  -0.732088  0  2.379971  0  0  -0.379952  -0.689978  0  2.42042  0
O  O64  1  0.05161841  0.10519030  0.80690067  1  0  -0.714234  0  1.907449  0  0  -0.662502  0  2.15029  0  0  -0.683498  0  2.134381  0  0  -0.362281  -0.646736  0  2.161614  0
O  O65  1  0.94838093  0.89481043  0.19309827  1  0  -0.714233  0  1.907389  0  0  -0.662503  0  2.150208  0  0  -0.683501  0  2.134306  0  0  -0.362277  -0.646737  0  2.161535  0
O  O66  1  0.02136726  0.76479122  0.44556931  1  0  -0.755994  0  1.994357  0  0  -0.682151  0  2.288817  0  0  -0.705615  0  2.265154  0  0  -0.377925  -0.664207  0  2.304288  0
O  O67  1  0.97863247  0.23520827  0.55443104  1  0  -0.755969  0  1.994375  0  0  -0.682121  0  2.288847  0  0  -0.705583  0  2.265168  0  0  -0.377907  -0.664178  0  2.304321  0
