# generated using pymatgen
data_ZnH18C34N2(OF3)4
_symmetry_space_group_name_H-M   'P 1'
_cell_length_a   6.53902926
_cell_length_b   10.84673212
_cell_length_c   12.00216795
_cell_angle_alpha   106.31971431
_cell_angle_beta   93.53147372
_cell_angle_gamma   92.00068610
_symmetry_Int_Tables_number   1
_chemical_formula_structural   ZnH18C34N2(OF3)4
_chemical_formula_sum   'Zn1 H18 C34 N2 O4 F12'
_cell_volume   814.21581212
_cell_formula_units_Z   1
loop_
 _symmetry_equiv_pos_site_id
 _symmetry_equiv_pos_as_xyz
  1  'x, y, z'
loop_
 _atom_site_type_symbol
 _atom_site_label
 _atom_site_symmetry_multiplicity
 _atom_site_fract_x
 _atom_site_fract_y
 _atom_site_fract_z
 _atom_site_occupancy
 _atom_site_hle17_bader_spin_density
 _atom_site_hle17_ddec_charge
 _atom_site_hle17_ddec_spin_density
 _atom_site_hle17_ddec_sum_bond_order
 _atom_site_hle17_magmom
 _atom_site_hse06_10hf_bader_spin_density
 _atom_site_hse06_10hf_ddec_charge
 _atom_site_hse06_10hf_ddec_spin_density
 _atom_site_hse06_10hf_ddec_sum_bond_order
 _atom_site_hse06_10hf_magmom
 _atom_site_hse06_bader_spin_density
 _atom_site_hse06_ddec_charge
 _atom_site_hse06_ddec_spin_density
 _atom_site_hse06_ddec_sum_bond_order
 _atom_site_hse06_magmom
 _atom_site_pbe_bader_spin_density
 _atom_site_pbe_cm5_charge
 _atom_site_pbe_ddec_charge
 _atom_site_pbe_ddec_spin_density
 _atom_site_pbe_ddec_sum_bond_order
 _atom_site_pbe_magmom
Zn  Zn0  1  0.49999883  0.99999871  0.50000106  1  0  1.006287  0  1.857537  0  0  0.831683  0  2.293921  0  0  0.878829  0  2.243207  0  0  0.688732  0.799161  0  2.328281  0
H  H1  1  0.41231333  0.33683927  0.36090623  1  0  0.138454  0  0.991701  0  0  0.134808  0  1.072047  0  0  0.140254  0  1.070323  0  0  0.093469  0.130753  0  1.073734  0
H  H2  1  0.58768370  0.66315783  0.63909485  1  0  0.138454  0  0.991618  0  0  0.13479  0  1.07201  0  0  0.14024  0  1.07028  0  0  0.093482  0.130738  0  1.073697  0
H  H3  1  0.06791535  0.10342153  0.54756324  1  0  0.08498  0  0.945189  0  0  0.092985  0  1.012105  0  0  0.095331  0  1.009801  0  0  0.116  0.091362  0  1.013614  0
H  H4  1  0.93208177  0.89657654  0.45243726  1  0  0.084972  0  0.945194  0  0  0.092982  0  1.012088  0  0  0.095327  0  1.009784  0  0  0.115999  0.091359  0  1.013597  0
H  H5  1  0.61942535  0.15103836  0.74852859  1  0  0.079529  0  0.964707  0  0  0.085585  0  1.0355  0  0  0.087677  0  1.034053  0  0  0.112578  0.083888  0  1.03689  0
H  H6  1  0.38057185  0.84896068  0.25147298  1  0  0.079508  0  0.964709  0  0  0.085585  0  1.035477  0  0  0.087678  0  1.034027  0  0  0.112567  0.083889  0  1.036869  0
H  H7  1  0.48221873  0.31892395  0.91012144  1  0  0.109143  0  0.975273  0  0  0.116424  0  1.040096  0  0  0.118175  0  1.042468  0  0  0.10391  0.115185  0  1.038565  0
H  H8  1  0.51778178  0.68107797  0.08987848  1  0  0.109188  0  0.97522  0  0  0.116469  0  1.040051  0  0  0.11821  0  1.04245  0  0  0.103927  0.11523  0  1.03852  0
H  H9  1  0.90660405  0.26453823  0.70071080  1  0  0.113553  0  0.957685  0  0  0.118779  0  1.02773  0  0  0.122425  0  1.025931  0  0  0.104571  0.115901  0  1.029677  0
H  H10  1  0.09339800  0.73546369  0.29928834  1  0  0.113555  0  0.95766  0  0  0.118796  0  1.027671  0  0  0.122438  0  1.025878  0  0  0.10457  0.115916  0  1.029619  0
H  H11  1  0.96317550  0.16110898  0.89997338  1  0  0.092254  0  0.970408  0  0  0.099895  0  1.036419  0  0  0.102923  0  1.035293  0  0  0.095592  0.097811  0  1.037092  0
H  H12  1  0.03682187  0.83889197  0.10002619  1  0  0.092243  0  0.970412  0  0  0.099877  0  1.036428  0  0  0.102906  0  1.035301  0  0  0.09558  0.097793  0  1.037101  0
H  H13  1  0.71113050  0.09588116  0.01891026  1  0  0.09364  0  0.943434  0  0  0.105242  0  1.000768  0  0  0.108348  0  0.998842  0  0  0.097308  0.103031  0  1.002173  0
H  H14  1  0.28887154  0.90412076  0.98109054  1  0  0.093608  0  0.943462  0  0  0.10521  0  1.000804  0  0  0.108315  0  0.998879  0  0  0.097296  0.102999  0  1.002209  0
H  H15  1  0.54678746  0.26131954  0.17070628  1  0  0.08181  0  0.97247  0  0  0.091786  0  1.037431  0  0  0.09401  0  1.03699  0  0  0.090411  0.090128  0  1.03786  0
H  H16  1  0.45321918  0.73868239  0.82929718  1  0  0.08178  0  0.972461  0  0  0.091721  0  1.037485  0  0  0.093947  0  1.037041  0  0  0.090373  0.090063  0  1.037912  0
H  H17  1  0.63930528  0.49150824  0.20509803  1  0  0.09446  0  0.961378  0  0  0.10608  0  1.019774  0  0  0.108997  0  1.018777  0  0  0.097095  0.103963  0  1.020743  0
H  H18  1  0.36069676  0.50849368  0.79490361  1  0  0.094475  0  0.961325  0  0  0.106096  0  1.019715  0  0  0.109013  0  1.018716  0  0  0.097093  0.103978  0  1.020684  0
C  C19  1  0.12891089  0.15617434  0.25469656  1  0  0.705017  0  3.642055  0  0  0.632425  0  3.98355  0  0  0.660157  0  3.957872  0  0  0.298247  0.612398  0  4.002278  0
C  C20  1  0.87109075  0.84382277  0.74530051  1  0  0.705251  0  3.641756  0  0  0.632688  0  3.983124  0  0  0.66043  0  3.95743  0  0  0.298284  0.612664  0  4.001851  0
C  C21  1  0.29414510  0.14743394  0.34981960  1  0  0.29158  0  3.829746  0  0  0.267297  0  4.103493  0  0  0.290451  0  4.108718  0  0  0.116034  0.251943  0  4.099861  0
C  C22  1  0.70585024  0.85256124  0.65017927  1  0  0.291402  0  3.830098  0  0  0.267165  0  4.103625  0  0  0.290318  0  4.108856  0  0  0.116079  0.251806  0  4.100003  0
C  C23  1  0.43816989  0.25201330  0.38958151  1  0  -0.360706  0  3.771741  0  0  -0.409094  0  4.059576  0  0  -0.432729  0  4.08029  0  0  -0.158325  -0.393528  0  4.04587  0
C  C24  1  0.56182892  0.74798670  0.61041953  1  0  -0.360496  0  3.771795  0  0  -0.408908  0  4.059564  0  0  -0.432554  0  4.080273  0  0  -0.158306  -0.393346  0  4.045863  0
C  C25  1  0.61532767  0.25358159  0.46221906  1  0  0.292885  0  3.832107  0  0  0.269143  0  4.105903  0  0  0.292474  0  4.111167  0  0  0.115176  0.253484  0  4.102696  0
C  C26  1  0.38466622  0.74641456  0.53778167  1  0  0.29274  0  3.832196  0  0  0.269045  0  4.10581  0  0  0.292416  0  4.111039  0  0  0.115135  0.253379  0  4.102609  0
C  C27  1  0.75383528  0.37880256  0.49867430  1  0  0.71395  0  3.625352  0  0  0.636653  0  3.972448  0  0  0.664812  0  3.94569  0  0  0.297366  0.615873  0  3.992937  0
C  C28  1  0.24615724  0.62119551  0.50132770  1  0  0.713151  0  3.627025  0  0  0.636607  0  3.972888  0  0  0.664694  0  3.946229  0  0  0.297424  0.615835  0  3.993353  0
C  C29  1  0.15498780  0.15192910  0.62938613  1  0  0.148969  0  3.684762  0  0  0.114689  0  3.941971  0  0  0.122529  0  3.959213  0  0  0.047122  0.109644  0  3.930045  0
C  C30  1  0.84501561  0.84807090  0.37061424  1  0  0.1489  0  3.684937  0  0  0.114744  0  3.941926  0  0  0.122585  0  3.959168  0  0  0.047112  0.109699  0  3.93  0
C  C31  1  0.46268474  0.18038776  0.74136645  1  0  0.130345  0  3.70549  0  0  0.09996  0  3.952818  0  0  0.10678  0  3.971666  0  0  0.04165  0.09561  0  3.940227  0
C  C32  1  0.53731271  0.81961416  0.25863504  1  0  0.130382  0  3.705439  0  0  0.099961  0  3.952832  0  0  0.106782  0  3.971678  0  0  0.041633  0.095608  0  3.940242  0
C  C33  1  0.38517807  0.27350376  0.83109543  1  0  -0.162746  0  3.701239  0  0  -0.179446  0  3.944049  0  0  -0.187393  0  3.966062  0  0  -0.082693  -0.174471  0  3.929482  0
C  C34  1  0.61482091  0.72649816  0.16890443  1  0  -0.162813  0  3.701129  0  0  -0.179521  0  3.944032  0  0  -0.187471  0  3.966039  0  0  -0.082699  -0.174546  0  3.929466  0
C  C35  1  0.18146636  0.30673798  0.81908031  1  0  0.121149  0  3.76713  0  0  0.13185  0  3.999064  0  0  0.136677  0  4.020515  0  0  0.018417  0.128835  0  3.984428  0
C  C36  1  0.81853577  0.69326490  0.18091991  1  0  0.121254  0  3.767025  0  0  0.131838  0  3.999147  0  0  0.136668  0  4.020593  0  0  0.018424  0.128824  0  3.984511  0
C  C37  1  0.06533181  0.24283499  0.71574850  1  0  -0.153418  0  3.680702  0  0  -0.17628  0  3.936793  0  0  -0.183771  0  3.956119  0  0  -0.081828  -0.171618  0  3.92434  0
C  C38  1  0.93466718  0.75716692  0.28425054  1  0  -0.15367  0  3.681112  0  0  -0.176333  0  3.936923  0  0  -0.183822  0  3.956254  0  0  -0.08183  -0.17167  0  3.924469  0
C  C39  1  0.09065367  0.40563543  0.91221261  1  0  -0.036013  0  3.699825  0  0  -0.030261  0  3.936333  0  0  -0.031831  0  3.958709  0  0  -0.00211  -0.029197  0  3.920972  0
C  C40  1  0.90934539  0.59436745  0.08778667  1  0  -0.036035  0  3.699617  0  0  -0.030225  0  3.936265  0  0  -0.031806  0  3.958627  0  0  -0.002125  -0.029162  0  3.920904  0
C  C41  1  0.85177845  0.46288461  0.06852009  1  0  0.028708  0  3.762754  0  0  0.035412  0  3.998962  0  0  0.035185  0  4.022617  0  0  -0.00534  0.03572  0  3.982735  0
C  C42  1  0.14822215  0.53711827  0.93148091  1  0  0.028631  0  3.7629  0  0  0.03544  0  3.999063  0  0  0.035172  0  4.022772  0  0  -0.005318  0.035749  0  3.982835  0
C  C43  1  0.94483054  0.36688356  0.97945608  1  0  0.026127  0  3.764943  0  0  0.034597  0  3.997843  0  0  0.03405  0  4.022282  0  0  -0.005964  0.035042  0  3.981111  0
C  C44  1  0.05517013  0.63312029  0.02054350  1  0  0.026264  0  3.764856  0  0  0.034548  0  3.997977  0  0  0.034012  0  4.022426  0  0  -0.005955  0.034994  0  3.981242  0
C  C45  1  0.88977549  0.23422684  0.96453756  1  0  -0.119397  0  3.75141  0  0  -0.139157  0  4.007455  0  0  -0.141757  0  4.028139  0  0  -0.096212  -0.137331  0  3.993197  0
C  C46  1  0.11022503  0.76577508  0.03546236  1  0  -0.119394  0  3.751489  0  0  -0.139118  0  4.007621  0  0  -0.141716  0  4.028301  0  0  -0.09621  -0.137293  0  3.99336  0
C  C47  1  0.74903770  0.19768093  0.03110364  1  0  -0.067934  0  3.78767  0  0  -0.087885  0  4.048546  0  0  -0.088696  0  4.067966  0  0  -0.096455  -0.087374  0  4.035274  0
C  C48  1  0.25096587  0.80232100  0.96889805  1  0  -0.067944  0  3.787701  0  0  -0.087913  0  4.048599  0  0  -0.088722  0  4.068017  0  0  -0.096475  -0.087401  0  4.035325  0
C  C49  1  0.65613367  0.29180182  0.11751756  1  0  -0.066809  0  3.786916  0  0  -0.081923  0  4.041045  0  0  -0.083075  0  4.061308  0  0  -0.097483  -0.080944  0  4.027258  0
C  C50  1  0.34387144  0.70820011  0.88248418  1  0  -0.06666  0  3.786958  0  0  -0.081781  0  4.041135  0  0  -0.082928  0  4.061386  0  0  -0.097403  -0.0808  0  4.027342  0
C  C51  1  0.70723890  0.42029803  0.13631202  1  0  -0.109667  0  3.73667  0  0  -0.129648  0  3.985724  0  0  -0.13157  0  4.005387  0  0  -0.093581  -0.128442  0  3.972416  0
C  C52  1  0.29276323  0.57970485  0.86368903  1  0  -0.109743  0  3.736774  0  0  -0.129754  0  3.98582  0  0  -0.131662  0  4.005491  0  0  -0.093638  -0.128551  0  3.972513  0
N  N53  1  0.35089837  0.12087538  0.64124426  1  0  -0.334693  0  3.278115  0  0  -0.253582  0  3.535051  0  0  -0.272821  0  3.553155  0  0  -0.326501  -0.240585  0  3.522404  0
N  N54  1  0.64909883  0.87912365  0.35875565  1  0  -0.334648  0  3.277957  0  0  -0.253588  0  3.534952  0  0  -0.272828  0  3.553057  0  0  -0.326485  -0.240592  0  3.522307  0
O  O55  1  0.68083177  0.16720829  0.50495216  1  0  -0.477428  0  2.105313  0  0  -0.429597  0  2.360529  0  0  -0.453259  0  2.353672  0  0  -0.276153  -0.413557  0  2.365134  0
O  O56  1  0.31916526  0.83278882  0.49504642  1  0  -0.477411  0  2.105348  0  0  -0.429537  0  2.360384  0  0  -0.45321  0  2.353511  0  0  -0.276128  -0.413498  0  2.364994  0
O  O57  1  0.28362401  0.04284783  0.37653788  1  0  -0.482698  0  2.10609  0  0  -0.43226  0  2.357209  0  0  -0.455353  0  2.350011  0  0  -0.27525  -0.416575  0  2.361924  0
O  O58  1  0.71636997  0.95714928  0.62346059  1  0  -0.482916  0  2.106307  0  0  -0.432308  0  2.35725  0  0  -0.455406  0  2.350056  0  0  -0.275325  -0.416618  0  2.361967  0
F  F59  1  0.10404129  0.27790897  0.24893810  1  0  -0.230366  0  1.184877  0  0  -0.198982  0  1.355806  0  0  -0.20893  0  1.342129  0  0  -0.092045  -0.191963  0  1.36558  0
F  F60  1  0.89595906  0.72209103  0.75106299  1  0  -0.230597  0  1.185147  0  0  -0.199029  0  1.355786  0  0  -0.208978  0  1.342103  0  0  -0.092019  -0.192009  0  1.365557  0
F  F61  1  0.94326516  0.10517114  0.26938651  1  0  -0.24085  0  1.163599  0  0  -0.199471  0  1.318411  0  0  -0.209107  0  1.304862  0  0  -0.098877  -0.192441  0  1.32784  0
F  F62  1  0.05673777  0.89482308  0.73060487  1  0  -0.240907  0  1.163449  0  0  -0.199576  0  1.318234  0  0  -0.209215  0  1.304682  0  0  -0.098961  -0.192547  0  1.327665  0
F  F63  1  0.18669184  0.08606605  0.14806547  1  0  -0.260231  0  1.134994  0  0  -0.215335  0  1.287762  0  0  -0.225036  0  1.27291  0  0  -0.101287  -0.208045  0  1.297836  0
F  F64  1  0.81331625  0.91393491  0.85193196  1  0  -0.260184  0  1.134902  0  0  -0.215372  0  1.287677  0  0  -0.225077  0  1.272823  0  0  -0.101271  -0.208083  0  1.297751  0
F  F65  1  0.73258473  0.44196457  0.61342380  1  0  -0.254744  0  1.127364  0  0  -0.212633  0  1.282983  0  0  -0.222849  0  1.269005  0  0  -0.103893  -0.203078  0  1.290269  0
F  F66  1  0.26740916  0.55803157  0.38657943  1  0  -0.254808  0  1.127817  0  0  -0.212656  0  1.283121  0  0  -0.222819  0  1.26913  0  0  -0.103915  -0.203084  0  1.290383  0
F  F67  1  0.95454062  0.35273913  0.48893115  1  0  -0.247278  0  1.201249  0  0  -0.210359  0  1.374187  0  0  -0.219513  0  1.358632  0  0  -0.099686  -0.203955  0  1.385304  0
F  F68  1  0.04545037  0.64725893  0.51106747  1  0  -0.246635  0  1.201324  0  0  -0.210319  0  1.374214  0  0  -0.219466  0  1.358685  0  0  -0.099709  -0.203921  0  1.385327  0
F  F69  1  0.70929594  0.46206585  0.43566150  1  0  -0.244412  0  1.185499  0  0  -0.203499  0  1.352215  0  0  -0.212936  0  1.337447  0  0  -0.095603  -0.197012  0  1.362892  0
F  F70  1  0.29069666  0.53793318  0.56434158  1  0  -0.244346  0  1.185905  0  0  -0.203502  0  1.352387  0  0  -0.212931  0  1.337642  0  0  -0.095602  -0.197019  0  1.363059  0
