# generated using pymatgen
data_CdH10C12(BrN)2
_symmetry_space_group_name_H-M   'P 1'
_cell_length_a   3.92908130
_cell_length_b   8.70708650
_cell_length_c   9.34790538
_cell_angle_alpha   76.67611283
_cell_angle_beta   87.11983335
_cell_angle_gamma   82.63344745
_symmetry_Int_Tables_number   1
_chemical_formula_structural   CdH10C12(BrN)2
_chemical_formula_sum   'Cd1 H10 C12 Br2 N2'
_cell_volume   308.55218745
_cell_formula_units_Z   1
loop_
 _symmetry_equiv_pos_site_id
 _symmetry_equiv_pos_as_xyz
  1  'x, y, z'
loop_
 _atom_site_type_symbol
 _atom_site_label
 _atom_site_symmetry_multiplicity
 _atom_site_fract_x
 _atom_site_fract_y
 _atom_site_fract_z
 _atom_site_occupancy
 _atom_site_hle17_bader_spin_density
 _atom_site_hle17_ddec_charge
 _atom_site_hle17_ddec_spin_density
 _atom_site_hle17_ddec_sum_bond_order
 _atom_site_hle17_magmom
 _atom_site_hse06_10hf_bader_spin_density
 _atom_site_hse06_10hf_ddec_charge
 _atom_site_hse06_10hf_ddec_spin_density
 _atom_site_hse06_10hf_ddec_sum_bond_order
 _atom_site_hse06_10hf_magmom
 _atom_site_hse06_bader_spin_density
 _atom_site_hse06_ddec_charge
 _atom_site_hse06_ddec_spin_density
 _atom_site_hse06_ddec_sum_bond_order
 _atom_site_hse06_magmom
 _atom_site_pbe_bader_spin_density
 _atom_site_pbe_cm5_charge
 _atom_site_pbe_ddec_charge
 _atom_site_pbe_ddec_spin_density
 _atom_site_pbe_ddec_sum_bond_order
 _atom_site_pbe_magmom
Cd  Cd0  1  0.50000882  0.49999566  0.50000120  1  0  0.845583  0  1.98516  0  0  0.67705  0  2.435454  0  0  0.726354  0  2.398412  0  0  0.54256  0.642385  0  2.46188  0
H  H1  1  0.66206027  0.13235805  0.88838320  1  0  0.092436  0  0.986185  0  0  0.101031  0  1.054849  0  0  0.104387  0  1.052651  0  0  0.087758  0.098433  0  1.05695  0
H  H2  1  0.33795070  0.86764166  0.11161776  1  0  0.092403  0  0.986229  0  0  0.100983  0  1.054908  0  0  0.104337  0  1.052714  0  0  0.087761  0.098385  0  1.057003  0
H  H3  1  0.79244449  0.34963894  0.97304668  1  0  0.103849  0  0.966834  0  0  0.112653  0  1.032179  0  0  0.115802  0  1.031382  0  0  0.098273  0.109582  0  1.034586  0
H  H4  1  0.20756074  0.65036436  0.02695586  1  0  0.10388  0  0.966818  0  0  0.112677  0  1.032169  0  0  0.115823  0  1.031376  0  0  0.098294  0.109606  0  1.03457  0
H  H5  1  0.77747950  0.50211687  0.17137721  1  0  0.068185  0  0.980402  0  0  0.075086  0  1.051912  0  0  0.077812  0  1.049129  0  0  0.095899  0.072919  0  1.054241  0
H  H6  1  0.22251406  0.49788068  0.82862671  1  0  0.068142  0  0.980383  0  0  0.075102  0  1.051842  0  0  0.077824  0  1.049063  0  0  0.0959  0.072932  0  1.054177  0
H  H7  1  0.33456048  0.15165146  0.47009958  1  0  0.071225  0  0.978522  0  0  0.079022  0  1.047146  0  0  0.0814  0  1.04513  0  0  0.098402  0.076793  0  1.049605  0
H  H8  1  0.66541546  0.84834420  0.52989763  1  0  0.071141  0  0.978663  0  0  0.078992  0  1.04722  0  0  0.081339  0  1.045236  0  0  0.098402  0.076761  0  1.04968  0
H  H9  1  0.33033900  0.98433567  0.28805417  1  0  0.107069  0  0.969258  0  0  0.115052  0  1.03556  0  0  0.118537  0  1.033951  0  0  0.097526  0.112329  0  1.037193  0
H  H10  1  0.66965453  0.01566102  0.71193814  1  0  0.10714  0  0.969271  0  0  0.115067  0  1.035649  0  0  0.118532  0  1.034061  0  0  0.097535  0.112355  0  1.037264  0
C  C11  1  0.55929800  0.07078489  0.99389770  1  0  -0.088969  0  3.693215  0  0  -0.108419  0  3.941151  0  0  -0.111757  0  3.961445  0  0  -0.080846  -0.106259  0  3.927687  0
C  C12  1  0.44069902  0.92922101  0.00610025  1  0  -0.088926  0  3.693302  0  0  -0.10839  0  3.941235  0  0  -0.11173  0  3.961533  0  0  -0.080877  -0.106225  0  3.927767  0
C  C13  1  0.56061176  0.15385139  0.11206086  1  0  0.138945  0  3.784849  0  0  0.155289  0  4.010646  0  0  0.16105  0  4.032638  0  0  0.008141  0.152081  0  3.995063  0
C  C14  1  0.43938625  0.84614964  0.88794228  1  0  0.138864  0  3.784863  0  0  0.155296  0  4.010539  0  0  0.16106  0  4.032524  0  0  0.008149  0.152077  0  3.994963  0
C  C15  1  0.68901220  0.30178835  0.08238762  1  0  -0.165484  0  3.692154  0  0  -0.178875  0  3.932508  0  0  -0.187586  0  3.954502  0  0  -0.086703  -0.173721  0  3.918729  0
C  C16  1  0.31099336  0.69821271  0.91760999  1  0  -0.165462  0  3.69233  0  0  -0.178881  0  3.93268  0  0  -0.187592  0  3.954674  0  0  -0.086684  -0.173723  0  3.918895  0
C  C17  1  0.68115643  0.38673348  0.19145804  1  0  0.123597  0  3.735663  0  0  0.093118  0  3.98623  0  0  0.100497  0  4.005528  0  0  0.035474  0.088661  0  3.97243  0
C  C18  1  0.31884624  0.61326985  0.80854455  1  0  0.123533  0  3.735864  0  0  0.093014  0  3.986422  0  0  0.100395  0  4.005725  0  0  0.035412  0.088561  0  3.972625  0
C  C19  1  0.43796349  0.18982897  0.35885017  1  0  0.123198  0  3.718249  0  0  0.093034  0  3.967523  0  0  0.099994  0  3.98697  0  0  0.034625  0.088746  0  3.954589  0
C  C20  1  0.56202242  0.81016778  0.64114445  1  0  0.123151  0  3.718387  0  0  0.092964  0  3.967633  0  0  0.09995  0  3.987086  0  0  0.03452  0.088682  0  3.954699  0
C  C21  1  0.43549285  0.09758674  0.25616743  1  0  -0.154885  0  3.678995  0  0  -0.170538  0  3.922434  0  0  -0.178163  0  3.943219  0  0  -0.084576  -0.164603  0  3.907391  0
C  C22  1  0.56450156  0.90241927  0.74382842  1  0  -0.154857  0  3.678749  0  0  -0.170514  0  3.922204  0  0  -0.178123  0  3.942991  0  0  -0.084568  -0.164583  0  3.907142  0
Br  Br23  1  0.97048212  0.69181423  0.33204282  1  0  -0.511164  0  1.079154  0  0  -0.453735  0  1.393632  0  0  -0.472433  0  1.371915  0  0  -0.240318  -0.439287  0  1.410789  0
Br  Br24  1  0.02956357  0.30817766  0.66796524  1  0  -0.511231  0  1.07922  0  0  -0.453784  0  1.393665  0  0  -0.472485  0  1.371946  0  0  -0.240343  -0.439335  0  1.410823  0
N  N25  1  0.55574248  0.33306715  0.32787158  1  0  -0.330764  0  3.280256  0  0  -0.251219  0  3.538788  0  0  -0.272685  0  3.561791  0  0  -0.334919  -0.236846  0  3.523363  0
N  N26  1  0.44424915  0.66692693  0.67213091  1  0  -0.330601  0  3.280406  0  0  -0.251074  0  3.538969  0  0  -0.27254  0  3.561965  0  0  -0.334799  -0.236709  0  3.523555  0
