# generated using pymatgen
data_Hf3H26C54N9O16
_symmetry_space_group_name_H-M   'P 1'
_cell_length_a   18.90624800
_cell_length_b   18.90704225
_cell_length_c   19.05943912
_cell_angle_alpha   91.02196897
_cell_angle_beta   91.44883978
_cell_angle_gamma   91.48780517
_symmetry_Int_Tables_number   1
_chemical_formula_structural   Hf3H26C54N9O16
_chemical_formula_sum   'Hf6 H52 C108 N18 O32'
_cell_volume   6807.37054634
_cell_formula_units_Z   2
loop_
 _symmetry_equiv_pos_site_id
 _symmetry_equiv_pos_as_xyz
  1  'x, y, z'
loop_
 _atom_site_type_symbol
 _atom_site_label
 _atom_site_symmetry_multiplicity
 _atom_site_fract_x
 _atom_site_fract_y
 _atom_site_fract_z
 _atom_site_occupancy
 _atom_site_pbe_bader_charge
 _atom_site_pbe_bader_spin_density
 _atom_site_pbe_cm5_charge
 _atom_site_pbe_ddec_charge
 _atom_site_pbe_ddec_spin_density
 _atom_site_pbe_ddec_sum_bond_order
 _atom_site_pbe_magmom
Hf  Hf0  1  0.81646832  0.93980956  0.85565650  1  2.619564  0  1.50464  2.14182  0  3.342344  0
Hf  Hf1  1  0.76415397  0.84383201  0.00180537  1  2.619875  0  1.505878  2.140418  0  3.350863  0
Hf  Hf2  1  0.98549608  0.96492431  0.93157756  1  2.617187  0  1.506223  2.139954  0  3.351363  0
Hf  Hf3  1  0.91272633  0.79375436  0.90898159  1  2.619917  0  1.505216  2.141112  0  3.34807  0
Hf  Hf4  1  0.83702116  0.01412121  0.02482114  1  2.61756  0  1.505537  2.140124  0  3.34629  0
Hf  Hf5  1  0.93413216  0.86825684  0.07725686  1  2.617045  0  1.504955  2.140789  0  3.344516  0
H  H6  1  0.77090730  0.79717188  0.86083696  1  0.614021  0  0.338411  0.415961  0  0.858342  0
H  H7  1  0.88577802  0.06912717  0.90047010  1  0.591768  0  0.338386  0.418673  0  0.85434  0
H  H8  1  0.04048437  0.83974704  0.97966151  1  0.637921  0  0.339875  0.421103  0  0.851364  0
H  H9  1  0.80728448  0.91472012  0.12944125  1  0.62061  0  0.339345  0.420729  0  0.850719  0
H  H10  1  0.25437503  0.74404206  0.74088645  1  0.076454  0  0.108192  0.109309  0  0.992471  0
H  H11  1  0.19310320  0.94396198  0.65739884  1  0.087919  0  0.108705  0.111329  0  0.990743  0
H  H12  1  0.09369922  0.94769165  0.74215262  1  0.096169  0  0.107314  0.109402  0  1.011254  0
H  H13  1  0.14599853  0.74062568  0.81392000  1  0.043933  0  0.106998  0.107987  0  0.996806  0
H  H14  1  0.55331364  0.88141852  0.63991090  1  0.07678  0  0.109376  0.111428  0  1.003887  0
H  H15  1  0.42113165  0.81863375  0.80951309  1  0.102011  0  0.106904  0.107805  0  1.010107  0
H  H16  1  0.52577876  0.82782178  0.89318581  1  0.084847  0  0.110608  0.114876  0  0.984237  0
H  H17  1  0.65699260  0.89319459  0.72373493  1  0.091495  0  0.112389  0.119343  0  0.995312  0
H  H18  1  0.19334005  0.94267557  0.29588807  1  0.096629  0  0.109167  0.111414  0  1.002904  0
H  H19  1  0.32460457  0.00076438  0.12400647  1  0.110125  0  0.107174  0.108302  0  1.011072  0
H  H20  1  0.21931311  0.99053367  0.04121975  1  0.089724  0  0.110068  0.113873  0  0.986962  0
H  H21  1  0.08884830  0.92966386  0.21276154  1  0.114515  0  0.1119  0.118256  0  0.996457  0
H  H22  1  0.55411785  0.87249480  0.27398741  1  0.088707  0  0.108847  0.111617  0  0.990061  0
H  H23  1  0.49038464  0.06868853  0.18402935  1  0.085434  0  0.109103  0.110547  0  0.994311  0
H  H24  1  0.59686253  0.06926967  0.10840832  1  0.068728  0  0.107865  0.10891  0  0.998584  0
H  H25  1  0.65159460  0.86551654  0.18741461  1  0.093053  0  0.105811  0.107145  0  1.010416  0
H  H26  1  0.65981469  0.29171252  0.81042767  1  0.077786  0  0.107934  0.108739  0  0.996555  0
H  H27  1  0.55184488  0.21220568  0.98980380  1  0.106641  0  0.108215  0.109984  0  0.99652  0
H  H28  1  0.63375466  0.10978736  0.99349321  1  0.081489  0  0.106823  0.108567  0  1.00726  0
H  H29  1  0.73174593  0.18231927  0.80556209  1  0.059956  0  0.106527  0.107472  0  0.994551  0
H  H30  1  0.54880377  0.58219017  0.93960538  1  0.116833  0  0.10923  0.110973  0  1.003098  0
H  H31  1  0.72091186  0.44886243  0.88602958  1  0.099585  0  0.106592  0.106761  0  1.012115  0
H  H32  1  0.80565324  0.55327621  0.89635074  1  0.100603  0  0.110301  0.114281  0  0.984473  0
H  H33  1  0.63348514  0.68577139  0.95209918  1  0.092316  0  0.111777  0.117881  0  0.997659  0
H  H34  1  0.11979801  0.11837462  0.99389611  1  0.100855  0  0.111831  0.117716  0  0.999034  0
H  H35  1  0.94709348  0.24894780  0.05217481  1  0.086103  0  0.109629  0.113543  0  0.986826  0
H  H36  1  0.03116010  0.35372394  0.06417428  1  0.139261  0  0.10707  0.107354  0  1.01141  0
H  H37  1  0.20410474  0.22237066  0.00841939  1  0.118933  0  0.109474  0.111546  0  1.002895  0
H  H38  1  0.08714159  0.51452400  0.13058673  1  0.086218  0  0.10888  0.109744  0  0.99741  0
H  H39  1  0.19144211  0.58879659  0.94689715  1  0.095738  0  0.109078  0.111796  0  0.994052  0
H  H40  1  0.10709375  0.68878048  0.93962432  1  0.062909  0  0.105223  0.105846  0  1.005323  0
H  H41  1  0.01295801  0.62238516  0.13181455  1  0.084118  0  0.107507  0.108263  0  1.000856  0
H  H42  1  0.73105220  0.69896026  0.36251678  1  0.113704  0  0.107975  0.108396  0  0.999892  0
H  H43  1  0.89710124  0.57779591  0.27350055  1  0.093844  0  0.108193  0.109808  0  0.99587  0
H  H44  1  0.89790706  0.65762922  0.16979579  1  0.06432  0  0.106286  0.106785  0  1.005052  0
H  H45  1  0.72323336  0.77051860  0.25373857  1  0.063204  0  0.105044  0.105094  0  1.000059  0
H  H46  1  0.80039658  0.75132376  0.51458629  1  0.101917  0  0.106527  0.106456  0  1.011609  0
H  H47  1  0.86135598  0.57925680  0.64556418  1  0.101676  0  0.108858  0.110889  0  1.004579  0
H  H48  1  0.87092790  0.66243919  0.74907158  1  0.114742  0  0.11164  0.11788  0  0.996402  0
H  H49  1  0.80762128  0.83439611  0.61890811  1  0.084999  0  0.110519  0.11487  0  0.984591  0
H  H50  1  0.89065862  0.14993526  0.18056908  1  0.13035  0  0.111716  0.118356  0  0.99775  0
H  H51  1  0.95968310  0.97765492  0.30725169  1  0.074481  0  0.109848  0.113803  0  0.986673  0
H  H52  1  0.97042812  0.06003817  0.41186259  1  0.067124  0  0.106129  0.105525  0  1.015791  0
H  H53  1  0.90418274  0.23282488  0.28444727  1  0.10597  0  0.109086  0.110999  0  1.002965  0
H  H54  1  0.88090968  0.23724613  0.66206745  1  0.110109  0  0.109034  0.110866  0  0.998291  0
H  H55  1  0.01354412  0.08879763  0.55865387  1  0.099367  0  0.108043  0.106901  0  1.008486  0
H  H56  1  0.01429414  0.01327997  0.66466841  1  0.077389  0  0.106944  0.10785  0  0.998037  0
H  H57  1  0.87453552  0.15792045  0.76539519  1  0.045386  0  0.103959  0.102754  0  0.997326  0
C  C58  1  0.93995241  0.20534063  0.53737021  1  1.080443  0  0.260874  0.385836  0  4.017522  0
C  C59  1  0.93645549  0.19719496  0.41787582  1  1.035037  0  0.26061  0.384004  0  4.013643  0
C  C60  1  0.91039505  0.30031036  0.47307804  1  1.172891  0  0.264089  0.442695  0  4.079559  0
C  C61  1  0.82520644  0.59976749  0.39257977  1  1.099261  0  0.261586  0.387625  0  4.010225  0
C  C62  1  0.83136657  0.61272499  0.51160561  1  1.063485  0  0.261421  0.385522  0  4.006833  0
C  C63  1  0.85898137  0.50828694  0.45966289  1  1.166454  0  0.26448  0.443604  0  4.079805  0
C  C64  1  0.17996446  0.47767853  0.03261065  1  1.053615  0  0.261847  0.387137  0  4.014905  0
C  C65  1  0.27191927  0.41111667  0.00074604  1  1.198006  0  0.264327  0.442719  0  4.086616  0
C  C66  1  0.16945908  0.35760912  0.03385237  1  1.091585  0  0.26161  0.384916  0  4.010815  0
C  C67  1  0.56768717  0.32698145  0.90951597  1  1.060995  0  0.261281  0.386407  0  4.016393  0
C  C68  1  0.47753900  0.39478256  0.94380780  1  1.174657  0  0.264359  0.441557  0  4.087344  0
C  C69  1  0.58159495  0.44687067  0.91335220  1  1.10271  0  0.261096  0.384522  0  4.008487  0
C  C70  1  0.44875233  0.96576682  0.27072138  1  1.092792  0  0.262264  0.388628  0  4.010764  0
C  C71  1  0.38222268  0.93521293  0.36290173  1  1.170998  0  0.263931  0.442318  0  4.081609  0
C  C72  1  0.32874856  0.96882272  0.26119643  1  1.068342  0  0.261286  0.384156  0  4.01186  0
C  C73  1  0.29836349  0.85085771  0.65954555  1  1.106345  0  0.261722  0.389  0  4.009477  0
C  C74  1  0.36633252  0.88285493  0.56887078  1  1.203627  0  0.264263  0.44259  0  4.081668  0
C  C75  1  0.41828613  0.85123638  0.67204140  1  1.062521  0  0.261486  0.384999  0  4.004643  0
C  C76  1  0.93365198  0.03005202  0.77976158  1  1.562921  0  0.247274  0.637327  0  4.092316  0
C  C77  1  0.66081094  0.87459480  0.86120629  1  1.539847  0  0.241483  0.62716  0  4.089818  0
C  C78  1  0.85117684  0.80056457  0.75345808  1  1.55628  0  0.241375  0.626475  0  4.093134  0
C  C79  1  0.74180848  0.08520410  0.90888267  1  1.573108  0  0.247116  0.640448  0  4.082877  0
C  C80  1  0.81871737  0.77184918  0.14904883  1  1.573961  0  0.247543  0.641069  0  4.08311  0
C  C81  1  0.08622701  0.94125942  0.07411547  1  1.554304  0  0.243225  0.629536  0  4.086742  0
C  C82  1  0.77262434  0.68848121  0.93944795  1  1.546239  0  0.240438  0.624652  0  4.094373  0
C  C83  1  0.68560198  0.95891310  0.08961805  1  1.561053  0  0.242503  0.630276  0  4.098021  0
C  C84  1  0.97991567  0.11656989  0.00248550  1  1.568526  0  0.242875  0.631115  0  4.086102  0
C  C85  1  0.05924486  0.85108296  0.83713060  1  1.54077  0  0.246222  0.639766  0  4.083574  0
C  C86  1  0.00187089  0.71750545  0.02575653  1  1.548572  0  0.243096  0.631852  0  4.097461  0
C  C87  1  0.90716410  0.01075897  0.17661151  1  1.539929  0  0.243471  0.63134  0  4.085155  0
C  C88  1  0.21680217  0.78672063  0.73884509  1  0.013309  0  -0.079784  -0.104794  0  3.976974  0
C  C89  1  0.22997051  0.84415153  0.69503915  1  0.003075  0  -0.000438  0.016296  0  3.975  0
C  C90  1  0.18272849  0.90006311  0.69234688  1  -0.044699  0  -0.078567  -0.103262  0  3.96129  0
C  C91  1  0.12687666  0.90154621  0.73841882  1  -0.033362  0  -0.080107  -0.092536  0  3.967917  0
C  C92  1  0.11425201  0.84445480  0.78282680  1  0.003003  0  -0.010333  -0.027519  0  3.968382  0
C  C93  1  0.15735042  0.78542254  0.78038912  1  -0.022586  0  -0.081296  -0.096251  0  3.986073  0
C  C94  1  0.54786094  0.86954278  0.69526080  1  -0.036049  0  -0.077398  -0.097261  0  3.963814  0
C  C95  1  0.48097909  0.84964516  0.71978431  1  -0.017649  0  -0.001582  0.011438  0  3.95933  0
C  C96  1  0.47341597  0.83364695  0.79113980  1  -0.047824  0  -0.078123  -0.099787  0  3.949257  0
C  C97  1  0.53142672  0.83908330  0.83765622  1  0.043454  0  -0.077898  -0.090221  0  3.971785  0
C  C98  1  0.59745899  0.86187858  0.81351757  1  -0.098887  0  -0.010879  -0.036455  0  3.958237  0
C  C99  1  0.60529079  0.87602702  0.74183113  1  0.046804  0  -0.078354  -0.086098  0  3.959213  0
C  C100  1  0.19837056  0.95348638  0.24024793  1  -0.019465  0  -0.076419  -0.09688  0  3.958931  0
C  C101  1  0.26527547  0.97185903  0.21469211  1  -0.016317  0  -0.002047  0.009955  0  3.962089  0
C  C102  1  0.27236336  0.98678698  0.14306332  1  -0.055511  0  -0.077929  -0.098713  0  3.953509  0
C  C103  1  0.21401324  0.98074608  0.09710218  1  -0.012822  0  -0.078887  -0.093924  0  3.978348  0
C  C104  1  0.14824681  0.95828693  0.12211602  1  -0.013734  0  -0.010033  -0.031869  0  3.959349  0
C  C105  1  0.14056071  0.94625838  0.19416538  1  -0.05073  0  -0.076387  -0.083496  0  3.95276  0
C  C106  1  0.56347069  0.91485064  0.23697792  1  -0.008534  0  -0.077713  -0.099693  0  3.962856  0
C  C107  1  0.51615987  0.97061989  0.23327822  1  -0.012033  0  -0.000511  0.015562  0  3.976496  0
C  C108  1  0.52807585  0.02616663  0.18679263  1  -0.018537  0  -0.078675  -0.103364  0  3.976203  0
C  C109  1  0.58638867  0.02579298  0.14379266  1  0.00432  0  -0.080497  -0.094074  0  3.981451  0
C  C110  1  0.62966863  0.96686523  0.14282665  1  -0.03646  0  -0.00979  -0.025998  0  3.973565  0
C  C111  1  0.61819711  0.91160478  0.18971057  1  -0.058725  0  -0.083472  -0.099941  0  3.979839  0
C  C112  1  0.37719496  0.91636144  0.43509744  1  -0.389171  0  -0.003657  -0.080772  0  3.940186  0
C  C113  1  0.37224410  0.90138842  0.49665640  1  0.177498  0  -0.003188  -0.07972  0  3.938814  0
C  C114  1  0.65220097  0.24984669  0.84823602  1  -0.041242  0  -0.078969  -0.100965  0  3.97712  0
C  C115  1  0.60216532  0.25839056  0.90062797  1  -0.001264  0  -0.002419  0.011401  0  3.979985  0
C  C116  1  0.59185605  0.20539603  0.95022349  1  -0.050817  0  -0.077743  -0.098667  0  3.964475  0
C  C117  1  0.63654295  0.14818910  0.95159106  1  0.028275  0  -0.080706  -0.096046  0  3.973608  0
C  C118  1  0.68772404  0.14066772  0.90016623  1  -0.040976  0  -0.006816  -0.019004  0  3.965904  0
C  C119  1  0.69298408  0.18970697  0.84628367  1  -0.009378  0  -0.082573  -0.101644  0  3.986737  0
C  C120  1  0.60492256  0.57649748  0.92990347  1  -0.039373  0  -0.077032  -0.096056  0  3.962362  0
C  C121  1  0.62997185  0.50938172  0.91243910  1  -0.083056  0  -0.001855  0.010854  0  3.961739  0
C  C122  1  0.70228776  0.50135438  0.89921927  1  0.01744  0  -0.07809  -0.098994  0  3.9525  0
C  C123  1  0.74933635  0.55918736  0.90524776  1  -0.05144  0  -0.078621  -0.0922  0  3.976349  0
C  C124  1  0.72460310  0.62542313  0.92573861  1  -0.073728  0  -0.010975  -0.034234  0  3.962201  0
C  C125  1  0.65196054  0.63379436  0.93686082  1  0.043266  0  -0.078034  -0.085907  0  3.957841  0
C  C126  1  0.10121556  0.17000365  0.01024154  1  -0.062446  0  -0.076931  -0.082485  0  3.953048  0
C  C127  1  0.02850947  0.17798486  0.02097642  1  -0.004797  0  -0.010259  -0.033495  0  3.960252  0
C  C128  1  0.00346821  0.24351705  0.04333065  1  -0.028195  0  -0.079195  -0.094456  0  3.978713  0
C  C129  1  0.05011901  0.30153652  0.05031211  1  -0.069483  0  -0.078398  -0.097641  0  3.95473  0
C  C130  1  0.12236495  0.29426430  0.03638566  1  -0.102493  0  -0.002268  0.008123  0  3.964458  0
C  C131  1  0.14795450  0.22747965  0.01834309  1  0.052848  0  -0.076237  -0.095703  0  3.95801  0
C  C132  1  0.09341020  0.55488943  0.09097928  1  0.008211  0  -0.078407  -0.101287  0  3.971107  0
C  C133  1  0.14327651  0.54540089  0.03855057  1  -0.045834  0  -0.001616  0.013836  0  3.974357  0
C  C134  1  0.15160978  0.59626304  0.98655027  1  -0.012058  0  -0.078091  -0.100027  0  3.964004  0
C  C135  1  0.10552696  0.65229710  0.98327691  1  -0.042527  0  -0.083038  -0.098844  0  3.978837  0
C  C136  1  0.05492540  0.66110609  0.03510581  1  0.010391  0  -0.008899  -0.023029  0  3.968289  0
C  C137  1  0.05131114  0.61412622  0.09089884  1  -0.034068  0  -0.081202  -0.0968  0  3.979191  0
C  C138  1  0.34410276  0.40595689  0.98067702  1  0.257132  0  -0.004314  -0.082266  0  3.944818  0
C  C139  1  0.40547968  0.40078767  0.96398576  1  -0.433121  0  -0.003844  -0.080162  0  3.944592  0
C  C140  1  0.76523285  0.68830437  0.31862025  1  -0.001817  0  -0.078954  -0.098601  0  3.976824  0
C  C141  1  0.81476583  0.63458161  0.32453162  1  -0.066045  0  -0.004088  0.007505  0  3.977628  0
C  C142  1  0.85961025  0.62041174  0.26875070  1  0.015264  0  -0.076737  -0.096462  0  3.962567  0
C  C143  1  0.85933909  0.66414284  0.21082151  1  -0.047108  0  -0.081246  -0.097387  0  3.97226  0
C  C144  1  0.81089351  0.71885312  0.20583636  1  0.007532  0  -0.00525  -0.015287  0  3.959337  0
C  C145  1  0.76157554  0.72865685  0.25843288  1  -0.074983  0  -0.083845  -0.10427  0  3.989669  0
C  C146  1  0.81467529  0.73231082  0.56650752  1  -0.067549  0  -0.078397  -0.098784  0  3.952441  0
C  C147  1  0.83054044  0.66041290  0.57386539  1  0.025802  0  -0.001346  0.01125  0  3.95912  0
C  C148  1  0.84952295  0.63502453  0.64028743  1  -0.064134  0  -0.077798  -0.097904  0  3.96395  0
C  C149  1  0.85479709  0.68123607  0.69760644  1  -0.028865  0  -0.078151  -0.084901  0  3.959505  0
C  C150  1  0.84042858  0.75339425  0.69005824  1  -0.012513  0  -0.011606  -0.036515  0  3.962731  0
C  C151  1  0.81897752  0.77846138  0.62433314  1  -0.022827  0  -0.078466  -0.091714  0  3.974815  0
C  C152  1  0.90895639  0.13111123  0.23134873  1  -0.009948  0  -0.076165  -0.083619  0  3.955488  0
C  C153  1  0.92332872  0.05891765  0.23816238  1  -0.044833  0  -0.010782  -0.033457  0  3.963486  0
C  C154  1  0.94802257  0.03360503  0.30266471  1  -0.035436  0  -0.079616  -0.094716  0  3.980331  0
C  C155  1  0.95433384  0.07936846  0.36058728  1  0.02229  0  -0.078725  -0.098849  0  3.958866  0
C  C156  1  0.93745254  0.15113018  0.35445814  1  -0.046254  0  -0.001193  0.01095  0  3.960715  0
C  C157  1  0.91645161  0.17705378  0.28881461  1  -0.002792  0  -0.077022  -0.096785  0  3.958969  0
C  C158  1  0.90987953  0.18817139  0.66328766  1  -0.03825  0  -0.07587  -0.0924  0  3.960497  0
C  C159  1  0.94702765  0.16723410  0.60395974  1  -0.039075  0  -0.006524  0.002311  0  3.978531  0
C  C160  1  0.98542490  0.10462091  0.60529207  1  0.013086  0  -0.077113  -0.091828  0  3.973234  0
C  C161  1  0.98531186  0.06238280  0.66415843  1  -0.044477  0  -0.084247  -0.107159  0  3.989062  0
C  C162  1  0.94415741  0.08081948  0.72129434  1  -0.022623  0  -0.003436  -0.00958  0  3.964531  0
C  C163  1  0.90706054  0.14410337  0.72094250  1  -0.005074  0  -0.084743  -0.106718  0  3.982205  0
C  C164  1  0.87770582  0.43553320  0.46520041  1  0.311552  0  -0.004854  -0.081996  0  3.939841  0
C  C165  1  0.89253428  0.37343813  0.46927241  1  -0.504585  0  -0.004416  -0.081962  0  3.940273  0
N  N166  1  0.95213729  0.16692380  0.47918973  1  -1.177373  0  -0.302828  -0.400939  0  3.232599  0
N  N167  1  0.91647640  0.26485633  0.41162620  1  -1.122003  0  -0.301463  -0.402575  0  3.131517  0
N  N168  1  0.91856570  0.27283981  0.53759944  1  -1.157943  0  -0.305309  -0.408863  0  3.123352  0
N  N169  1  0.81295696  0.64015390  0.44952233  1  -1.186332  0  -0.303417  -0.40334  0  3.214781  0
N  N170  1  0.85314369  0.54584622  0.51985126  1  -1.144291  0  -0.301605  -0.403333  0  3.134859  0
N  N171  1  0.84920863  0.53333877  0.39428872  1  -1.138395  0  -0.305772  -0.409418  0  3.11995  0
N  N172  1  0.24549504  0.47659614  0.00655792  1  -1.170838  0  -0.306681  -0.410409  0  3.122525  0
N  N173  1  0.23587347  0.35002788  0.01109314  1  -1.170471  0  -0.299528  -0.399031  0  3.13895  0
N  N174  1  0.14152880  0.42021146  0.05015287  1  -1.164699  0  -0.303495  -0.403457  0  3.209655  0
N  N175  1  0.50203241  0.32882949  0.93519984  1  -1.12605  0  -0.306085  -0.408952  0  3.123388  0
N  N176  1  0.51525528  0.45535948  0.93603288  1  -1.164334  0  -0.299627  -0.39907  0  3.137635  0
N  N177  1  0.60801805  0.38415691  0.89495420  1  -1.202954  0  -0.303578  -0.40371  0  3.207737  0
N  N178  1  0.44758621  0.93949092  0.33589119  1  -1.159654  0  -0.306495  -0.410899  0  3.114357  0
N  N179  1  0.32116744  0.94626849  0.32740918  1  -1.135921  0  -0.298802  -0.39822  0  3.139101  0
N  N180  1  0.39151620  0.98462485  0.23301122  1  -1.19551  0  -0.302871  -0.403262  0  3.208352  0
N  N181  1  0.30040381  0.87691351  0.59434441  1  -1.147736  0  -0.306329  -0.411083  0  3.116344  0
N  N182  1  0.42685316  0.87363460  0.60587681  1  -1.155508  0  -0.298987  -0.398495  0  3.136316  0
N  N183  1  0.35523040  0.83382655  0.69881935  1  -1.189563  0  -0.302318  -0.403463  0  3.200023  0
O  O184  1  0.98359451  0.01963438  0.82359394  1  -1.175103  0  -0.312909  -0.559225  0  2.24923  0
O  O185  1  0.66469578  0.84921563  0.92240033  1  -1.178034  0  -0.309613  -0.562649  0  2.202102  0
O  O186  1  0.82526309  0.86181807  0.75717353  1  -1.173042  0  -0.310898  -0.56305  0  2.207888  0
O  O187  1  0.75544241  0.04363123  0.85841036  1  -1.178001  0  -0.317399  -0.562864  0  2.256084  0
O  O188  1  0.77190012  0.08658195  0.97018869  1  -1.176587  0  -0.36008  -0.59393  0  2.314002  0
O  O189  1  0.88763002  0.77183784  0.80272475  1  -1.180084  0  -0.369057  -0.598606  0  2.395924  0
O  O190  1  0.70983599  0.91216484  0.83299426  1  -1.177751  0  -0.369245  -0.599332  0  2.392695  0
O  O191  1  0.87130717  0.00147691  0.77989552  1  -1.166955  0  -0.354246  -0.586737  0  2.29769  0
O  O192  1  0.78845078  0.93963138  0.95926645  1  -1.199009  0  -0.765965  -1.05823  0  2.240594  0
O  O193  1  0.91240046  0.89847438  0.88142878  1  -1.202319  0  -0.765664  -1.060083  0  2.239818  0
O  O194  1  0.80058582  0.82772961  0.89121863  1  -1.238284  0  -0.660727  -0.991326  0  2.432265  0
O  O195  1  0.88250034  0.02128803  0.91772264  1  -1.215776  0  -0.661417  -0.995306  0  2.427065  0
O  O196  1  0.76764920  0.78379262  0.10701607  1  -1.17151  0  -0.314478  -0.561813  0  2.251368  0
O  O197  1  0.08209119  0.96548330  0.01240143  1  -1.177969  0  -0.313911  -0.567362  0  2.223019  0
O  O198  1  0.83443046  0.69301023  0.91505853  1  -1.17166  0  -0.308981  -0.560138  0  2.202114  0
O  O199  1  0.72770967  0.01032351  0.07745979  1  -1.174758  0  -0.315389  -0.563053  0  2.250249  0
O  O200  1  0.91742596  0.11198180  0.02535566  1  -1.181265  0  -0.313615  -0.567367  0  2.219626  0
O  O201  1  0.01833543  0.79898721  0.85018042  1  -1.178403  0  -0.318263  -0.567277  0  2.254684  0
O  O202  1  0.98931663  0.76001204  0.07583345  1  -1.175318  0  -0.314423  -0.561711  0  2.248375  0
O  O203  1  0.93211604  0.94903892  0.17278852  1  -1.179254  0  -0.31452  -0.568318  0  2.222688  0
O  O204  1  0.97338816  0.71800167  0.96377242  1  -1.174016  0  -0.359041  -0.591028  0  2.317259  0
O  O205  1  0.86548595  0.03771050  0.13049213  1  -1.179791  0  -0.368516  -0.600206  0  2.381132  0
O  O206  1  0.74383928  0.73674180  0.97679565  1  -1.175055  0  -0.37064  -0.598553  0  2.394532  0
O  O207  1  0.05970026  0.91215578  0.86803594  1  -1.171553  0  -0.36169  -0.59589  0  2.319688  0
O  O208  1  0.00761776  0.07134797  0.96082338  1  -1.188937  0  -0.368894  -0.600603  0  2.379689  0
O  O209  1  0.68663555  0.89695899  0.06071132  1  -1.178046  0  -0.359823  -0.591534  0  2.31723  0
O  O210  1  0.88015886  0.80269376  0.14993890  1  -1.173064  0  -0.358634  -0.592516  0  2.307996  0
O  O211  1  0.04007741  0.89951989  0.10132858  1  -1.186067  0  -0.366597  -0.598102  0  2.377737  0
O  O212  1  0.93042068  0.96100145  0.02295986  1  -1.198648  0  -0.764086  -1.059431  0  2.232292  0
O  O213  1  0.86924970  0.81792730  0.00334117  1  -1.200721  0  -0.76556  -1.059327  0  2.239183  0
O  O214  1  0.99255627  0.85654674  0.97618472  1  -1.261722  0  -0.662209  -0.995733  0  2.427304  0
O  O215  1  0.82499408  0.91144103  0.08225007  1  -1.246883  0  -0.661163  -0.995406  0  2.426061  0
