# generated using pymatgen
data_CoH24C33(NO3)2
_symmetry_space_group_name_H-M   'P 1'
_cell_length_a   8.93435825
_cell_length_b   12.06227817
_cell_length_c   12.95407855
_cell_angle_alpha   67.93737242
_cell_angle_beta   83.07174481
_cell_angle_gamma   84.30726435
_symmetry_Int_Tables_number   1
_chemical_formula_structural   CoH24C33(NO3)2
_chemical_formula_sum   'Co2 H48 C66 N4 O12'
_cell_volume   1282.16512685
_cell_formula_units_Z   2
loop_
 _symmetry_equiv_pos_site_id
 _symmetry_equiv_pos_as_xyz
  1  'x, y, z'
loop_
 _atom_site_type_symbol
 _atom_site_label
 _atom_site_symmetry_multiplicity
 _atom_site_fract_x
 _atom_site_fract_y
 _atom_site_fract_z
 _atom_site_occupancy
 _atom_site_hle17_ddec_charge
 _atom_site_hle17_ddec_spin_density
 _atom_site_hle17_ddec_sum_bond_order
 _atom_site_hle17_magmom
 _atom_site_hse06_10hf_ddec_charge
 _atom_site_hse06_10hf_ddec_spin_density
 _atom_site_hse06_10hf_ddec_sum_bond_order
 _atom_site_hse06_10hf_magmom
 _atom_site_hse06_ddec_charge
 _atom_site_hse06_ddec_spin_density
 _atom_site_hse06_ddec_sum_bond_order
 _atom_site_hse06_magmom
 _atom_site_pbe_cm5_charge
 _atom_site_pbe_ddec_charge
 _atom_site_pbe_ddec_spin_density
 _atom_site_pbe_ddec_sum_bond_order
 _atom_site_pbe_magmom
Co  Co0  1  0.54892981  0.14419671  0.00471843  1  0.766421  -1.315249  2.34882  -1.072  0.750706  -1.112996  2.78859  -0.976  0.814843  -1.081385  2.71113  -0.97  0.664043  0.71382  -1.123399  2.836294  -0.969
Co  Co1  1  0.45106853  0.85580150  0.99528350  1  0.7662  1.315224  2.348845  1.072  0.750734  1.112995  2.788526  0.976  0.814726  1.081385  2.711094  0.97  0.664023  0.713788  1.123403  2.836243  0.969
H  H2  1  0.03425944  0.14764042  0.00156066  1  0.104503  -2.1e-05  0.963987  0.0  0.11566  -3.2e-05  1.025025  0.0  0.119039  -1.9e-05  1.023004  0.0  0.105335  0.112767  -4.5e-05  1.027335  0.0
H  H3  1  0.96572011  0.85236761  0.99843939  1  0.104532  2.1e-05  0.963953  0.0  0.115637  3.3e-05  1.025062  0.0  0.119015  1.9e-05  1.023039  0.0  0.105366  0.112756  4.5e-05  1.027366  0.0
H  H4  1  0.93388766  0.35705990  0.96024166  1  0.093003  -8.1e-05  0.955403  0.0  0.105358  -0.000119  1.013665  0.0  0.108686  -8e-05  1.011896  0.0  0.099377  0.103227  -0.000149  1.014239  0.0
H  H5  1  0.06610303  0.64294996  0.03975454  1  0.092942  8.1e-05  0.955459  0.0  0.10528  0.000119  1.013746  0.0  0.108607  8e-05  1.01198  0.0  0.099351  0.10315  0.000149  1.014313  0.0
H  H6  1  0.03634841  0.51974006  0.78503651  1  0.085906  -2.3e-05  0.945277  0.0  0.099266  -1e-05  0.999596  0.0  0.101835  -6e-06  0.99948  0.0  0.097961  0.097519  -1e-05  1.000133  0.0
H  H7  1  0.96364700  0.48026712  0.21496024  1  0.085929  2.3e-05  0.945327  0.0  0.099301  1e-05  0.999616  0.0  0.101866  6e-06  0.999506  0.0  0.097976  0.097552  1e-05  1.000152  0.0
H  H8  1  0.23007884  0.46682754  0.65616899  1  0.077165  -6e-06  0.976609  0.0  0.088575  -5e-06  1.040707  0.0  0.091393  -3e-06  1.039224  0.0  0.09289  0.086832  -6e-06  1.041191  0.0
H  H9  1  0.76992372  0.53317425  0.34383291  1  0.077174  7e-06  0.976562  0.0  0.088597  5e-06  1.040639  0.0  0.091413  3e-06  1.039157  0.0  0.092909  0.086858  6e-06  1.041128  0.0
H  H10  1  0.46357496  0.42642211  0.61837819  1  0.079034  9e-06  0.991806  0.0  0.088298  1.3e-05  1.060801  0.0  0.089985  4e-06  1.06143  0.0  0.09421  0.087267  2.6e-05  1.059984  0.0
H  H11  1  0.53642788  0.57357609  0.38162569  1  0.078981  -8e-06  0.991841  0.0  0.088245  -1.3e-05  1.060836  0.0  0.08993  -4e-06  1.061472  0.0  0.094191  0.087213  -2.6e-05  1.060021  0.0
H  H12  1  0.64860366  0.38896985  0.47762429  1  0.081008  1.5e-05  0.964927  0.0  0.094122  8e-06  1.026726  0.0  0.096774  2e-06  1.025183  0.0  0.095889  0.092291  1.4e-05  1.027736  0.0
H  H13  1  0.35139936  0.61102563  0.52238514  1  0.081039  -1.5e-05  0.964894  0.0  0.09417  -8e-06  1.026671  0.0  0.096818  -2e-06  1.025136  0.0  0.095912  0.092335  -1.4e-05  1.027681  0.0
H  H14  1  0.49780300  0.03318597  0.57656699  1  0.088965  3e-06  0.982081  0.0  0.097002  1e-06  1.052743  0.0  0.099754  2e-06  1.051192  0.0  0.099469  0.095223  -1e-06  1.053285  0.0
H  H15  1  0.50219293  0.96681400  0.42343838  1  0.088883  -3e-06  0.982112  0.0  0.096936  -2e-06  1.052754  0.0  0.099687  -2e-06  1.051205  0.0  0.099442  0.095178  1e-06  1.053273  0.0
H  H16  1  0.30408867  0.07255362  0.70981033  1  0.09678  -1.9e-05  0.969285  0.0  0.108253  -9e-06  1.028754  0.0  0.111708  -0.0  1.026689  0.0  0.103133  0.10556  -2.1e-05  1.030565  0.0
H  H17  1  0.69590500  0.92744634  0.29019677  1  0.096854  1.9e-05  0.969311  0.0  0.108357  9e-06  1.028726  0.0  0.111817  0.0  1.026651  0.0  0.10321  0.105651  2.1e-05  1.030558  0.0
H  H18  1  0.68402255  0.10456979  0.41746083  1  0.070551  5e-06  0.928748  0.0  0.082463  -0.0  0.996353  0.0  0.083299  -1e-06  0.994966  0.0  0.104325  0.081894  3e-06  0.997057  0.0
H  H19  1  0.31596453  0.89542840  0.58254123  1  0.070542  -5e-06  0.92877  0.0  0.082424  0.0  0.99639  0.0  0.08326  0.0  0.995002  0.0  0.104321  0.081853  -4e-06  0.997091  0.0
H  H20  1  0.70352592  0.26179237  0.35046084  1  0.058152  -0.000105  0.933546  0.0  0.071879  -6.9e-05  0.999558  0.0  0.072036  -3.4e-05  0.998286  0.0  0.101911  0.071311  -0.000102  1.001235  0.0
H  H21  1  0.29647017  0.73820583  0.64954204  1  0.058151  0.000105  0.933556  0.0  0.071889  6.9e-05  0.999535  0.0  0.072044  3.4e-05  0.998264  0.0  0.101901  0.071314  0.000102  1.001218  0.0
H  H22  1  0.86739828  0.17378282  0.26082179  1  0.113101  -0.000303  0.97352  0.0  0.122243  -0.000488  1.036644  0.0  0.126259  -0.000341  1.034887  0.0  0.103168  0.118687  -0.000642  1.038848  0.0
H  H23  1  0.13259494  0.82620914  0.73917729  1  0.113119  0.000303  0.973604  0.0  0.122265  0.000488  1.036703  0.0  0.126282  0.000341  1.034942  0.0  0.103165  0.11871  0.000642  1.038905  0.0
H  H24  1  0.10826156  0.15657890  0.15257198  1  0.091786  -2.6e-05  0.970587  0.0  0.101457  -3.3e-05  1.035443  0.0  0.104489  -1.7e-05  1.033143  0.0  0.102985  0.099466  -4.7e-05  1.036728  0.0
H  H25  1  0.89174158  0.84341575  0.84742847  1  0.091778  2.6e-05  0.970487  0.0  0.101438  3.3e-05  1.035361  0.0  0.104467  1.7e-05  1.033064  0.0  0.102994  0.099452  4.7e-05  1.036646  0.0
H  H26  1  0.35304999  0.13669218  0.42507749  1  0.078736  -2.7e-05  1.007234  0.0  0.086025  -1e-06  1.079412  0.0  0.08826  -3e-06  1.078258  0.0  0.096119  0.084688  -1e-06  1.080001  0.0
H  H27  1  0.64694296  0.86331768  0.57491931  1  0.078819  2.7e-05  1.00706  0.0  0.086067  1e-06  1.079341  0.0  0.088308  2e-06  1.078184  0.0  0.096137  0.084724  1e-06  1.079918  0.0
H  H28  1  0.11198758  0.15003987  0.53787499  1  0.10655  2.4e-05  0.956964  0.0  0.117537  6e-06  1.019361  0.0  0.120162  5e-06  1.019207  0.0  0.103104  0.115657  -6e-06  1.019714  0.0
H  H29  1  0.88800531  0.84997090  0.46211917  1  0.106703  -2.4e-05  0.956821  0.0  0.117658  -6e-06  1.019236  0.0  0.120308  -5e-06  1.019049  0.0  0.103145  0.115767  6e-06  1.019608  0.0
H  H30  1  0.29614456  0.32242970  0.04671900  1  0.083474  -0.0004  0.954467  -0.001  0.091503  0.000113  1.017536  0.0  0.093667  8.3e-05  1.015029  0.0  0.12069  0.089765  0.000136  1.019693  0.0
H  H31  1  0.70385681  0.67757396  0.95326999  1  0.083422  0.000401  0.954574  0.001  0.091515  -0.000113  1.017602  0.0  0.093655  -8.3e-05  1.015127  0.0  0.120674  0.089771  -0.000136  1.01976  0.0
H  H32  1  0.26660797  0.54661043  0.96016598  1  0.109825  0.000222  0.944201  0.001  0.121788  7.4e-05  0.99955  0.0  0.125534  5.9e-05  0.998088  0.0  0.108326  0.1187  8.8e-05  1.00147  0.0
H  H33  1  0.73340196  0.45339953  0.03981706  1  0.109962  -0.000223  0.944252  -0.001  0.121865  -7.4e-05  0.999654  0.0  0.125606  -5.9e-05  0.99819  0.0  0.108389  0.118778  -8.8e-05  1.001573  0.0
H  H34  1  0.44129915  0.65737408  0.79523237  1  0.110683  -0.000412  0.98296  -0.001  0.120741  0.0001  1.043667  0.0  0.125139  4.9e-05  1.039033  0.0  0.107801  0.117255  0.000157  1.047697  0.0
H  H35  1  0.55871821  0.34262691  0.20475703  1  0.110626  0.000413  0.983113  0.001  0.120669  -0.0001  1.043836  0.0  0.12506  -4.8e-05  1.039218  0.0  0.107785  0.117184  -0.000157  1.047865  0.0
H  H36  1  0.66315544  0.64282358  0.65169246  1  0.104068  4.2e-05  0.96614  0.0  0.115216  7e-06  1.026254  0.0  0.117367  7e-06  1.027107  0.0  0.103478  0.113441  3e-06  1.026022  0.0
H  H37  1  0.33686909  0.35717205  0.34829899  1  0.104057  -4.1e-05  0.966122  0.0  0.11519  -7e-06  1.026267  0.0  0.117341  -7e-06  1.027116  0.0  0.103466  0.1134  -3e-06  1.026057  0.0
H  H38  1  0.85191273  0.51575080  0.58421716  1  0.09387  0.000103  0.936378  0.0  0.108237  1.9e-05  0.99146  0.0  0.111199  1.5e-05  0.990235  0.0  0.103415  0.106149  1.7e-05  0.99233  0.0
H  H39  1  0.14810471  0.48423403  0.41578321  1  0.093833  -0.000105  0.936513  0.0  0.108202  -1.9e-05  0.991589  0.0  0.111165  -1.5e-05  0.990363  0.0  0.103413  0.106111  -1.8e-05  0.992459  0.0
H  H40  1  0.96392349  0.30129230  0.60518939  1  0.093912  -0.000449  0.934508  -0.001  0.106  4.2e-05  0.994991  0.0  0.109472  1.2e-05  0.991036  0.0  0.106075  0.103468  8.1e-05  0.997977  0.0
H  H41  1  0.03608343  0.69869696  0.39481493  1  0.093881  0.000449  0.934445  0.001  0.105964  -4.2e-05  0.994944  0.0  0.109438  -1.3e-05  0.990981  0.0  0.106058  0.103441  -8.1e-05  0.997921  0.0
H  H42  1  0.95352824  0.08060801  0.71686102  1  0.105198  0.000184  0.954612  0.001  0.114543  -5e-06  1.017288  0.0  0.117632  8e-06  1.016116  0.0  0.106861  0.11196  -2.1e-05  1.019088  0.0
H  H43  1  0.04647403  0.91938304  0.28314306  1  0.105198  -0.000183  0.954698  -0.001  0.114561  5e-06  1.017361  0.0  0.117639  -8e-06  1.016202  0.0  0.106865  0.112006  2.1e-05  1.019128  0.0
H  H44  1  0.77113104  0.00795116  0.88466970  1  0.093438  -0.000334  0.968499  -0.001  0.099767  4e-05  1.034223  0.0  0.102815  6e-06  1.030136  0.0  0.123195  0.097095  7.7e-05  1.037706  0.0
H  H45  1  0.22887454  0.99204077  0.11533535  1  0.093474  0.000334  0.968546  0.001  0.099846  -4e-05  1.034201  0.0  0.102856  -6e-06  1.030178  0.0  0.123237  0.09717  -7.7e-05  1.037683  0.0
H  H46  1  0.64643785  0.19330650  0.15096592  1  0.38992  0.000619  0.936457  0.002  0.360254  0.000104  1.001549  0.0  0.37131  0.000197  0.985795  0.0  0.276786  0.35197  -1.8e-05  1.013403  0.0
H  H47  1  0.35356008  0.80669708  0.84903418  1  0.389906  -0.000619  0.936481  -0.002  0.360232  -0.000104  1.001588  0.0  0.371284  -0.000197  0.985839  0.0  0.276781  0.351942  1.8e-05  1.013446  0.0
H  H48  1  0.78198435  0.14201959  0.08847294  1  0.395486  0.000625  0.929262  0.002  0.367668  0.000108  0.990396  0.0  0.378833  0.000186  0.974682  0.0  0.279423  0.35979  5e-06  1.001265  0.0
H  H49  1  0.21801252  0.85798310  0.91152756  1  0.395485  -0.000625  0.929278  -0.002  0.367692  -0.000108  0.990398  0.0  0.378857  -0.000185  0.974685  0.0  0.279426  0.359808  -5e-06  1.001278  0.0
C  C50  1  0.24523847  0.05828130  0.89533984  1  0.639694  -0.0022  3.8689  -0.002  0.592353  -0.001559  4.176107  -0.002  0.628218  -0.001029  4.169416  -0.001  0.222321  0.567761  -0.002048  4.179393  -0.003
C  C51  1  0.75475245  0.94172492  0.10466686  1  0.639801  0.002202  3.868773  0.002  0.592422  0.00156  4.176028  0.002  0.628259  0.001029  4.169386  0.001  0.222389  0.567835  0.002049  4.179317  0.003
C  C52  1  0.19785564  0.18979179  0.85877070  1  -0.082158  -0.001389  3.69504  -0.002  -0.068701  -0.0007  3.936634  -0.001  -0.074266  -0.000591  3.956373  -0.001  -0.007827  -0.064205  -0.000694  3.92263  -0.001
C  C53  1  0.80213523  0.81021535  0.14123183  1  -0.082138  0.001386  3.694965  0.002  -0.068747  0.000701  3.936595  0.001  -0.074299  0.000592  3.95634  0.001  -0.007879  -0.064259  0.000698  3.922607  0.001
C  C54  1  0.08197491  0.21962888  0.92860104  1  -0.075855  -2e-06  3.718887  0.0  -0.100923  4.8e-05  3.973005  0.0  -0.101781  7.4e-05  3.993049  0.0  -0.086169  -0.101281  6.9e-05  3.960379  0.0
C  C55  1  0.91801033  0.78037825  0.07140040  1  -0.075716  6e-06  3.718703  0.0  -0.100739  -4.8e-05  3.972841  0.0  -0.101595  -7.6e-05  3.992886  0.0  -0.086062  -0.101118  -7.2e-05  3.960242  0.0
C  C56  1  0.02468571  0.33743644  0.90428042  1  -0.068612  -0.00015  3.766331  0.0  -0.083647  -0.000116  4.019673  0.0  -0.086262  -0.000116  4.04145  0.0  -0.093819  -0.08074  -0.000152  4.004951  0.0
C  C57  1  0.97530513  0.66257164  0.09571562  1  -0.068631  0.000146  3.766041  0.0  -0.083635  0.000117  4.019377  0.0  -0.08625  0.000117  4.041155  0.0  -0.093874  -0.080724  0.000156  4.004649  0.0
C  C58  1  0.08122695  0.42712284  0.80667691  1  -0.073551  0.000168  3.816861  0.0  -0.087308  0.000269  4.067689  0.0  -0.089761  0.000175  4.091752  0.0  -0.096424  -0.086426  0.000443  4.053364  0.0
C  C59  1  0.91876979  0.57288165  0.19332143  1  -0.073582  -0.000164  3.816874  0.0  -0.087355  -0.000269  4.06772  0.0  -0.089805  -0.000177  4.091781  0.0  -0.096429  -0.086462  -0.000446  4.05339  0.0
C  C60  1  0.19193222  0.39718345  0.73475548  1  -0.122108  -5.5e-05  3.766716  0.0  -0.141387  -2.2e-05  4.019848  0.0  -0.145834  -4.6e-05  4.043837  0.0  -0.09662  -0.137996  1e-06  4.002829  0.0
C  C61  1  0.80806458  0.60282013  0.26524549  1  -0.122105  5.3e-05  3.766708  0.0  -0.141421  2.2e-05  4.01981  0.0  -0.145865  4.6e-05  4.043807  0.0  -0.096633  -0.138047  1e-06  4.002806  0.0
C  C62  1  0.25359339  0.27894114  0.75832985  1  0.034303  0.000238  3.747636  0.0  0.039591  0.000182  3.983948  0.0  0.04018  9.6e-05  4.008442  0.0  -0.006008  0.039175  0.000251  3.966424  0.0
C  C63  1  0.74640452  0.72106243  0.24167258  1  0.034171  -0.000236  3.747674  0.0  0.039586  -0.000181  3.983868  0.0  0.040163  -9.7e-05  4.008378  0.0  -0.006022  0.039182  -0.000253  3.966345  0.0
C  C64  1  0.36730809  0.25312850  0.67587479  1  0.054834  -4.7e-05  3.762845  0.0  0.068449  3e-06  3.997609  0.0  0.068262  -5e-06  4.021688  0.0  -0.00857  0.068276  3.3e-05  3.981184  0.0
C  C65  1  0.63269600  0.74686790  0.32413270  1  0.054985  5.6e-05  3.76289  0.0  0.068512  -0.0  3.99767  0.0  0.068327  5e-06  4.021753  0.0  -0.008548  0.068336  -3.2e-05  3.981247  0.0
C  C66  1  0.46631656  0.34102667  0.60745271  1  -0.116123  6.6e-05  3.760715  0.0  -0.135426  4.2e-05  4.009621  0.0  -0.13898  3.5e-05  4.034072  0.0  -0.095264  -0.132235  8.3e-05  3.992224  0.0
C  C67  1  0.53368859  0.65897062  0.39255439  1  -0.116076  -7.7e-05  3.760843  0.0  -0.135351  -4.4e-05  4.009763  0.0  -0.138901  -3.5e-05  4.034212  0.0  -0.095257  -0.132153  -8.5e-05  3.992344  0.0
C  C68  1  0.57210840  0.31964022  0.52822586  1  -0.105134  -1.7e-05  3.768662  0.0  -0.126163  2e-06  4.017881  0.0  -0.129225  -1.5e-05  4.041095  0.0  -0.092366  -0.12395  2.6e-05  4.001563  0.0
C  C69  1  0.42789455  0.68035616  0.47178250  1  -0.105171  2.9e-05  3.768568  0.0  -0.126232  -3e-06  4.017808  0.0  -0.129294  1.6e-05  4.04102  0.0  -0.092405  -0.124018  -2.5e-05  4.001488  0.0
C  C70  1  0.58543164  0.20909512  0.51504162  1  0.056911  0.000122  3.763178  0.0  0.076345  5.7e-05  4.00097  0.0  0.075171  3.6e-05  4.024882  0.0  -0.01662  0.077402  5.6e-05  3.984968  0.0
C  C71  1  0.41456330  0.79090306  0.48496444  1  0.05681  -0.000132  3.763157  0.0  0.076225  -5.4e-05  4.000956  0.0  0.07505  -3.7e-05  4.024867  0.0  -0.016628  0.077283  -5.7e-05  3.984954  0.0
C  C72  1  0.48840293  0.12113341  0.58304096  1  -0.102537  -0.000113  3.747534  0.0  -0.119957  -2.9e-05  3.990209  0.0  -0.122188  -3e-05  4.011084  0.0  -0.08911  -0.11922  -2.7e-05  3.976801  0.0
C  C73  1  0.51159187  0.87886656  0.41696450  1  -0.102473  0.000123  3.747652  0.0  -0.11989  2.8e-05  3.990344  0.0  -0.122123  2.9e-05  4.011227  0.0  -0.089155  -0.119172  2.7e-05  3.976918  0.0
C  C74  1  0.37970670  0.14292951  0.66089614  1  -0.094037  0.000262  3.70629  0.0  -0.113112  0.000135  3.94976  0.0  -0.114711  8.7e-05  3.969107  0.0  -0.089495  -0.112196  0.000138  3.937594  0.0
C  C75  1  0.62029034  0.85707046  0.33911068  1  -0.09415  -0.000272  3.706333  0.0  -0.113225  -0.000136  3.949808  0.0  -0.114827  -8.7e-05  3.969163  0.0  -0.089546  -0.112306  -0.000138  3.937653  0.0
C  C76  1  0.70322103  0.18622306  0.43156996  1  0.058158  -6.4e-05  3.631744  0.0  -0.009443  -4.5e-05  3.900111  0.0  0.000435  -2.4e-05  3.902838  0.0  -0.06128  -0.015808  -6.1e-05  3.898131  0.0
C  C77  1  0.29676842  0.81377333  0.56843408  1  0.058084  6.5e-05  3.63185  0.0  -0.009435  4.6e-05  3.900148  0.0  0.000448  2.4e-05  3.902872  0.0  -0.061317  -0.015801  6.1e-05  3.898169  0.0
C  C78  1  0.97367576  0.16326624  0.40744000  1  0.28621  0.000813  3.818705  0.001  0.276612  0.000261  4.075286  0.0  0.290098  0.000153  4.091401  0.0  0.087016  0.26787  0.000368  4.063794  0.0
C  C79  1  0.02631789  0.83673467  0.59255750  1  0.286387  -0.000815  3.818634  -0.001  0.276838  -0.00026  4.075191  0.0  0.290324  -0.000152  4.09131  0.0  0.087117  0.268102  -0.000367  4.063697  0.0
C  C80  1  0.97261396  0.16459540  0.29861276  1  -0.220502  -0.000711  3.751731  -0.001  -0.237422  -0.000426  4.000534  -0.001  -0.245672  -0.000302  4.019881  0.0  -0.113493  -0.231767  -0.000529  3.987889  -0.001
C  C81  1  0.02738230  0.83540104  0.70138531  1  -0.220555  0.000713  3.751741  0.001  -0.237463  0.000425  4.00054  0.001  -0.245712  0.000302  4.019884  0.0  -0.113475  -0.231809  0.000529  3.987902  0.001
C  C82  1  0.10934287  0.15455293  0.23721347  1  -0.038206  0.000741  3.759708  0.001  -0.059796  0.000202  4.004684  0.0  -0.055376  0.000125  4.02281  0.0  -0.083893  -0.062359  0.000273  3.992013  0.0
C  C83  1  0.89065316  0.84544619  0.76278601  1  -0.038176  -0.000743  3.759626  -0.001  -0.059757  -0.000202  4.004619  0.0  -0.05534  -0.000124  4.022746  0.0  -0.083884  -0.062328  -0.000273  3.991959  0.0
C  C84  1  0.24774150  0.14360317  0.28168319  1  -0.108443  0.000727  3.796954  0.001  -0.090276  0.000411  4.035784  0.0  -0.101899  0.000317  4.060012  0.0  -0.036083  -0.082789  0.000477  4.019325  0.001
C  C85  1  0.75225405  0.85640222  0.71831339  1  -0.108397  -0.000726  3.796911  -0.001  -0.090249  -0.00041  4.035815  0.0  -0.101867  -0.000318  4.060036  0.0  -0.036129  -0.082762  -0.000478  4.019357  -0.001
C  C86  1  0.24616385  0.14292068  0.39048705  1  -0.04932  0.000894  3.791835  0.001  -0.073623  0.000314  4.042399  0.0  -0.070011  0.00019  4.062083  0.0  -0.089217  -0.075828  0.000428  4.028643  0.001
C  C87  1  0.75383242  0.85709009  0.60950762  1  -0.049352  -0.000897  3.791744  -0.001  -0.073631  -0.000314  4.042254  0.0  -0.070031  -0.000189  4.061954  0.0  -0.089239  -0.075815  -0.000426  4.028478  -0.001
C  C88  1  0.11199738  0.15172329  0.45319299  1  -0.188539  -0.000363  3.745193  0.0  -0.210169  -5.9e-05  4.000252  0.0  -0.217662  -4.6e-05  4.02019  0.0  -0.106536  -0.204816  -6.4e-05  3.986147  0.0
C  C89  1  0.88799452  0.84828569  0.54680187  1  -0.188871  0.000366  3.745302  0.0  -0.210477  5.8e-05  4.000348  0.0  -0.217989  4.5e-05  4.020278  0.0  -0.106627  -0.205121  6.1e-05  3.986251  0.0
C  C90  1  0.39571896  0.13901284  0.21620336  1  0.630406  0.002957  3.877574  0.003  0.58387  0.001598  4.178146  0.002  0.62113  0.001132  4.171787  0.001  0.212246  0.558964  0.002117  4.180677  0.002
C  C91  1  0.60427785  0.86099074  0.78379605  1  0.630369  -0.002956  3.877733  -0.003  0.583749  -0.001596  4.178379  -0.002  0.621007  -0.001132  4.172018  -0.001  0.212239  0.558834  -0.002117  4.180917  -0.002
C  C92  1  0.37126794  0.37268153  0.97540769  1  0.137248  0.020483  3.654788  0.024  0.108704  0.006244  3.909568  0.007  0.123322  0.003623  3.921716  0.004  0.055025  0.097826  0.007938  3.904073  0.009
C  C93  1  0.62873997  0.62732481  0.02458371  1  0.137327  -0.020504  3.654629  -0.024  0.108627  -0.006244  3.909544  -0.007  0.123249  -0.003623  3.921707  -0.004  0.055017  0.097759  -0.007939  3.904038  -0.009
C  C94  1  0.35449996  0.49801232  0.92529383  1  -0.10882  -0.00881  3.739302  -0.012  -0.123013  -0.001033  3.994372  -0.002  -0.130828  -0.000885  4.010967  -0.001  -0.082581  -0.118382  -0.0005  3.986761  -0.002
C  C95  1  0.64550916  0.50199314  0.07469546  1  -0.108958  0.008834  3.739268  0.012  -0.123078  0.001032  3.994457  0.002  -0.130875  0.000885  4.011037  0.001  -0.082636  -0.118448  0.000499  3.986845  0.002
C  C96  1  0.45031340  0.55996303  0.83358208  1  -0.061736  0.021806  3.672149  0.025  -0.087937  0.006437  3.922776  0.007  -0.078719  0.003329  3.931925  0.004  -0.074166  -0.096264  0.00875  3.91937  0.01
C  C97  1  0.54970156  0.44003975  0.16640767  1  -0.061705  -0.021825  3.672316  -0.025  -0.087964  -0.006437  3.922951  -0.007  -0.078743  -0.003329  3.932097  -0.004  -0.074186  -0.096292  -0.00875  3.919545  -0.01
C  C98  1  0.56411137  0.49470847  0.79082543  1  0.03041  -0.004442  3.799232  -0.007  0.046898  -0.000553  4.030888  -0.001  0.043428  -0.000454  4.051855  -0.001  -0.002657  0.049524  -0.000311  4.016539  -0.001
C  C99  1  0.43590393  0.50528981  0.20916739  1  0.030335  0.00446  3.799421  0.007  0.046964  0.000552  4.030923  0.001  0.043494  0.000453  4.051893  0.001  -0.002528  0.049582  0.000311  4.016578  0.001
C  C100  1  0.66915757  0.54590870  0.69502507  1  -0.102783  -0.000119  3.728104  0.0  -0.122641  -7.1e-05  3.976693  0.0  -0.125294  -5.2e-05  3.999317  0.0  -0.083548  -0.120997  -6.7e-05  3.961803  0.0
C  C101  1  0.33085919  0.45408510  0.30497072  1  -0.102721  9.1e-05  3.728099  0.0  -0.12261  7.2e-05  3.976645  0.0  -0.125262  5.2e-05  3.999269  0.0  -0.083664  -0.120952  6.7e-05  3.961761  0.0
C  C102  1  0.77408431  0.47516684  0.65796938  1  -0.100378  -0.001749  3.747278  -0.002  -0.123157  -0.000397  4.002495  0.0  -0.125784  -0.000314  4.024162  0.0  -0.083421  -0.121239  -0.000262  3.988288  0.0
C  C103  1  0.22593144  0.52482515  0.34203020  1  -0.100369  0.001778  3.747353  0.002  -0.12313  0.000397  4.002595  0.0  -0.125756  0.000315  4.024267  0.0  -0.083351  -0.12121  0.000261  3.988384  0.0
C  C104  1  0.78476976  0.34749475  0.71382601  1  0.027137  -0.003108  3.818546  -0.005  0.04408  -0.00024  4.047209  -0.001  0.040469  -0.000199  4.070332  0.0  -0.00042  0.046354  -4.7e-05  4.033251  -0.001
C  C105  1  0.21524020  0.65249900  0.28617652  1  0.027269  0.003091  3.81869  0.005  0.044185  0.000239  4.047432  0.001  0.040556  0.000199  4.07055  0.0  -0.000389  0.046449  4.7e-05  4.03348  0.001
C  C106  1  0.88513941  0.26741926  0.67954292  1  -0.045423  0.018494  3.686488  0.021  -0.07507  0.00539  3.945487  0.006  -0.066475  0.002682  3.956242  0.003  -0.066033  -0.08255  0.008045  3.940236  0.009
C  C107  1  0.11486965  0.73257181  0.32045829  1  -0.045428  -0.018472  3.686721  -0.021  -0.075064  -0.00539  3.945733  -0.006  -0.066458  -0.002683  3.95649  -0.003  -0.06604  -0.08255  -0.008047  3.940489  -0.009
C  C108  1  0.87968711  0.14588647  0.74076489  1  -0.085543  -0.007099  3.699862  -0.01  -0.105609  -0.000739  3.963838  -0.001  -0.110956  -0.000597  3.977667  -0.001  -0.074342  -0.103086  -0.00037  3.957417  -0.001
C  C109  1  0.12031517  0.85410457  0.25923996  1  -0.085599  0.007081  3.700116  0.01  -0.10569  0.000739  3.964087  0.001  -0.111033  0.000598  3.977915  0.001  -0.074385  -0.103197  0.000371  3.957657  0.001
C  C110  1  0.77845990  0.10313024  0.83677733  1  0.161426  0.017557  3.599051  0.02  0.129285  0.005417  3.856228  0.006  0.145646  0.003087  3.864186  0.004  0.06302  0.117723  0.007323  3.853328  0.008
C  C111  1  0.22154096  0.89686437  0.16322872  1  0.16133  -0.017542  3.598988  -0.02  0.129187  -0.005418  3.856162  -0.006  0.145567  -0.003087  3.864105  -0.004  0.062943  0.11762  -0.007324  3.853258  -0.008
C  C112  1  0.68479303  0.29687513  0.80998461  1  0.124284  0.008544  3.761876  0.01  0.120237  0.003207  3.996824  0.004  0.127002  0.001804  4.015191  0.002  0.113583  0.114207  0.004094  3.986484  0.004
C  C113  1  0.31521131  0.70311863  0.19001528  1  0.124218  -0.008529  3.761834  -0.01  0.120072  -0.003207  3.996963  -0.004  0.126884  -0.001804  4.015264  -0.002  0.113587  0.114046  -0.004095  3.986615  -0.004
C  C114  1  0.57438745  0.36924647  0.84696854  1  0.123911  0.009329  3.762081  0.011  0.116405  0.003411  4.002558  0.004  0.123959  0.002056  4.020007  0.002  0.113973  0.111518  0.004329  3.990481  0.005
C  C115  1  0.42562104  0.63075176  0.15303179  1  0.124017  -0.009344  3.76192  -0.011  0.116496  -0.00341  4.002394  -0.004  0.124032  -0.002054  4.019832  -0.002  0.113975  0.111605  -0.004328  3.990322  -0.005
N  N116  1  0.48000897  0.30847905  0.93810206  1  -0.274601  0.004773  3.354721  0.004  -0.233584  0.004506  3.645686  0.007  -0.257147  0.003614  3.657492  0.006  -0.332919  -0.220121  0.005165  3.638051  0.007
N  N117  1  0.51999602  0.69152099  0.06189484  1  -0.274695  -0.004754  3.3546  -0.004  -0.233635  -0.004507  3.645627  -0.007  -0.257162  -0.003615  3.657396  -0.006  -0.33298  -0.220165  -0.005165  3.637977  -0.007
N  N118  1  0.68302963  0.17684242  0.87224248  1  -0.274984  0.00624  3.341826  0.006  -0.236139  0.005051  3.63345  0.008  -0.260196  0.004282  3.643545  0.007  -0.334913  -0.221807  0.005622  3.627625  0.008
N  N119  1  0.31697568  0.82315311  0.12775980  1  -0.274793  -0.00625  3.341577  -0.006  -0.235998  -0.005052  3.633326  -0.008  -0.260021  -0.004283  3.643337  -0.007  -0.33484  -0.221646  -0.00562  3.627475  -0.008
O  O120  1  0.14887727  0.99116301  0.89081756  1  -0.595435  -0.001685  1.979373  -0.002  -0.544081  -0.001398  2.200464  -0.002  -0.570902  -0.000912  2.193311  -0.001  -0.299444  -0.524663  -0.002108  2.205095  -0.003
O  O121  1  0.85111522  0.00883787  0.10918468  1  -0.595443  0.001685  1.979518  0.002  -0.544072  0.001398  2.200641  0.002  -0.570883  0.000913  2.193503  0.001  -0.299443  -0.524657  0.002108  2.205267  0.003
O  O122  1  0.37668921  0.02363357  0.93263984  1  -0.554609  -0.015938  2.126787  -0.022  -0.531908  -0.013608  2.426155  -0.019  -0.571408  -0.012352  2.413269  -0.017  -0.285993  -0.504328  -0.014013  2.434065  -0.019
O  O123  1  0.62329764  0.97636730  0.06736363  1  -0.554791  0.015938  2.12682  0.022  -0.532023  0.013607  2.426186  0.019  -0.571537  0.012351  2.413325  0.017  -0.286044  -0.504416  0.014014  2.434026  0.019
O  O124  1  0.84839036  0.17374333  0.47476983  1  -0.287164  0.00027  2.322224  0.0  -0.2142  0.000138  2.554643  0.0  -0.23443  7e-05  2.559635  0.0  -0.175629  -0.200844  0.000172  2.550955  0.0
O  O125  1  0.15160292  0.82624772  0.52523111  1  -0.287002  -0.00027  2.322224  0.0  -0.214136  -0.000139  2.554662  0.0  -0.234369  -7.1e-05  2.559656  0.0  -0.175579  -0.200784  -0.000172  2.550974  0.0
O  O126  1  0.51416173  0.15505884  0.25245814  1  -0.621198  0.001317  2.001153  0.002  -0.565965  0.000558  2.228535  0.001  -0.591086  0.000384  2.219074  0.0  -0.313672  -0.548341  0.000666  2.234693  0.001
O  O127  1  0.48583417  0.84494207  0.74754073  1  -0.621225  -0.001317  2.001176  -0.002  -0.565967  -0.000559  2.228604  -0.001  -0.591092  -0.000384  2.219149  0.0  -0.313714  -0.548334  -0.000666  2.234758  -0.001
O  O128  1  0.39160438  0.12221054  0.12374587  1  -0.565458  0.007397  2.172091  0.012  -0.537032  0.001607  2.464011  0.005  -0.577731  0.002155  2.455935  0.006  -0.305363  -0.508012  5.5e-05  2.467367  0.002
O  O129  1  0.60838759  0.87779755  0.87624852  1  -0.565466  -0.007397  2.17231  -0.012  -0.536953  -0.001608  2.464187  -0.005  -0.577623  -0.002155  2.456083  -0.006  -0.305298  -0.507924  -5.4e-05  2.467544  -0.002
O  O130  1  0.71349068  0.21616230  0.07862443  1  -0.813119  -0.046256  1.889115  -0.071  -0.779672  -0.035148  2.077868  -0.055  -0.81416  -0.026388  2.051194  -0.042  -0.583232  -0.750106  -0.045428  2.094246  -0.069
O  O131  1  0.28650185  0.78383861  0.92137317  1  -0.8131  0.046261  1.889083  0.071  -0.7797  0.035149  2.077779  0.055  -0.814169  0.026389  2.051105  0.042  -0.583247  -0.750118  0.045428  2.094169  0.069
