# generated using pymatgen
data_CdH18C24(IN2)2
_symmetry_space_group_name_H-M   'P 1'
_cell_length_a   9.05084615
_cell_length_b   10.22800762
_cell_length_c   13.32803460
_cell_angle_alpha   69.67913454
_cell_angle_beta   78.13993154
_cell_angle_gamma   87.49716915
_symmetry_Int_Tables_number   1
_chemical_formula_structural   CdH18C24(IN2)2
_chemical_formula_sum   'Cd2 H36 C48 I4 N8'
_cell_volume   1131.80010616
_cell_formula_units_Z   2
loop_
 _symmetry_equiv_pos_site_id
 _symmetry_equiv_pos_as_xyz
  1  'x, y, z'
loop_
 _atom_site_type_symbol
 _atom_site_label
 _atom_site_symmetry_multiplicity
 _atom_site_fract_x
 _atom_site_fract_y
 _atom_site_fract_z
 _atom_site_occupancy
 _atom_site_hle17_bader_spin_density
 _atom_site_hle17_ddec_charge
 _atom_site_hle17_ddec_spin_density
 _atom_site_hle17_ddec_sum_bond_order
 _atom_site_hle17_magmom
 _atom_site_hse06_10hf_bader_spin_density
 _atom_site_hse06_10hf_ddec_charge
 _atom_site_hse06_10hf_ddec_spin_density
 _atom_site_hse06_10hf_ddec_sum_bond_order
 _atom_site_hse06_10hf_magmom
 _atom_site_hse06_bader_spin_density
 _atom_site_hse06_ddec_charge
 _atom_site_hse06_ddec_spin_density
 _atom_site_hse06_ddec_sum_bond_order
 _atom_site_hse06_magmom
 _atom_site_pbe_bader_spin_density
 _atom_site_pbe_cm5_charge
 _atom_site_pbe_ddec_charge
 _atom_site_pbe_ddec_spin_density
 _atom_site_pbe_ddec_sum_bond_order
 _atom_site_pbe_magmom
Cd  Cd0  1  0.36227459  0.33339972  0.23630598  1  0  0.83035  0  1.954393  0  0  0.657228  0  2.404626  0  0  0.707398  0  2.367928  0  0  0.565387  0.623105  0  2.428197  0
Cd  Cd1  1  0.63772584  0.66660023  0.76369296  1  0  0.83035  0  1.954427  0  0  0.657232  0  2.404655  0  0  0.707401  0  2.367955  0  0  0.565396  0.62311  0  2.428223  0
H  H2  1  0.95619448  0.64378561  0.85497844  1  0  0.068798  0  0.972492  0  0  0.0752  0  1.043889  0  0  0.078221  0  1.040683  0  0  0.096348  0.073017  0  1.046302  0
H  H3  1  0.04379922  0.35621642  0.14501790  1  0  0.068863  0  0.972437  0  0  0.075246  0  1.043862  0  0  0.078277  0  1.040626  0  0  0.096379  0.073063  0  1.046276  0
H  H4  1  0.05268339  0.67757755  0.00720898  1  0  0.108008  0  0.980871  0  0  0.116198  0  1.044394  0  0  0.11988  0  1.042905  0  0  0.089761  0.113514  0  1.045729  0
H  H5  1  0.94731369  0.32242449  0.99278688  1  0  0.108072  0  0.980967  0  0  0.116245  0  1.044499  0  0  0.119935  0  1.043003  0  0  0.089777  0.113542  0  1.045854  0
H  H6  1  0.88348668  0.78203742  0.13141819  1  0  0.089619  0  0.949717  0  0  0.101668  0  1.011181  0  0  0.104424  0  1.009041  0  0  0.101398  0.099572  0  1.012914  0
H  H7  1  0.11651036  0.21796251  0.86858198  1  0  0.089623  0  0.949694  0  0  0.101684  0  1.011147  0  0  0.104432  0  1.009016  0  0  0.101422  0.099588  0  1.012881  0
H  H8  1  0.54826416  0.81989831  0.93508974  1  0  0.0681  0  0.992117  0  0  0.074885  0  1.063733  0  0  0.07678  0  1.062903  0  0  0.098171  0.073436  0  1.064317  0
H  H9  1  0.45173057  0.18009952  0.06491206  1  0  0.068079  0  0.992194  0  0  0.074878  0  1.063802  0  0  0.076773  0  1.062974  0  0  0.098161  0.073441  0  1.064374  0
H  H10  1  0.77025538  0.98422299  0.14541197  1  0  0.094809  0  0.953017  0  0  0.106561  0  1.012696  0  0  0.109349  0  1.011786  0  0  0.101665  0.104532  0  1.013369  0
H  H11  1  0.22974603  0.01577175  0.85458820  1  0  0.094805  0  0.953006  0  0  0.10655  0  1.012693  0  0  0.109338  0  1.011784  0  0  0.101677  0.104522  0  1.013365  0
H  H12  1  0.60022208  0.05252219  0.28683045  1  0  0.098228  0  0.960989  0  0  0.104753  0  1.028091  0  0  0.10764  0  1.026997  0  0  0.097632  0.102803  0  1.028573  0
H  H13  1  0.39978283  0.94747674  0.71316886  1  0  0.098176  0  0.961044  0  0  0.104714  0  1.028139  0  0  0.1076  0  1.027048  0  0  0.097634  0.102764  0  1.02862  0
H  H14  1  0.22453093  0.85262837  0.23671860  1  0  0.091564  0  0.966845  0  0  0.101553  0  1.031175  0  0  0.104513  0  1.029224  0  0  0.098209  0.099385  0  1.03281  0
H  H15  1  0.77547076  0.14737575  0.76328131  1  0  0.091631  0  0.96678  0  0  0.101623  0  1.031097  0  0  0.104585  0  1.029144  0  0  0.09821  0.099454  0  1.032734  0
H  H16  1  0.39550020  0.77807210  0.09972958  1  0  0.10054  0  0.957262  0  0  0.107476  0  1.024532  0  0  0.111212  0  1.022291  0  0  0.09971  0.105125  0  1.025589  0
H  H17  1  0.60449455  0.22192678  0.90027045  1  0  0.100563  0  0.957155  0  0  0.107481  0  1.024433  0  0  0.111217  0  1.022192  0  0  0.099692  0.105129  0  1.025492  0
H  H18  1  0.22572652  0.30066239  0.49262261  1  0  0.098148  0  1.002145  0  0  0.102811  0  1.075286  0  0  0.105931  0  1.073338  0  0  0.093658  0.100747  0  1.076353  0
H  H19  1  0.77427730  0.69933757  0.50737734  1  0  0.098096  0  1.002196  0  0  0.102749  0  1.075347  0  0  0.105868  0  1.073399  0  0  0.093649  0.100685  0  1.076414  0
H  H20  1  0.06987478  0.21734955  0.68341296  1  0  0.082029  0  0.965365  0  0  0.092907  0  1.030332  0  0  0.09569  0  1.028986  0  0  0.089595  0.090466  0  1.032163  0
H  H21  1  0.93012685  0.78265248  0.31658751  1  0  0.081999  0  0.965322  0  0  0.092905  0  1.030276  0  0  0.09569  0  1.028931  0  0  0.089577  0.090461  0  1.03211  0
H  H22  1  0.98586141  0.96880508  0.77507237  1  0  0.086263  0  0.960718  0  0  0.098566  0  1.01977  0  0  0.100649  0  1.020171  0  0  0.096413  0.097012  0  1.019684  0
H  H23  1  0.01413792  0.03119590  0.22492870  1  0  0.086256  0  0.960699  0  0  0.098557  0  1.019755  0  0  0.100638  0  1.020156  0  0  0.096413  0.097002  0  1.019669  0
H  H24  1  0.04724957  0.79717060  0.67874548  1  0  0.105773  0  0.96737  0  0  0.111618  0  1.039543  0  0  0.114736  0  1.037789  0  0  0.099077  0.108976  0  1.041538  0
H  H25  1  0.95275093  0.20283143  0.32125515  1  0  0.10576  0  0.967314  0  0  0.111612  0  1.039481  0  0  0.114728  0  1.037728  0  0  0.099088  0.108976  0  1.04147  0
H  H26  1  0.21030553  0.72434099  0.40187272  1  0  0.083518  0  0.959469  0  0  0.09627  0  1.030946  0  0  0.096712  0  1.03086  0  0  0.108652  0.096167  0  1.030426  0
H  H27  1  0.78969716  0.27565896  0.59812739  1  0  0.083477  0  0.959523  0  0  0.096225  0  1.031013  0  0  0.096666  0  1.030929  0  0  0.10864  0.096122  0  1.030491  0
H  H28  1  0.08118897  0.71461290  0.52245526  1  0  0.086719  0  0.948994  0  0  0.099254  0  1.019778  0  0  0.099946  0  1.019588  0  0  0.106643  0.098603  0  1.020033  0
H  H29  1  0.91881259  0.28538705  0.47754502  1  0  0.08671  0  0.949005  0  0  0.09924  0  1.019794  0  0  0.099932  0  1.019604  0  0  0.106628  0.098586  0  1.020057  0
H  H30  1  0.44192177  0.80409494  0.56013951  1  0  0.079087  0  0.944112  0  0  0.084464  0  1.014567  0  0  0.086854  0  1.012978  0  0  0.108799  0.082722  0  1.015703  0
H  H31  1  0.55807864  0.19590396  0.43986270  1  0  0.079082  0  0.944114  0  0  0.084456  0  1.014569  0  0  0.086846  0  1.012982  0  0  0.108787  0.082714  0  1.015705  0
H  H32  1  0.56678877  0.40129883  0.71057666  1  0  0.057553  0  1.000205  0  0  0.063415  0  1.074349  0  0  0.065204  0  1.073298  0  0  0.094069  0.062205  0  1.074816  0
H  H33  1  0.43320938  0.59870006  0.28942513  1  0  0.057567  0  1.000167  0  0  0.063425  0  1.074323  0  0  0.065215  0  1.073274  0  0  0.094081  0.06224  0  1.074753  0
H  H34  1  0.35930125  0.29908347  0.65889203  1  0  0.097259  0  0.970463  0  0  0.106404  0  1.034189  0  0  0.107975  0  1.03647  0  0  0.100707  0.105544  0  1.032317  0
H  H35  1  0.64069918  0.70091647  0.34110916  1  0  0.09726  0  0.970454  0  0  0.106392  0  1.034199  0  0  0.107961  0  1.036486  0  0  0.100707  0.105531  0  1.032327  0
H  H36  1  0.18512024  0.46451747  0.55214261  1  0  0.093464  0  0.955741  0  0  0.105212  0  1.017981  0  0  0.107956  0  1.015464  0  0  0.09892  0.103185  0  1.019702  0
H  H37  1  0.81488135  0.53548352  0.44785663  1  0  0.093388  0  0.955755  0  0  0.105178  0  1.017947  0  0  0.107921  0  1.01543  0  0  0.098893  0.103151  0  1.019668  0
C  C38  1  0.88814447  0.69460051  0.90780574  1  0  0.126305  0  3.70603  0  0  0.094618  0  3.95602  0  0  0.102197  0  3.973593  0  0  0.037835  0.089812  0  3.944344  0
C  C39  1  0.11185143  0.30539943  0.09219159  1  0  0.126283  0  3.705876  0  0  0.094587  0  3.955883  0  0  0.102176  0  3.973464  0  0  0.037803  0.089778  0  3.944203  0
C  C40  1  0.94092717  0.71300137  0.99322047  1  0  -0.113045  0  3.743724  0  0  -0.122032  0  3.988994  0  0  -0.128905  0  4.009426  0  0  -0.089022  -0.117782  0  3.975582  0
C  C41  1  0.05906878  0.28700067  0.00677555  1  0  -0.113113  0  3.743895  0  0  -0.122079  0  3.989168  0  0  -0.12896  0  4.009592  0  0  -0.089005  -0.117812  0  3.975768  0
C  C42  1  0.84708167  0.77277602  0.06095557  1  0  -0.047969  0  3.703072  0  0  -0.07287  0  3.945141  0  0  -0.069768  0  3.963198  0  0  -0.06822  -0.074773  0  3.932809  0
C  C43  1  0.15291301  0.22722079  0.93904426  1  0  -0.047953  0  3.702969  0  0  -0.072871  0  3.945048  0  0  -0.069765  0  3.963109  0  0  -0.068254  -0.074775  0  3.932714  0
C  C44  1  0.70258225  0.81422756  0.04165037  1  0  0.001076  0  3.772516  0  0  0.021413  0  4.0026  0  0  0.015951  0  4.027285  0  0  -0.004596  0.025017  0  3.985129  0
C  C45  1  0.29742036  0.18576926  0.95835058  1  0  0.001028  0  3.772503  0  0  0.021388  0  4.002568  0  0  0.015931  0  4.027251  0  0  -0.004612  0.024991  0  3.985103  0
C  C46  1  0.66000012  0.79209498  0.95332231  1  0  0.088855  0  3.693419  0  0  0.053276  0  3.937962  0  0  0.059763  0  3.957532  0  0  0.041316  0.049209  0  3.923919  0
C  C47  1  0.33999576  0.20790392  0.04667604  1  0  0.088917  0  3.693468  0  0  0.053296  0  3.938025  0  0  0.059782  0  3.957603  0  0  0.04133  0.049221  0  3.923974  0
C  C48  1  0.59705304  0.87178922  0.11463048  1  0  0.0667  0  3.770954  0  0  0.078659  0  4.001505  0  0  0.080788  0  4.025826  0  0  -0.001525  0.077409  0  3.984708  0
C  C49  1  0.40294400  0.12821073  0.88536819  1  0  0.066752  0  3.771058  0  0  0.078701  0  4.001587  0  0  0.080827  0  4.025909  0  0  -0.00151  0.077452  0  3.984789  0
C  C50  1  0.65116559  0.95271214  0.16643447  1  0  -0.111491  0  3.740803  0  0  -0.129911  0  3.988546  0  0  -0.133391  0  4.00815  0  0  -0.087725  -0.126911  0  3.974183  0
C  C51  1  0.34883591  0.04728574  0.83356486  1  0  -0.111496  0  3.740934  0  0  -0.129923  0  3.988715  0  0  -0.133403  0  4.00832  0  0  -0.087742  -0.126925  0  3.974351  0
C  C52  1  0.55522209  0.99246288  0.24592602  1  0  -0.08441  0  3.752807  0  0  -0.104116  0  3.999763  0  0  -0.103714  0  4.018829  0  0  -0.085601  -0.104223  0  3.986153  0
C  C53  1  0.44478068  0.00754021  0.75407250  1  0  -0.08435  0  3.752794  0  0  -0.104055  0  3.999747  0  0  -0.103652  0  4.018813  0  0  -0.085581  -0.104149  0  3.986153  0
C  C54  1  0.40120514  0.95294061  0.27514340  1  0  -0.018681  0  3.799901  0  0  0.001909  0  4.0355  0  0  -0.003254  0  4.058755  0  0  -0.013471  0.004618  0  4.020605  0
C  C55  1  0.59879758  0.04706039  0.72485643  1  0  -0.018651  0  3.799669  0  0  0.001882  0  4.035349  0  0  -0.003284  0  4.058598  0  0  -0.013528  0.004562  0  4.020483  0
C  C56  1  0.34448651  0.88002015  0.21844979  1  0  -0.092907  0  3.750664  0  0  -0.115298  0  3.999084  0  0  -0.115032  0  4.018303  0  0  -0.089085  -0.115746  0  3.986945  0
C  C57  1  0.65551289  0.11998291  0.78155072  1  0  -0.093003  0  3.750576  0  0  -0.115373  0  3.998965  0  0  -0.115109  0  4.018186  0  0  -0.08907  -0.115808  0  3.986839  0
C  C58  1  0.44103816  0.84003353  0.13922657  1  0  -0.102345  0  3.713168  0  0  -0.117377  0  3.957406  0  0  -0.121334  0  3.977751  0  0  -0.084263  -0.114835  0  3.943639  0
C  C59  1  0.55895995  0.15996432  0.86077324  1  0  -0.102445  0  3.713175  0  0  -0.117441  0  3.957384  0  0  -0.121399  0  3.977733  0  0  -0.084294  -0.114896  0  3.943612  0
C  C60  1  0.30875025  0.98683988  0.36634245  1  0  0.320559  0  3.704341  0  0  0.280867  0  3.977561  0  0  0.300769  0  3.988886  0  0  0.234248  0.26818  0  3.969384  0
C  C61  1  0.69125358  0.01316007  0.63365825  1  0  0.320547  0  3.704441  0  0  0.280895  0  3.977641  0  0  0.300812  0  3.988946  0  0  0.234263  0.268217  0  3.969478  0
C  C62  1  0.22399326  0.09581812  0.48064144  1  0  0.147411  0  3.842128  0  0  0.142935  0  4.090256  0  0  0.146376  0  4.113452  0  0  0.080234  0.140587  0  4.074618  0
C  C63  1  0.77601169  0.90418184  0.51935835  1  0  0.147482  0  3.841954  0  0  0.14297  0  4.090136  0  0  0.146412  0  4.113329  0  0  0.080227  0.140623  0  4.074498  0
C  C64  1  0.18748917  0.19234591  0.53410268  1  0  -0.146646  0  3.753022  0  0  -0.163046  0  4.002403  0  0  -0.165078  0  4.021801  0  0  -0.099565  -0.161541  0  3.988767  0
C  C65  1  0.81251355  0.80765508  0.46589791  1  0  -0.146559  0  3.753015  0  0  -0.162944  0  4.00244  0  0  -0.164976  0  4.021838  0  0  -0.099511  -0.16144  0  3.988802  0
C  C66  1  0.10117504  0.14403894  0.63994577  1  0  -0.086369  0  3.785484  0  0  -0.102203  0  4.042444  0  0  -0.10487  0  4.064623  0  0  -0.103969  -0.100242  0  4.027523  0
C  C67  1  0.89882545  0.85596310  0.36005411  1  0  -0.08639  0  3.785475  0  0  -0.102254  0  4.042434  0  0  -0.104926  0  4.064616  0  0  -0.103969  -0.100292  0  4.027512  0
C  C68  1  0.05188034  0.00322473  0.69173560  1  0  -0.069217  0  3.766307  0  0  -0.086582  0  4.024453  0  0  -0.088489  0  4.046709  0  0  -0.098894  -0.085415  0  4.009517  0
C  C69  1  0.94811902  0.99677729  0.30826444  1  0  -0.069145  0  3.76627  0  0  -0.086505  0  4.024422  0  0  -0.088412  0  4.046684  0  0  -0.098882  -0.085337  0  4.009486  0
C  C70  1  0.08563564  0.90596202  0.63911726  1  0  -0.13352  0  3.732379  0  0  -0.154287  0  3.991089  0  0  -0.156674  0  4.010791  0  0  -0.094622  -0.152641  0  3.978138  0
C  C71  1  0.91436369  0.09403897  0.36088231  1  0  -0.133498  0  3.732285  0  0  -0.154257  0  3.991001  0  0  -0.156644  0  4.010704  0  0  -0.094606  -0.152616  0  3.978047  0
C  C72  1  0.17134083  0.95551595  0.53283491  1  0  0.100301  0  3.789959  0  0  0.091534  0  4.032581  0  0  0.095349  0  4.055032  0  0  0.091433  0.089067  0  4.017253  0
C  C73  1  0.82866073  0.04448400  0.46716537  1  0  0.100205  0  3.790014  0  0  0.091431  0  4.032705  0  0  0.095248  0  4.055155  0  0  0.091383  0.088964  0  4.017378  0
C  C74  1  0.19939803  0.74212886  0.47960116  1  0  -0.032668  0  3.680106  0  0  -0.098494  0  3.921438  0  0  -0.093783  0  3.933589  0  0  -0.047733  -0.101302  0  3.912713  0
C  C75  1  0.80060356  0.25787213  0.52039808  1  0  -0.032593  0  3.680106  0  0  -0.098393  0  3.921428  0  0  -0.093682  0  3.93358  0  0  -0.047662  -0.101203  0  3.912703  0
C  C76  1  0.30220631  0.64670323  0.54604428  1  0  0.02678  0  3.735892  0  0  0.05189  0  3.975803  0  0  0.047195  0  3.999515  0  0  -0.008212  0.054736  0  3.959628  0
C  C77  1  0.69779523  0.35329566  0.45395852  1  0  0.026731  0  3.735918  0  0  0.051833  0  3.975844  0  0  0.047141  0  3.999548  0  0  -0.008245  0.054678  0  3.959669  0
C  C78  1  0.41960993  0.69311710  0.57933935  1  0  0.072831  0  3.705244  0  0  0.031669  0  3.963721  0  0  0.038227  0  3.980903  0  0  0.034735  0.027662  0  3.95191  0
C  C79  1  0.58039051  0.30688283  0.42066333  1  0  0.072837  0  3.705221  0  0  0.031685  0  3.963674  0  0  0.038242  0  3.980858  0  0  0.03475  0.02768  0  3.951862  0
C  C80  1  0.48895067  0.46775593  0.66388307  1  0  0.120143  0  3.735208  0  0  0.088814  0  3.982289  0  0  0.095482  0  4.001429  0  0  0.03472  0.084713  0  3.969277  0
C  C81  1  0.51104743  0.53224087  0.33612078  1  0  0.119994  0  3.735281  0  0  0.088675  0  3.982354  0  0  0.095341  0  4.001497  0  0  0.034627  0.084565  0  3.969335  0
C  C82  1  0.37358839  0.41168116  0.63490225  1  0  -0.104259  0  3.728843  0  0  -0.113156  0  3.975539  0  0  -0.119703  0  3.998211  0  0  -0.085578  -0.109296  0  3.960374  0
C  C83  1  0.62640974  0.58831668  0.36510057  1  0  -0.104216  0  3.728871  0  0  -0.113126  0  3.975611  0  0  -0.119674  0  3.998281  0  0  -0.085559  -0.109266  0  3.960447  0
C  C84  1  0.27824038  0.50264470  0.57602948  1  0  -0.052047  0  3.70236  0  0  -0.077506  0  3.946358  0  0  -0.07492  0  3.964521  0  0  -0.071713  -0.078742  0  3.933642  0
C  C85  1  0.72175777  0.49735419  0.42397231  1  0  -0.051966  0  3.702359  0  0  -0.07744  0  3.946341  0  0  -0.074858  0  3.964515  0  0  -0.071683  -0.078675  0  3.933624  0
I  I86  1  0.65162760  0.37392687  0.10422503  1  0  -0.519431  0  1.00642  0  0  -0.473324  0  1.315364  0  0  -0.49457  0  1.299417  0  0  -0.269904  -0.458093  0  1.32428  0
I  I87  1  0.34837382  0.62606786  0.89577664  1  0  -0.519429  0  1.006431  0  0  -0.473332  0  1.315385  0  0  -0.494574  0  1.299435  0  0  -0.269914  -0.458089  0  1.324283  0
I  I88  1  0.12464081  0.51484811  0.27532135  1  0  -0.518902  0  0.924716  0  0  -0.464648  0  1.227549  0  0  -0.482136  0  1.205307  0  0  -0.245371  -0.452905  0  1.242873  0
I  I89  1  0.87536416  0.48515397  0.72467263  1  0  -0.518911  0  0.924718  0  0  -0.464662  0  1.22755  0  0  -0.482144  0  1.205309  0  0  -0.245367  -0.452916  0  1.242872  0
N  N90  1  0.75018951  0.73421842  0.88802509  1  0  -0.321091  0  3.283258  0  0  -0.241149  0  3.543715  0  0  -0.26154  0  3.565018  0  0  -0.331715  -0.227213  0  3.52892  0
N  N91  1  0.24980643  0.26578257  0.11197347  1  0  -0.32116  0  3.283039  0  0  -0.241188  0  3.543508  0  0  -0.261586  0  3.56481  0  0  -0.331718  -0.227244  0  3.528713  0
N  N92  1  0.30880231  0.11199506  0.37730856  1  0  -0.449886  0  3.125737  0  0  -0.388427  0  3.407794  0  0  -0.409688  0  3.421036  0  0  -0.347984  -0.374317  0  3.398144  0
N  N93  1  0.69120041  0.88800594  0.62269202  1  0  -0.44993  0  3.125644  0  0  -0.388444  0  3.407683  0  0  -0.40971  0  3.420917  0  0  -0.348024  -0.374335  0  3.398033  0
N  N94  1  0.22459703  0.88955732  0.45796199  1  0  -0.154871  0  3.492674  0  0  -0.067421  0  3.709682  0  0  -0.085049  0  3.733562  0  0  -0.234564  -0.055812  0  3.693326  0
N  N95  1  0.77540677  0.11044159  0.54203899  1  0  -0.154856  0  3.492765  0  0  -0.067457  0  3.709832  0  0  -0.08509  0  3.733709  0  0  -0.234553  -0.055846  0  3.693472  0
N  N96  1  0.51083723  0.60527947  0.63743330  1  0  -0.331019  0  3.308099  0  0  -0.252152  0  3.561523  0  0  -0.271244  0  3.582759  0  0  -0.335995  -0.239325  0  3.546857  0
N  N97  1  0.48916096  0.39472045  0.36256971  1  0  -0.330887  0  3.308063  0  0  -0.252022  0  3.561467  0  0  -0.271112  0  3.582699  0  0  -0.335912  -0.239199  0  3.546808  0
