# generated using pymatgen
data_CdH6(CO3)2
_symmetry_space_group_name_H-M   'P 1'
_cell_length_a   7.29461527
_cell_length_b   9.01965896
_cell_length_c   9.84000916
_cell_angle_alpha   82.60089512
_cell_angle_beta   89.99967934
_cell_angle_gamma   89.99905658
_symmetry_Int_Tables_number   1
_chemical_formula_structural   CdH6(CO3)2
_chemical_formula_sum   'Cd4 H24 C8 O24'
_cell_volume   642.03185458
_cell_formula_units_Z   4
loop_
 _symmetry_equiv_pos_site_id
 _symmetry_equiv_pos_as_xyz
  1  'x, y, z'
loop_
 _atom_site_type_symbol
 _atom_site_label
 _atom_site_symmetry_multiplicity
 _atom_site_fract_x
 _atom_site_fract_y
 _atom_site_fract_z
 _atom_site_occupancy
 _atom_site_pbe_bader_charge
 _atom_site_pbe_bader_spin_density
 _atom_site_pbe_cm5_charge
 _atom_site_pbe_ddec_charge
 _atom_site_pbe_ddec_spin_density
 _atom_site_pbe_ddec_sum_bond_order
 _atom_site_pbe_magmom
Cd  Cd0  1  0.49999942  0.00000052  0.49999917  1  1.352648  0  0.780199  1.004637  0  2.153903  0
Cd  Cd1  1  0.00000000  0.00000000  0.00000000  1  1.352643  0  0.780192  1.004571  0  2.15382  0
Cd  Cd2  1  0.99999960  0.49999930  0.49999935  1  1.338438  0  0.762468  1.076026  0  2.026864  0
Cd  Cd3  1  0.49999903  0.49999982  0.99999954  1  1.338376  0  0.762455  1.076017  0  2.026864  0
H  H4  1  0.74954526  0.07079375  0.74453706  1  0.131551  0  0.113134  0.024794  0  1.022529  0
H  H5  1  0.24954891  0.92922491  0.75548464  1  0.131772  0  0.113086  0.024656  0  1.022708  0
H  H6  1  0.25045459  0.92921261  0.25546521  1  0.131616  0  0.113099  0.024738  0  1.022675  0
H  H7  1  0.75045505  0.07077363  0.24451754  1  0.131822  0  0.113083  0.02469  0  1.022678  0
H  H8  1  0.46218397  0.32809031  0.62894754  1  0.154419  0  0.113452  0.034366  0  1.016202  0
H  H9  1  0.96218692  0.67191760  0.87105311  1  0.154448  0  0.113463  0.034396  0  1.016163  0
H  H10  1  0.53781451  0.67190710  0.37105273  1  0.15443  0  0.113452  0.034373  0  1.016207  0
H  H11  1  0.03781019  0.32808093  0.12894906  1  0.154311  0  0.113472  0.034405  0  1.016147  0
H  H12  1  0.08077505  0.19935309  0.48368278  1  0.632028  0  0.284709  0.379174  0  0.959035  0
H  H13  1  0.58077605  0.80064285  0.01633801  1  0.632014  0  0.28468  0.379193  0  0.95902  0
H  H14  1  0.91922206  0.80064544  0.51631838  1  0.632187  0  0.284701  0.379172  0  0.959043  0
H  H15  1  0.41922380  0.19935680  0.98366099  1  0.632017  0  0.284712  0.379235  0  0.958955  0
H  H16  1  0.86844567  0.23645904  0.45763868  1  0.641932  0  0.280078  0.365752  0  0.985359  0
H  H17  1  0.36844900  0.76353416  0.04237975  1  0.642086  0  0.280104  0.365814  0  0.985296  0
H  H18  1  0.13155144  0.76354285  0.54236818  1  0.642018  0  0.280116  0.365776  0  0.985337  0
H  H19  1  0.63155085  0.23646661  0.95762013  1  0.642084  0  0.280109  0.365807  0  0.985305  0
H  H20  1  0.10625507  0.29593086  0.73143692  1  0.635483  0  0.288147  0.379382  0  0.960675  0
H  H21  1  0.60627430  0.70407184  0.76857072  1  0.635559  0  0.28817  0.379412  0  0.960621  0
H  H22  1  0.89374478  0.70406208  0.26856185  1  0.635539  0  0.288196  0.37946  0  0.960559  0
H  H23  1  0.39373377  0.29593339  0.23143066  1  0.635528  0  0.288206  0.379472  0  0.960543  0
H  H24  1  0.15524814  0.45747305  0.77475615  1  0.655402  0  0.288136  0.388987  0  0.947813  0
H  H25  1  0.65525624  0.54252975  0.72524390  1  0.655419  0  0.288152  0.388991  0  0.947797  0
H  H26  1  0.84475034  0.54251877  0.22524478  1  0.655339  0  0.288127  0.388941  0  0.94787  0
H  H27  1  0.34474499  0.45747661  0.27475531  1  0.655402  0  0.288134  0.388965  0  0.947845  0
C  C28  1  0.68698867  0.96522843  0.79229283  1  1.533577  0  0.151728  0.491694  0  4.177722  0
C  C29  1  0.18698581  0.03478338  0.70771705  1  1.533094  0  0.151913  0.491998  0  4.177548  0
C  C30  1  0.31301118  0.03477793  0.20770741  1  1.533211  0  0.151829  0.491761  0  4.177748  0
C  C31  1  0.81301815  0.96521403  0.29228526  1  1.53313  0  0.151877  0.491888  0  4.177683  0
C  C32  1  0.60058594  0.33178054  0.58265444  1  1.515637  0  0.153772  0.502498  0  4.169148  0
C  C33  1  0.10058985  0.66822214  0.91734614  1  1.515696  0  0.153779  0.502497  0  4.168976  0
C  C34  1  0.39941117  0.66821910  0.41734557  1  1.515589  0  0.153718  0.502456  0  4.169269  0
C  C35  1  0.89940863  0.33177527  0.08265414  1  1.51574  0  0.15373  0.502464  0  4.168903  0
O  O36  1  0.57732831  0.89744392  0.72122301  1  -1.185586  0  -0.313554  -0.512937  0  2.354085  0
O  O37  1  0.07731589  0.10257325  0.77877506  1  -1.185436  0  -0.313581  -0.51295  0  2.354059  0
O  O38  1  0.42267291  0.10256355  0.27877608  1  -1.185258  0  -0.313618  -0.512953  0  2.353953  0
O  O39  1  0.92268670  0.89742416  0.22122724  1  -1.185476  0  -0.31359  -0.51296  0  2.354128  0
O  O40  1  0.22995337  0.08274434  0.58464361  1  -1.177674  0  -0.31559  -0.510059  0  2.3466  0
O  O41  1  0.72995299  0.91725303  0.91536148  1  -1.177884  0  -0.315476  -0.509897  0  2.346744  0
O  O42  1  0.77004785  0.91725419  0.41535857  1  -1.177763  0  -0.315555  -0.510008  0  2.346617  0
O  O43  1  0.27004823  0.08274886  0.08463827  1  -1.177888  0  -0.315502  -0.509919  0  2.346734  0
O  O44  1  0.70114410  0.44303770  0.59779892  1  -1.180172  0  -0.309599  -0.516962  0  2.32486  0
O  O45  1  0.20114716  0.55696408  0.90219778  1  -1.180233  0  -0.309593  -0.516959  0  2.32486  0
O  O46  1  0.29885027  0.55696530  0.40219968  1  -1.18012  0  -0.309581  -0.516937  0  2.324898  0
O  O47  1  0.79884858  0.44303110  0.09780377  1  -1.180062  0  -0.309584  -0.516926  0  2.324843  0
O  O48  1  0.64969969  0.22436771  0.51777790  1  -1.189728  0  -0.323382  -0.535747  0  2.355333  0
O  O49  1  0.14970335  0.77563061  0.98222579  1  -1.189756  0  -0.323413  -0.535768  0  2.355197  0
O  O50  1  0.35030153  0.77563194  0.48222313  1  -1.189776  0  -0.323339  -0.535729  0  2.355369  0
O  O51  1  0.85029788  0.22436904  0.01777015  1  -1.189861  0  -0.323366  -0.535765  0  2.355108  0
O  O52  1  0.99503978  0.26550979  0.42497676  1  -1.249499  0  -0.590802  -0.755263  0  2.042652  0
O  O53  1  0.49504439  0.73448144  0.07504071  1  -1.249549  0  -0.590784  -0.755359  0  2.042666  0
O  O54  1  0.00495596  0.73448874  0.57502440  1  -1.249709  0  -0.59085  -0.755305  0  2.042688  0
O  O55  1  0.50495683  0.26551821  0.92495828  1  -1.249556  0  -0.590825  -0.755396  0  2.042633  0
O  O56  1  0.14598082  0.39857186  0.69554028  1  -1.262776  0  -0.591665  -0.776148  0  2.095045  0
O  O57  1  0.64599071  0.60142645  0.80446141  1  -1.262852  0  -0.591714  -0.776168  0  2.094966  0
O  O58  1  0.85401766  0.60142220  0.30445937  1  -1.262764  0  -0.591691  -0.776152  0  2.094982  0
O  O59  1  0.35400914  0.39857655  0.19553821  1  -1.262803  0  -0.591725  -0.776194  0  2.094949  0
