# generated using pymatgen
data_ZnH8C11NO4
_symmetry_space_group_name_H-M   'P 1'
_cell_length_a   10.31669798
_cell_length_b   11.09157630
_cell_length_c   12.54548433
_cell_angle_alpha   55.68379612
_cell_angle_beta   87.08633035
_cell_angle_gamma   66.93800328
_symmetry_Int_Tables_number   1
_chemical_formula_structural   ZnH8C11NO4
_chemical_formula_sum   'Zn4 H32 C44 N4 O16'
_cell_volume   1063.27670642
_cell_formula_units_Z   4
loop_
 _symmetry_equiv_pos_site_id
 _symmetry_equiv_pos_as_xyz
  1  'x, y, z'
loop_
 _atom_site_type_symbol
 _atom_site_label
 _atom_site_symmetry_multiplicity
 _atom_site_fract_x
 _atom_site_fract_y
 _atom_site_fract_z
 _atom_site_occupancy
 _atom_site_pbe_bader_charge
 _atom_site_pbe_bader_spin_density
 _atom_site_pbe_cm5_charge
 _atom_site_pbe_ddec_charge
 _atom_site_pbe_ddec_spin_density
 _atom_site_pbe_ddec_sum_bond_order
 _atom_site_pbe_magmom
Zn  Zn0  1  0.15414562  0.39880820  0.24886835  1  1.273459  0  0.67799  0.866013  0  2.353679  0
Zn  Zn1  1  0.15786457  0.45848511  0.97342907  1  1.34497  0  0.660598  0.930144  0  2.306083  0
Zn  Zn2  1  0.84586226  0.60119844  0.75112928  1  1.273598  0  0.678011  0.866016  0  2.353561  0
Zn  Zn3  1  0.84212435  0.54152036  0.02657158  1  1.344942  0  0.660605  0.930261  0  2.306219  0
H  H4  1  0.11525687  0.87985710  0.12156584  1  0.095015  0  0.103384  0.109165  0  1.031701  0
H  H5  1  0.31660242  0.17464444  0.85443567  1  0.093554  0  0.10573  0.112832  0  1.054367  0
H  H6  1  0.31857782  0.78612667  0.85225898  1  0.086512  0  0.105479  0.120454  0  1.038045  0
H  H7  1  0.35418361  0.92671795  0.66233496  1  0.056316  0  0.104296  0.07901  0  1.020951  0
H  H8  1  0.43818765  0.05566847  0.57064013  1  0.126042  0  0.110628  0.109548  0  1.004784  0
H  H9  1  0.18443379  0.75032164  0.70973614  1  0.102085  0  0.118304  0.088629  0  0.982387  0
H  H10  1  0.35323844  0.78364969  0.55444559  1  0.078329  0  0.109979  0.120436  0  0.988189  0
H  H11  1  0.58065071  0.25868613  0.79392431  1  0.099943  0  0.10787  0.116999  0  1.029645  0
H  H12  1  0.41169785  0.25044267  0.94151398  1  0.138546  0  0.120117  0.094863  0  1.019327  0
H  H13  1  0.56705105  0.65959933  0.49110038  1  0.080233  0  0.109252  0.112801  0  0.989975  0
H  H14  1  0.73012722  0.28630662  0.69143544  1  0.07872  0  0.106319  0.101818  0  1.037725  0
H  H15  1  0.73995851  0.67005963  0.38224315  1  0.141295  0  0.108213  0.114278  0  1.046496  0
H  H16  1  0.93372859  0.64499299  0.25965072  1  0.150139  0  0.119141  0.095058  0  1.032079  0
H  H17  1  0.12892287  0.14255617  0.52151224  1  0.101307  0  0.117594  0.084607  0  0.995164  0
H  H18  1  0.94219092  0.14401837  0.65713650  1  0.121279  0  0.113634  0.132108  0  0.99762  0
H  H19  1  0.88473807  0.12012489  0.87844747  1  0.095175  0  0.103411  0.109158  0  1.031842  0
H  H20  1  0.68337634  0.82536481  0.14556391  1  0.09346  0  0.105753  0.112819  0  1.054331  0
H  H21  1  0.68142358  0.21387164  0.14774886  1  0.08637  0  0.105554  0.120604  0  1.037916  0
H  H22  1  0.64579796  0.07330476  0.33766935  1  0.05656  0  0.104313  0.078974  0  1.020979  0
H  H23  1  0.56179703  0.94435107  0.42936293  1  0.125967  0  0.110584  0.109619  0  1.004722  0
H  H24  1  0.81557560  0.24967561  0.29025807  1  0.101992  0  0.118278  0.08856  0  0.98248  0
H  H25  1  0.64676884  0.21633762  0.44554883  1  0.078529  0  0.109986  0.120451  0  0.988011  0
H  H26  1  0.41934740  0.74129984  0.20607272  1  0.099599  0  0.107819  0.116875  0  1.029523  0
H  H27  1  0.58830478  0.74955200  0.05848324  1  0.138574  0  0.120104  0.094832  0  1.019373  0
H  H28  1  0.43294908  0.34038354  0.50888899  1  0.078943  0  0.109297  0.11282  0  0.989885  0
H  H29  1  0.26988229  0.71368257  0.30856051  1  0.078796  0  0.106312  0.101829  0  1.037676  0
H  H30  1  0.26003071  0.32993211  0.61775997  1  0.141088  0  0.108172  0.114188  0  1.046637  0
H  H31  1  0.06626787  0.35501553  0.74034428  1  0.150122  0  0.119169  0.095094  0  1.032077  0
H  H32  1  0.87108842  0.85745405  0.47847731  1  0.101395  0  0.117589  0.084637  0  0.995161  0
H  H33  1  0.05782465  0.85598079  0.34286466  1  0.121169  0  0.11363  0.132162  0  0.997544  0
H  H34  1  0.08284129  0.26392429  0.16302356  1  0.654628  0  0.27311  0.371511  0  0.973789  0
H  H35  1  0.91715268  0.73608817  0.83696832  1  0.654714  0  0.273146  0.371592  0  0.973691  0
C  C36  1  0.18532349  0.67711008  0.04577799  1  1.583608  0  0.219632  0.601885  0  4.146292  0
C  C37  1  0.21457633  0.82125548  0.99088219  1  -0.004502  0  -0.016424  -0.006172  0  3.984372  0
C  C38  1  0.17528623  0.90948450  0.04368523  1  -0.04031  0  -0.091167  -0.153506  0  3.98864  0
C  C39  1  0.21167857  0.03805591  0.99399707  1  0.00338  0  -0.01878  -0.013539  0  3.969145  0
C  C40  1  0.28731793  0.07550068  0.89268987  1  -0.013829  0  -0.097231  -0.209849  0  3.940191  0
C  C41  1  0.32350198  0.98977307  0.83764823  1  0.445788  0  0.081181  0.255123  0  4.073898  0
C  C42  1  0.28784202  0.86119668  0.88736448  1  -0.063198  0  -0.101442  -0.225274  0  3.953557  0
C  C43  1  0.43407040  0.96536625  0.67145658  1  0.389519  0  -0.068866  -0.126192  0  3.902045  0
C  C44  1  0.58146960  0.81674064  0.74364335  1  1.618506  0  0.206482  0.602083  0  4.161557  0
C  C45  1  0.16847450  0.14195181  0.04365436  1  1.590201  0  0.206086  0.588798  0  4.186784  0
C  C46  1  0.27545366  0.64518691  0.72448420  1  0.475672  0  0.04629  0.090814  0  3.966165  0
C  C47  1  0.36955417  0.66262629  0.63886450  1  -0.045792  0  -0.083897  -0.184851  0  3.93848  0
C  C48  1  0.48555581  0.52360246  0.66167038  1  0.011106  0  0.008984  0.148189  0  4.01149  0
C  C49  1  0.49655418  0.37236069  0.77059092  1  -0.027582  0  -0.07688  -0.162977  0  3.906989  0
C  C50  1  0.40086159  0.36574077  0.85285376  1  0.453997  0  0.048416  0.101968  0  3.93736  0
C  C51  1  0.58985348  0.53695147  0.57764172  1  -0.004544  0  -0.070388  -0.099321  0  3.918509  0
C  C52  1  0.71059564  0.40710524  0.60453448  1  -0.027387  0  -0.073993  -0.106167  0  3.936654  0
C  C53  1  0.82199597  0.40785728  0.52926589  1  -0.006239  0  0.013909  0.156013  0  4.002811  0
C  C54  1  0.82300315  0.55000981  0.41705263  1  -0.058627  0  -0.078423  -0.168822  0  3.906806  0
C  C55  1  0.93120955  0.53794166  0.34867776  1  0.445692  0  0.04731  0.101949  0  3.932387  0
C  C56  1  0.04039861  0.25621523  0.49500285  1  0.44148  0  0.04386  0.089191  0  3.975766  0
C  C57  1  0.93670550  0.25795299  0.56946790  1  -0.026304  0  -0.078305  -0.176579  0  3.907176  0
C  C58  1  0.81468087  0.32289014  0.95421283  1  1.583503  0  0.219542  0.60174  0  4.146404  0
C  C59  1  0.78541934  0.17874773  0.00912389  1  -0.004433  0  -0.016342  -0.006039  0  3.984108  0
C  C60  1  0.82471232  0.09050861  0.95632732  1  -0.040937  0  -0.091195  -0.153556  0  3.988492  0
C  C61  1  0.78831188  0.96194053  0.00601047  1  0.004527  0  -0.018918  -0.013632  0  3.968878  0
C  C62  1  0.71267513  0.92449659  0.10731880  1  -0.013741  0  -0.097108  -0.209697  0  3.939705  0
C  C63  1  0.67649932  0.01022820  0.16236159  1  0.445889  0  0.081225  0.255166  0  4.07385  0
C  C64  1  0.71215575  0.13880362  0.11264512  1  -0.063648  0  -0.101565  -0.225508  0  3.953564  0
C  C65  1  0.56592854  0.03464121  0.32854999  1  0.389168  0  -0.068764  -0.12623  0  3.901997  0
C  C66  1  0.41852335  0.18327396  0.25633080  1  1.62006  0  0.206706  0.60243  0  4.161594  0
C  C67  1  0.83151761  0.85806538  0.95633002  1  1.589357  0  0.206001  0.588826  0  4.186783  0
C  C68  1  0.72455168  0.35480818  0.27551030  1  0.48318  0  0.04637  0.090975  0  3.96615  0
C  C69  1  0.63045488  0.33736665  0.36112910  1  -0.05357  0  -0.083942  -0.184904  0  3.938369  0
C  C70  1  0.51444822  0.47638579  0.33832542  1  0.01081  0  0.009061  0.148192  0  4.011366  0
C  C71  1  0.50344953  0.62763100  0.22940427  1  -0.026827  0  -0.076923  -0.162859  0  3.906932  0
C  C72  1  0.59913932  0.63425321  0.14714143  1  0.453682  0  0.048471  0.102008  0  3.937656  0
C  C73  1  0.41014956  0.46303935  0.42235226  1  -0.003189  0  -0.070533  -0.09934  0  3.918615  0
C  C74  1  0.28941840  0.59287470  0.39546910  1  -0.027957  0  -0.073933  -0.106184  0  3.936906  0
C  C75  1  0.17801450  0.59212704  0.47073846  1  -0.006341  0  0.013901  0.155906  0  4.003061  0
C  C76  1  0.17699655  0.44998236  0.58294658  1  -0.058214  0  -0.078368  -0.168606  0  3.906751  0
C  C77  1  0.06879198  0.46206110  0.65131777  1  0.445754  0  0.047236  0.101778  0  3.932375  0
C  C78  1  0.95961553  0.74378515  0.50499788  1  0.441407  0  0.04381  0.089082  0  3.97594  0
C  C79  1  0.06331215  0.74203806  0.43053491  1  -0.025792  0  -0.078268  -0.176599  0  3.907184  0
N  N80  1  0.29105630  0.49938310  0.83087267  1  -1.232735  0  -0.316952  -0.218131  0  3.489897  0
N  N81  1  0.03748062  0.39343338  0.38522421  1  -1.25784  0  -0.337021  -0.250998  0  3.579166  0
N  N82  1  0.70894880  0.50061527  0.16912210  1  -1.23258  0  -0.316955  -0.218164  0  3.489978  0
N  N83  1  0.96253065  0.60656945  0.61477564  1  -1.257556  0  -0.33692  -0.250849  0  3.57925  0
O  O84  1  0.15604483  0.61271509  0.16099626  1  -1.169323  0  -0.317089  -0.543004  0  2.34043  0
O  O85  1  0.19559077  0.62611569  0.97620813  1  -1.184006  0  -0.309627  -0.554733  0  2.39686  0
O  O86  1  0.38954612  0.04577084  0.73331044  1  -1.095744  0  -0.184892  -0.189952  0  2.580441  0
O  O87  1  0.62605537  0.74497841  0.86400253  1  -1.184882  0  -0.296231  -0.531626  0  2.280408  0
O  O88  1  0.64627330  0.77945851  0.66805729  1  -1.186061  0  -0.338749  -0.575889  0  2.296721  0
O  O89  1  0.16140192  0.28408790  0.95847476  1  -1.193765  0  -0.330704  -0.584694  0  2.403029  0
O  O90  1  0.14231712  0.08771106  0.15731994  1  -1.18029  0  -0.334812  -0.556023  0  2.079231  0
O  O91  1  0.05337312  0.37500685  0.13875967  1  -1.278348  0  -0.571952  -0.857976  0  2.297787  0
O  O92  1  0.84395957  0.38728557  0.83901045  1  -1.169794  0  -0.31704  -0.542892  0  2.340875  0
O  O93  1  0.80441527  0.37388326  0.02380162  1  -1.183742  0  -0.309599  -0.554739  0  2.396453  0
O  O94  1  0.61047239  0.95421355  0.26671680  1  -1.095641  0  -0.185127  -0.19013  0  2.580779  0
O  O95  1  0.37395374  0.25502527  0.13600511  1  -1.18557  0  -0.296276  -0.531546  0  2.281183  0
O  O96  1  0.35373168  0.22055083  0.33194418  1  -1.186779  0  -0.338865  -0.576259  0  2.296239  0
O  O97  1  0.83861387  0.71590788  0.04152055  1  -1.193487  0  -0.330731  -0.58478  0  2.402672  0
O  O98  1  0.85763613  0.91232952  0.84266307  1  -1.179985  0  -0.334674  -0.555929  0  2.079672  0
O  O99  1  0.94661424  0.62499796  0.86125098  1  -1.27856  0  -0.571972  -0.858161  0  2.298023  0
