# generated using pymatgen
data_GdP2H13C6NO11
_symmetry_space_group_name_H-M   'P 1'
_cell_length_a   8.69507578
_cell_length_b   9.63165959
_cell_length_c   9.58084557
_cell_angle_alpha   109.38247076
_cell_angle_beta   95.62888214
_cell_angle_gamma   111.54495649
_symmetry_Int_Tables_number   1
_chemical_formula_structural   GdP2H13C6NO11
_chemical_formula_sum   'Gd2 P4 H26 C12 N2 O22'
_cell_volume   681.53552685
_cell_formula_units_Z   2
loop_
 _symmetry_equiv_pos_site_id
 _symmetry_equiv_pos_as_xyz
  1  'x, y, z'
loop_
 _atom_site_type_symbol
 _atom_site_label
 _atom_site_symmetry_multiplicity
 _atom_site_fract_x
 _atom_site_fract_y
 _atom_site_fract_z
 _atom_site_occupancy
 _atom_site_hle17_bader_spin_density
 _atom_site_hle17_ddec_charge
 _atom_site_hle17_ddec_spin_density
 _atom_site_hle17_ddec_sum_bond_order
 _atom_site_hle17_magmom
 _atom_site_hse06_10hf_bader_spin_density
 _atom_site_hse06_10hf_ddec_charge
 _atom_site_hse06_10hf_ddec_spin_density
 _atom_site_hse06_10hf_ddec_sum_bond_order
 _atom_site_hse06_10hf_magmom
 _atom_site_hse06_bader_spin_density
 _atom_site_hse06_ddec_charge
 _atom_site_hse06_ddec_spin_density
 _atom_site_hse06_ddec_sum_bond_order
 _atom_site_hse06_magmom
 _atom_site_pbe_bader_spin_density
 _atom_site_pbe_cm5_charge
 _atom_site_pbe_ddec_charge
 _atom_site_pbe_ddec_spin_density
 _atom_site_pbe_ddec_sum_bond_order
 _atom_site_pbe_magmom
Gd  Gd0  1  0.62603917  0.73815224  0.82573350  1  0  2.243144  0  1.774569  0  0  2.159079  0  2.120641  0  0  2.203491  0  2.076577  0  0  1.489016  2.122292  0  2.160133  0
Gd  Gd1  1  0.37395272  0.26184605  0.17426499  1  0  2.243175  0  1.774749  0  0  2.159103  0  2.120821  0  0  2.203523  0  2.076753  0  0  1.489024  2.122307  0  2.160329  0
P  P2  1  0.73273257  0.49450751  0.51136551  1  0  1.578273  0  4.686293  0  0  1.424875  0  5.19545  0  0  1.476424  0  5.152309  0  0  0.395045  1.389037  0  5.223192  0
P  P3  1  0.26725671  0.50548240  0.48863737  1  0  1.578434  0  4.686311  0  0  1.425068  0  5.195406  0  0  1.476621  0  5.152266  0  0  0.395145  1.389231  0  5.223155  0
P  P4  1  0.80372463  0.01579274  0.62715187  1  0  1.50645  0  4.781489  0  0  1.349415  0  5.295833  0  0  1.399454  0  5.256009  0  0  0.374784  1.314953  0  5.322005  0
P  P5  1  0.19628436  0.98420478  0.37284521  1  0  1.506597  0  4.78128  0  0  1.349578  0  5.295578  0  0  1.399614  0  5.255756  0  0  0.374852  1.315112  0  5.321752  0
H  H6  1  0.65525356  0.35420939  0.73533029  1  0  0.281822  0  0.896768  0  0  0.265108  0  0.955398  0  0  0.274051  0  0.949126  0  0  0.316457  0.259311  0  0.959102  0
H  H7  1  0.34474609  0.64578554  0.26467013  1  0  0.28182  0  0.896835  0  0  0.265106  0  0.955467  0  0  0.274048  0  0.949195  0  0  0.316461  0.259309  0  0.959172  0
H  H8  1  0.00158820  0.62423370  0.55023885  1  0  0.414587  0  0.828653  0  0  0.395112  0  0.887213  0  0  0.403979  0  0.876971  0  0  0.340071  0.388742  0  0.894776  0
H  H9  1  0.99839514  0.37580625  0.44975809  1  0  0.414642  0  0.828759  0  0  0.395192  0  0.887241  0  0  0.40406  0  0.877  0  0  0.340069  0.388829  0  0.894784  0
H  H10  1  0.85661804  0.93615599  0.39585158  1  0  0.448753  0  0.834835  0  0  0.415245  0  0.900925  0  0  0.426849  0  0.884108  0  0  0.313116  0.406965  0  0.91296  0
H  H11  1  0.14339495  0.06384286  0.60414742  1  0  0.448724  0  0.834902  0  0  0.415214  0  0.900971  0  0  0.426819  0  0.884153  0  0  0.313117  0.406935  0  0.913008  0
H  H12  1  0.01505675  0.86077956  0.96454902  1  0  0.446081  0  0.82312  0  0  0.420032  0  0.884865  0  0  0.430306  0  0.869333  0  0  0.317899  0.412632  0  0.896081  0
H  H13  1  0.98493043  0.13921017  0.03544416  1  0  0.446022  0  0.823109  0  0  0.41997  0  0.884927  0  0  0.430244  0  0.869394  0  0  0.317866  0.412569  0  0.896143  0
H  H14  1  0.93565695  0.85359172  0.10502606  1  0  0.451514  0  0.836779  0  0  0.420894  0  0.898424  0  0  0.431603  0  0.882867  0  0  0.303036  0.413322  0  0.909395  0
H  H15  1  0.06433955  0.14639827  0.89496932  1  0  0.451509  0  0.836785  0  0  0.420913  0  0.898407  0  0  0.431623  0  0.882847  0  0  0.303015  0.41334  0  0.90938  0
H  H16  1  0.89761774  0.31941509  0.95961841  1  0  0.071984  0  0.958092  0  0  0.088913  0  1.021469  0  0  0.089751  0  1.021794  0  0  0.096251  0.088176  0  1.021516  0
H  H17  1  0.10237824  0.68059907  0.04039491  1  0  0.07196  0  0.958029  0  0  0.088941  0  1.021374  0  0  0.089782  0  1.021701  0  0  0.096245  0.088203  0  1.021428  0
H  H18  1  0.81155098  0.46369719  0.98313008  1  0  0.080024  0  0.946477  0  0  0.098971  0  1.002221  0  0  0.099503  0  1.003314  0  0  0.102162  0.098384  0  1.00183  0
H  H19  1  0.18845537  0.53632666  0.01687179  1  0  0.0799  0  0.94654  0  0  0.098865  0  1.002307  0  0  0.099399  0  1.003402  0  0  0.102139  0.098278  0  1.001915  0
H  H20  1  0.00238574  0.36932385  0.73996292  1  0  0.102945  0  0.939199  0  0  0.115411  0  0.996817  0  0  0.117193  0  0.996082  0  0  0.114185  0.114121  0  0.997356  0
H  H21  1  0.99761862  0.63067966  0.26004281  1  0  0.102893  0  0.939255  0  0  0.115381  0  0.996866  0  0  0.117161  0  0.996133  0  0  0.114179  0.114091  0  0.997405  0
H  H22  1  0.94338240  0.53505818  0.77779831  1  0  0.094427  0  0.941919  0  0  0.108851  0  1.000704  0  0  0.110661  0  0.999577  0  0  0.118615  0.107524  0  1.001546  0
H  H23  1  0.05662050  0.46494396  0.22219847  1  0  0.094413  0  0.941893  0  0  0.108865  0  1.000672  0  0  0.110674  0  0.999544  0  0  0.118592  0.107533  0  1.001524  0
H  H24  1  0.67446732  0.15038579  0.79947500  1  0  0.14275  0  0.942195  0  0  0.151269  0  1.005548  0  0  0.153655  0  1.00505  0  0  0.130164  0.149558  0  1.005968  0
H  H25  1  0.32555030  0.84961321  0.20052667  1  0  0.14273  0  0.942074  0  0  0.151232  0  1.005482  0  0  0.153618  0  1.004983  0  0  0.130134  0.149518  0  1.005904  0
H  H26  1  0.55008044  0.06531876  0.61279309  1  0  0.133215  0  0.949216  0  0  0.145284  0  1.009937  0  0  0.147413  0  1.009525  0  0  0.124196  0.143694  0  1.010174  0
H  H27  1  0.44992942  0.93467894  0.38721564  1  0  0.133178  0  0.949328  0  0  0.145256  0  1.010026  0  0  0.147384  0  1.009616  0  0  0.124163  0.143662  0  1.010265  0
H  H28  1  0.77193923  0.23722896  0.45525209  1  0  0.140504  0  0.943843  0  0  0.150875  0  1.00236  0  0  0.154069  0  1.000239  0  0  0.123365  0.148837  0  1.003518  0
H  H29  1  0.22806761  0.76277220  0.54475319  1  0  0.140523  0  0.943793  0  0  0.150836  0  1.002368  0  0  0.154026  0  1.000251  0  0  0.123372  0.148801  0  1.003521  0
H  H30  1  0.56679896  0.22130681  0.47129611  1  0  0.147496  0  0.959514  0  0  0.156662  0  1.021078  0  0  0.159809  0  1.019973  0  0  0.132779  0.154478  0  1.021782  0
H  H31  1  0.43320722  0.77868708  0.52870369  1  0  0.147545  0  0.959475  0  0  0.156673  0  1.021054  0  0  0.159816  0  1.019953  0  0  0.132765  0.154489  0  1.02176  0
C  C32  1  0.91520877  0.43325725  0.94749831  1  0  -0.120884  0  3.685201  0  0  -0.162336  0  3.944832  0  0  -0.163587  0  3.958608  0  0  -0.163094  -0.161524  0  3.935858  0
C  C33  1  0.08478948  0.56675322  0.05250262  1  0  -0.120679  0  3.685019  0  0  -0.162242  0  3.944751  0  0  -0.163484  0  3.958499  0  0  -0.163081  -0.161429  0  3.935776  0
C  C34  1  0.91286486  0.41701739  0.78427848  1  0  -0.022756  0  3.527848  0  0  -0.079937  0  3.780609  0  0  -0.077544  0  3.791612  0  0  -0.068237  -0.081242  0  3.772479  0
C  C35  1  0.08713730  0.58298599  0.21572173  1  0  -0.022607  0  3.527738  0  0  -0.079843  0  3.780601  0  0  -0.077446  0  3.791604  0  0  -0.068188  -0.081153  0  3.772476  0
C  C36  1  0.68176267  0.13856701  0.68290320  1  0  -0.338707  0  3.492667  0  0  -0.378014  0  3.742237  0  0  -0.382739  0  3.748454  0  0  -0.068429  -0.37469  0  3.737574  0
C  C37  1  0.31825013  0.86143426  0.31709862  1  0  -0.338623  0  3.492547  0  0  -0.377898  0  3.742065  0  0  -0.382624  0  3.748286  0  0  -0.068365  -0.374562  0  3.73738  0
C  C38  1  0.70395076  0.29868680  0.52310771  1  0  -0.362263  0  3.480375  0  0  -0.400422  0  3.725332  0  0  -0.40579  0  3.730383  0  0  -0.067078  -0.395919  0  3.719945  0
C  C39  1  0.29605292  0.70130712  0.47689807  1  0  -0.362371  0  3.48042  0  0  -0.400452  0  3.725417  0  0  -0.405815  0  3.73047  0  0  -0.067081  -0.395951  0  3.72003  0
C  C40  1  0.40618586  0.94027077  0.95199803  1  0  0.570287  0  3.915649  0  0  0.528641  0  4.221221  0  0  0.558597  0  4.211258  0  0  0.213845  0.508562  0  4.226512  0
C  C41  1  0.59381744  0.05973265  0.04800337  1  0  0.57033  0  3.915652  0  0  0.528559  0  4.22136  0  0  0.558532  0  4.211374  0  0  0.213744  0.508479  0  4.226652  0
C  C42  1  0.49216164  0.57037104  0.06247200  1  0  0.558832  0  3.932983  0  0  0.515607  0  4.236836  0  0  0.545582  0  4.226299  0  0  0.223331  0.49534  0  4.242688  0
C  C43  1  0.50782729  0.42962837  0.93752545  1  0  0.558725  0  3.933101  0  0  0.515434  0  4.237029  0  0  0.545408  0  4.226495  0  0  0.223247  0.495168  0  4.242879  0
N  N44  1  0.73677677  0.30476483  0.68201120  1  0  -0.006253  0  3.384155  0  0  0.074303  0  3.592  0  0  0.063539  0  3.611573  0  0  -0.338704  0.081495  0  3.577415  0
N  N45  1  0.26322733  0.69523267  0.31799367  1  0  -0.006429  0  3.384323  0  0  0.074128  0  3.592165  0  0  0.063363  0  3.611737  0  0  -0.338794  0.081317  0  3.577582  0
O  O46  1  0.53368232  0.70390468  0.04811945  1  0  -0.644567  0  2.019049  0  0  -0.608453  0  2.256185  0  0  -0.63145  0  2.247896  0  0  -0.359922  -0.591931  0  2.261188  0
O  O47  1  0.46628995  0.29607983  0.95187039  1  0  -0.644526  0  2.01888  0  0  -0.608397  0  2.25606  0  0  -0.631398  0  2.247772  0  0  -0.359834  -0.591871  0  2.261056  0
O  O48  1  0.38646072  0.81385409  0.84089603  1  0  -0.652024  0  2.014843  0  0  -0.615002  0  2.25311  0  0  -0.63772  0  2.244042  0  0  -0.364943  -0.598943  0  2.258848  0
O  O49  1  0.61354969  0.18615794  0.15910888  1  0  -0.652045  0  2.014747  0  0  -0.615015  0  2.253094  0  0  -0.63773  0  2.244006  0  0  -0.364945  -0.598956  0  2.258832  0
O  O50  1  0.43433787  0.53644317  0.16938909  1  0  -0.618465  0  2.127563  0  0  -0.573985  0  2.364485  0  0  -0.597749  0  2.356129  0  0  -0.32845  -0.556851  0  2.369275  0
O  O51  1  0.56566081  0.46355543  0.83061863  1  0  -0.618521  0  2.127839  0  0  -0.574003  0  2.364779  0  0  -0.597768  0  2.356423  0  0  -0.328487  -0.556872  0  2.369571  0
O  O52  1  0.28879161  0.98012432  0.99442006  1  0  -0.689283  0  2.033017  0  0  -0.647616  0  2.271403  0  0  -0.67059  0  2.259297  0  0  -0.365084  -0.631474  0  2.279632  0
O  O53  1  0.71121361  0.01988403  0.00558833  1  0  -0.689252  0  2.033063  0  0  -0.64754  0  2.271489  0  0  -0.670518  0  2.259374  0  0  -0.36497  -0.631401  0  2.279721  0
O  O54  1  0.90542311  0.56687203  0.45996657  1  0  -0.723251  0  2.042287  0  0  -0.663901  0  2.272713  0  0  -0.682861  0  2.250769  0  0  -0.378038  -0.650953  0  2.288179  0
O  O55  1  0.09456201  0.43312362  0.54002613  1  0  -0.723323  0  2.042513  0  0  -0.66401  0  2.272996  0  0  -0.682981  0  2.251037  0  0  -0.378041  -0.651061  0  2.288467  0
O  O56  1  0.76154259  0.61215781  0.67162942  1  0  -0.925495  0  2.056223  0  0  -0.862542  0  2.325953  0  0  -0.887935  0  2.305831  0  0  -0.461586  -0.844541  0  2.338087  0
O  O57  1  0.23845340  0.38783330  0.32836103  1  0  -0.92563  0  2.056197  0  0  -0.862667  0  2.325917  0  0  -0.888068  0  2.305786  0  0  -0.46164  -0.844659  0  2.338048  0
O  O58  1  0.59207705  0.45443467  0.38095675  1  0  -0.895015  0  2.019595  0  0  -0.833051  0  2.288155  0  0  -0.858572  0  2.267942  0  0  -0.447576  -0.813972  0  2.301146  0
O  O59  1  0.40790578  0.54555624  0.61904361  1  0  -0.895002  0  2.019551  0  0  -0.833101  0  2.288191  0  0  -0.858587  0  2.267914  0  0  -0.44761  -0.814026  0  2.301192  0
O  O60  1  0.99466681  0.10352252  0.70186239  1  0  -0.845325  0  1.88418  0  0  -0.762544  0  2.10666  0  0  -0.788067  0  2.086376  0  0  -0.355758  -0.744598  0  2.120187  0
O  O61  1  0.00534604  0.89647873  0.29813734  1  0  -0.84529  0  1.884086  0  0  -0.762527  0  2.106582  0  0  -0.788045  0  2.086295  0  0  -0.355745  -0.74458  0  2.120107  0
O  O62  1  0.70111703  0.87590794  0.66797982  1  0  -0.935478  0  2.030518  0  0  -0.87125  0  2.305865  0  0  -0.89755  0  2.286466  0  0  -0.456142  -0.853051  0  2.318905  0
O  O63  1  0.29889477  0.12409088  0.33202008  1  0  -0.935536  0  2.030524  0  0  -0.871323  0  2.305907  0  0  -0.897624  0  2.286511  0  0  -0.456177  -0.853125  0  2.318949  0
O  O64  1  0.76992886  0.96491278  0.44683881  1  0  -0.733555  0  1.967807  0  0  -0.664715  0  2.184901  0  0  -0.685081  0  2.158514  0  0  -0.383925  -0.650548  0  2.203238  0
O  O65  1  0.23008130  0.03508477  0.55315841  1  0  -0.733605  0  1.967863  0  0  -0.664772  0  2.18494  0  0  -0.685137  0  2.158549  0  0  -0.383965  -0.650609  0  2.203279  0
O  O66  1  0.90586605  0.82087653  0.99174118  1  0  -0.899753  0  1.810684  0  0  -0.860676  0  1.996321  0  0  -0.878615  0  1.964314  0  0  -0.621296  -0.847074  0  2.01916  0
O  O67  1  0.09412775  0.17910979  0.00825274  1  0  -0.899693  0  1.810644  0  0  -0.86063  0  1.996264  0  0  -0.87857  0  1.964259  0  0  -0.621259  -0.847026  0  2.019103  0
