# generated using pymatgen
data_ZnH2(C5O4)2
_symmetry_space_group_name_H-M   'P 1'
_cell_length_a   9.82289636
_cell_length_b   13.39467564
_cell_length_c   14.88341273
_cell_angle_alpha   90.00033972
_cell_angle_beta   90.00468483
_cell_angle_gamma   102.22839544
_symmetry_Int_Tables_number   1
_chemical_formula_structural   ZnH2(C5O4)2
_chemical_formula_sum   'Zn4 H8 C40 O32'
_cell_volume   1913.84645935
_cell_formula_units_Z   4
loop_
 _symmetry_equiv_pos_site_id
 _symmetry_equiv_pos_as_xyz
  1  'x, y, z'
loop_
 _atom_site_type_symbol
 _atom_site_label
 _atom_site_symmetry_multiplicity
 _atom_site_fract_x
 _atom_site_fract_y
 _atom_site_fract_z
 _atom_site_occupancy
 _atom_site_pbe_bader_charge
 _atom_site_pbe_bader_spin_density
 _atom_site_pbe_cm5_charge
 _atom_site_pbe_ddec_charge
 _atom_site_pbe_ddec_spin_density
 _atom_site_pbe_ddec_sum_bond_order
 _atom_site_pbe_magmom
Zn  Zn0  1  0.54117473  0.62544450  0.35765117  1  1.341998  0  0.717405  0.976022  0  2.197829  0
Zn  Zn1  1  0.45877359  0.87452980  0.85763059  1  1.342212  0  0.717427  0.97622  0  2.197663  0
Zn  Zn2  1  0.45880660  0.37454172  0.64236074  1  1.342024  0  0.717365  0.976002  0  2.19787  0
Zn  Zn3  1  0.54121855  0.12544801  0.14235445  1  1.342198  0  0.717418  0.976243  0  2.197698  0
H  H4  1  0.07892252  0.65625607  0.40569392  1  0.163292  0  0.136363  0.154769  0  0.957293  0
H  H5  1  0.59443287  0.67320542  0.06667288  1  0.175785  0  0.130953  0.15743  0  0.977635  0
H  H6  1  0.92104691  0.84377125  0.90563168  1  0.163214  0  0.1364  0.154867  0  0.957154  0
H  H7  1  0.40554780  0.82679210  0.56665364  1  0.175816  0  0.130952  0.157437  0  0.977721  0
H  H8  1  0.92107786  0.34377140  0.59434890  1  0.162941  0  0.136365  0.154787  0  0.957278  0
H  H9  1  0.40556829  0.32679302  0.93333433  1  0.176102  0  0.130957  0.157453  0  0.977643  0
H  H10  1  0.07896189  0.15623254  0.09432178  1  0.163332  0  0.136376  0.154847  0  0.957286  0
H  H11  1  0.59444034  0.17320711  0.43334618  1  0.175853  0  0.130978  0.157487  0  0.977663  0
C  C12  1  0.90392447  0.54435855  0.45070577  1  -0.005615  0  0.027361  -0.00675  0  3.850065  0
C  C13  1  0.80332747  0.59266212  0.39589845  1  1.642508  0  0.221212  0.567857  0  4.227001  0
C  C14  1  0.04425382  0.58853312  0.44740344  1  0.116328  0  -0.0285  -0.071534  0  3.806961  0
C  C15  1  0.29191175  0.57997268  0.46807410  1  1.69467  0  0.240572  0.571258  0  4.27557  0
C  C16  1  0.52229929  0.51248137  0.09298741  1  -0.024822  0  0.04379  0.027416  0  3.816028  0
C  C17  1  0.54589600  0.52669868  0.19312909  1  1.663165  0  0.228829  0.559049  0  4.242989  0
C  C18  1  0.53619912  0.68196138  0.89192716  1  1.680405  0  0.22922  0.560281  0  4.298293  0
C  C19  1  0.55804194  0.59751617  0.03778166  1  0.041613  0  -0.047569  -0.107009  0  3.830307  0
C  C20  1  0.14023544  0.53906201  0.49072146  1  -0.044599  0  0.072314  0.082713  0  3.765909  0
C  C21  1  0.52544247  0.58565678  0.94600347  1  -0.005144  0  0.064497  0.068148  0  3.784328  0
C  C22  1  0.09605812  0.95564752  0.95065899  1  -0.006204  0  0.027604  -0.006165  0  3.850181  0
C  C23  1  0.19662794  0.90733564  0.89585637  1  1.64223  0  0.221047  0.567544  0  4.228727  0
C  C24  1  0.95573000  0.91149417  0.94734120  1  0.116682  0  -0.028744  -0.071906  0  3.806724  0
C  C25  1  0.70807894  0.92004656  0.96803874  1  1.694469  0  0.240973  0.572353  0  4.274249  0
C  C26  1  0.47769149  0.98751452  0.59297691  1  -0.02431  0  0.043656  0.027404  0  3.816328  0
C  C27  1  0.45408550  0.97329193  0.69311725  1  1.663321  0  0.228794  0.558889  0  4.243595  0
C  C28  1  0.46379385  0.81803235  0.39191616  1  1.677867  0  0.229295  0.560407  0  4.298262  0
C  C29  1  0.44194355  0.90248056  0.53776645  1  0.041135  0  -0.047517  -0.106993  0  3.830397  0
C  C30  1  0.85976343  0.96096609  0.99066795  1  -0.045765  0  0.072465  0.082708  0  3.765171  0
C  C31  1  0.47455420  0.91434217  0.44599247  1  -0.005382  0  0.064572  0.068172  0  3.784236  0
C  C32  1  0.09607410  0.45566968  0.54933436  1  -0.006179  0  0.027503  -0.006481  0  3.850385  0
C  C33  1  0.19667070  0.40735772  0.60412959  1  1.642818  0  0.221166  0.56767  0  4.228262  0
C  C34  1  0.95574673  0.41150199  0.55264745  1  0.117625  0  -0.028662  -0.071745  0  3.80684  0
C  C35  1  0.70808625  0.42003951  0.53195730  1  1.694142  0  0.24113  0.572534  0  4.273777  0
C  C36  1  0.47770921  0.48751783  0.90702047  1  -0.025167  0  0.043755  0.0274  0  3.816  0
C  C37  1  0.45410383  0.47329518  0.80688013  1  1.663648  0  0.228925  0.559148  0  4.243162  0
C  C38  1  0.46381700  0.31803248  0.10807400  1  1.683504  0  0.229114  0.5601  0  4.297902  0
C  C39  1  0.44196634  0.40248228  0.96222488  1  0.041432  0  -0.047594  -0.107041  0  3.83021  0
C  C40  1  0.85976299  0.46096929  0.50932539  1  -0.046423  0  0.072401  0.082666  0  3.765392  0
C  C41  1  0.47457090  0.41434166  0.05400240  1  -0.009198  0  0.064542  0.068132  0  3.784275  0
C  C42  1  0.90395153  0.04434863  0.04929447  1  -0.00246  0  0.027608  -0.006189  0  3.84962  0
C  C43  1  0.80337573  0.09265745  0.10410784  1  1.639983  0  0.221094  0.567628  0  4.227878  0
C  C44  1  0.04428141  0.08850810  0.05260554  1  0.116629  0  -0.028671  -0.072116  0  3.806827  0
C  C45  1  0.29192734  0.07994501  0.03192480  1  1.694387  0  0.240776  0.572041  0  4.274485  0
C  C46  1  0.52229620  0.01248316  0.40701955  1  -0.024346  0  0.043694  0.027411  0  3.816258  0
C  C47  1  0.54590800  0.02670116  0.30688123  1  1.663089  0  0.228876  0.558951  0  4.243167  0
C  C48  1  0.53619935  0.18195616  0.60808769  1  1.678347  0  0.229151  0.560225  0  4.298283  0
C  C49  1  0.55804516  0.09751712  0.46223135  1  0.041278  0  -0.04759  -0.107145  0  3.830569  0
C  C50  1  0.14024710  0.03903311  0.00928215  1  -0.04463  0  0.07231  0.082673  0  3.765445  0
C  C51  1  0.52543712  0.08565399  0.55400533  1  -0.005118  0  0.064577  0.068212  0  3.784379  0
O  O52  1  0.51272382  0.60535279  0.22795646  1  -1.124113  0  -0.296006  -0.509512  0  2.282026  0
O  O53  1  0.44087614  0.73184100  0.89849622  1  -1.11162  0  -0.285621  -0.500091  0  2.313841  0
O  O54  1  0.67635836  0.56675226  0.42452898  1  -1.117648  0  -0.301012  -0.530661  0  2.317042  0
O  O55  1  0.84870151  0.65099621  0.33337986  1  -1.072394  0  -0.272562  -0.452423  0  2.001165  0
O  O56  1  0.35150562  0.55292967  0.40112037  1  -1.137908  0  -0.279313  -0.484138  0  2.314119  0
O  O57  1  0.64979575  0.70078958  0.85094462  1  -0.958213  0  -0.205706  -0.357343  0  1.909914  0
O  O58  1  0.32664795  0.64854550  0.52646259  1  -0.926457  0  -0.177951  -0.328927  0  1.932924  0
O  O59  1  0.60192661  0.46145976  0.22865052  1  -0.99019  0  -0.218265  -0.376589  0  1.97581  0
O  O60  1  0.48722942  0.89462291  0.72793923  1  -1.123973  0  -0.295998  -0.509645  0  2.282343  0
O  O61  1  0.55910021  0.76814239  0.39850336  1  -1.111086  0  -0.285639  -0.500053  0  2.314108  0
O  O62  1  0.32360102  0.93324170  0.92448555  1  -1.118287  0  -0.300855  -0.530504  0  2.318046  0
O  O63  1  0.15123345  0.84900199  0.83333710  1  -1.072441  0  -0.27263  -0.452522  0  2.001507  0
O  O64  1  0.64843443  0.94708442  0.90109979  1  -1.138459  0  -0.279507  -0.484733  0  2.31399  0
O  O65  1  0.35019527  0.79921492  0.35092288  1  -0.956413  0  -0.205751  -0.357403  0  1.909759  0
O  O66  1  0.67339035  0.85147811  0.02643278  1  -0.925717  0  -0.178241  -0.329442  0  1.932459  0
O  O67  1  0.39807306  0.03853694  0.72864001  1  -0.990179  0  -0.218261  -0.376455  0  1.975911  0
O  O68  1  0.48726101  0.39463496  0.77205613  1  -1.124355  0  -0.296085  -0.509603  0  2.282184  0
O  O69  1  0.55913502  0.26814981  0.10150024  1  -1.110815  0  -0.285582  -0.499997  0  2.313561  0
O  O70  1  0.32363513  0.43325841  0.57549301  1  -1.118345  0  -0.300936  -0.530481  0  2.317477  0
O  O71  1  0.15128910  0.34902209  0.66664617  1  -1.072541  0  -0.272627  -0.452522  0  2.001714  0
O  O72  1  0.64846486  0.44707183  0.59890431  1  -1.138042  0  -0.279503  -0.484657  0  2.313547  0
O  O73  1  0.35021820  0.29920734  0.14905385  1  -0.958344  0  -0.205596  -0.357178  0  1.909856  0
O  O74  1  0.67337617  0.35146898  0.47356276  1  -0.925791  0  -0.178289  -0.329534  0  1.932498  0
O  O75  1  0.39807963  0.53853869  0.77135669  1  -0.990078  0  -0.21826  -0.37659  0  1.975734  0
O  O76  1  0.51276028  0.10536408  0.27204782  1  -1.124032  0  -0.29604  -0.509658  0  2.282245  0
O  O77  1  0.44088534  0.23184077  0.60150519  1  -1.111576  0  -0.285571  -0.500041  0  2.313891  0
O  O78  1  0.67639399  0.06674604  0.07549008  1  -1.118022  0  -0.300966  -0.530597  0  2.317659  0
O  O79  1  0.84878066  0.15100256  0.16661837  1  -1.072573  0  -0.272626  -0.452518  0  2.001177  0
O  O80  1  0.35154982  0.05290486  0.09887383  1  -1.137931  0  -0.27944  -0.48463  0  2.3136  0
O  O81  1  0.64979620  0.20077818  0.64908165  1  -0.956754  0  -0.205733  -0.357335  0  1.90982  0
O  O82  1  0.32663710  0.14851269  0.97353277  1  -0.926397  0  -0.178085  -0.329274  0  1.932878  0
O  O83  1  0.60193549  0.96145539  0.27137190  1  -0.989994  0  -0.218275  -0.376421  0  1.975573  0
