# generated using pymatgen
data_MnH8(C3O4)2
_symmetry_space_group_name_H-M   'P 1'
_cell_length_a   7.39169966
_cell_length_b   8.20517513
_cell_length_c   15.00159032
_cell_angle_alpha   90.43081975
_cell_angle_beta   90.37057792
_cell_angle_gamma   89.75891232
_symmetry_Int_Tables_number   1
_chemical_formula_structural   MnH8(C3O4)2
_chemical_formula_sum   'Mn4 H32 C24 O32'
_cell_volume   909.79668592
_cell_formula_units_Z   4
loop_
 _symmetry_equiv_pos_site_id
 _symmetry_equiv_pos_as_xyz
  1  'x, y, z'
loop_
 _atom_site_type_symbol
 _atom_site_label
 _atom_site_symmetry_multiplicity
 _atom_site_fract_x
 _atom_site_fract_y
 _atom_site_fract_z
 _atom_site_occupancy
 _atom_site_pbe_cm5_charge
 _atom_site_pbe_ddec_charge
 _atom_site_pbe_ddec_spin_density
 _atom_site_pbe_ddec_sum_bond_order
 _atom_site_pbe_magmom
Mn  Mn0  1  0.75033167  0.34264723  0.69307833  1  0.603136  1.112496  4.789407  2.181086  4.504
Mn  Mn1  1  0.25693951  0.16956392  0.19488431  1  0.613958  1.122686  -4.671974  2.178537  -4.476
Mn  Mn2  1  0.74862805  0.84420326  0.80571548  1  0.60585  1.11972  -4.69892  2.166311  -4.506
Mn  Mn3  1  0.24633432  0.64814042  0.29578815  1  0.644093  1.043072  -1.4225  2.875053  -1.37
H  H4  1  0.10918433  0.27989440  0.72844360  1  0.300255  0.392285  0.001416  0.947729  0.003
H  H5  1  0.89981959  0.21922018  0.22688015  1  0.299731  0.390973  -0.001133  0.952734  -0.002
H  H6  1  0.38868570  0.77773899  0.77505874  1  0.299931  0.388945  -0.001208  0.951751  -0.002
H  H7  1  0.59336925  0.70568554  0.26095417  1  0.306087  0.397163  0.000149  0.93631  0.0
H  H8  1  0.90131856  0.71976575  0.26875301  1  0.307518  0.39639  7e-05  0.937017  0.0
H  H9  1  0.10818304  0.77882731  0.77470410  1  0.299918  0.389534  -0.001185  0.951255  -0.002
H  H10  1  0.61538381  0.23164088  0.22410785  1  0.301926  0.391452  -0.001158  0.94919  -0.002
H  H11  1  0.39299122  0.28077126  0.72854357  1  0.30034  0.392598  0.001406  0.947032  0.003
H  H12  1  0.10378422  0.40621419  0.64632332  1  0.298276  0.381231  0.001374  0.960974  0.003
H  H13  1  0.90389046  0.08941710  0.14532988  1  0.298878  0.384588  -0.001379  0.955901  -0.003
H  H14  1  0.39426769  0.91240692  0.85441860  1  0.298803  0.383592  -0.001194  0.957053  -0.003
H  H15  1  0.58337265  0.57776167  0.34255990  1  0.308256  0.39064  0.000356  0.93792  0.0
H  H16  1  0.91413150  0.58689959  0.34754415  1  0.30816  0.388838  0.000522  0.940949  0.0
H  H17  1  0.10412637  0.91372054  0.85423695  1  0.297903  0.383115  -0.001224  0.958714  -0.003
H  H18  1  0.60342032  0.09925767  0.14453377  1  0.300707  0.384217  -0.001161  0.954632  -0.003
H  H19  1  0.39417638  0.40693388  0.64628353  1  0.297869  0.380842  0.00136  0.961689  0.003
H  H20  1  0.74841687  0.63966205  0.60750103  1  0.295656  0.396642  0.002207  0.940468  0.003
H  H21  1  0.24915423  0.87001862  0.11166393  1  0.299324  0.394513  -0.00253  0.939903  -0.003
H  H22  1  0.75019986  0.14191589  0.89310178  1  0.297068  0.396878  -0.002088  0.938571  -0.003
H  H23  1  0.25962420  0.37711880  0.38967786  1  0.313939  0.403981  0.000964  0.908704  -0.001
H  H24  1  0.74810763  0.50035530  0.52760355  1  0.289608  0.388384  0.001422  0.953107  0.003
H  H25  1  0.25622524  0.00541986  0.03054150  1  0.291668  0.39241  -0.001362  0.947364  -0.003
H  H26  1  0.75089511  0.00224934  0.97215829  1  0.293354  0.390951  -0.001434  0.946787  -0.003
H  H27  1  0.24602043  0.51708601  0.46877312  1  0.298406  0.394994  -0.000812  0.941648  -0.003
H  H28  1  0.75156945  0.28201115  0.02993492  1  0.119277  0.143284  -0.000267  1.007089  0.0
H  H29  1  0.24889084  0.21239745  0.53025991  1  0.115906  0.141898  0.000128  1.006651  0.0
H  H30  1  0.74988750  0.78199279  0.46621325  1  0.118602  0.145041  0.000267  1.003579  0.0
H  H31  1  0.24328006  0.72336146  0.97359032  1  0.116592  0.142488  -5.8e-05  1.01055  -0.001
H  H32  1  0.74916329  0.48135132  0.17543886  1  0.115436  0.14155  2.9e-05  1.045536  0.0
H  H33  1  0.24618586  0.01989848  0.67692501  1  0.115973  0.143864  3.9e-05  1.035769  0.0
H  H34  1  0.75336967  0.98367499  0.32273781  1  0.113906  0.141531  0.000226  1.045349  0.0
H  H35  1  0.25238279  0.52045070  0.83030896  1  0.115924  0.144688  -0.000463  1.03757  0.0
C  C36  1  0.75157409  0.47307946  0.86180556  1  0.221919  0.541414  0.002644  4.26545  -0.001
C  C37  1  0.25929019  0.00614846  0.36321406  1  0.210455  0.526727  0.009406  4.244276  0.005
C  C38  1  0.74763470  0.97166976  0.63678940  1  0.221301  0.5392  -0.001536  4.269541  0.001
C  C39  1  0.23476251  0.53622310  0.14179403  1  0.191008  0.465316  0.065451  4.210158  0.047
C  C40  1  0.75145792  0.51327844  0.95691236  1  0.075159  0.071139  -0.000444  3.952734  -0.001
C  C41  1  0.24975118  0.97719407  0.45821942  1  0.066695  0.060707  0.002761  3.987466  0.0
C  C42  1  0.74799613  0.01229210  0.54187242  1  0.075737  0.072844  0.001123  3.94539  0.001
C  C43  1  0.23976285  0.49346664  0.04934427  1  0.063496  0.0578  0.006598  4.01558  -0.002
C  C44  1  0.75130505  0.41381983  0.03045030  1  -0.092656  -0.14857  0.001253  3.95128  0.001
C  C45  1  0.24818643  0.08054579  0.53136940  1  -0.097629  -0.157254  0.006278  3.957501  0.005
C  C46  1  0.74935790  0.91399152  0.46699723  1  -0.094827  -0.154217  -0.00096  3.950318  -0.001
C  C47  1  0.24389370  0.59152801  0.97434399  1  -0.100587  -0.160553  0.034124  3.961401  0.025
C  C48  1  0.75014938  0.51735474  0.10605429  1  -0.094687  -0.153081  0.000336  3.962999  -0.001
C  C49  1  0.24686594  0.98057590  0.60768035  1  -0.094766  -0.150228  -0.001177  3.95272  -0.002
C  C50  1  0.75193269  0.01875622  0.39264521  1  -0.095986  -0.154126  0.000855  3.95904  0.0
C  C51  1  0.24907541  0.48637458  0.90000904  1  -0.097663  -0.153646  -0.00586  3.977428  -0.008
C  C52  1  0.74969020  0.67486203  0.07466070  1  0.065066  0.053297  0.002536  3.947921  0.001
C  C53  1  0.24749907  0.82150207  0.57711616  1  0.061603  0.050584  0.009306  3.963374  0.006
C  C54  1  0.75179650  0.17595400  0.42592745  1  0.067318  0.060234  0.000246  3.935164  0.001
C  C55  1  0.24804832  0.32862310  0.93181438  1  0.05939  0.050138  0.043526  3.938864  0.03
C  C56  1  0.74953475  0.82908224  0.12427998  1  0.2225  0.555257  0.001223  4.237332  0.001
C  C57  1  0.24740508  0.66632434  0.62391883  1  0.21626  0.546206  0.006027  4.251046  0.004
C  C58  1  0.75439450  0.33065955  0.37726668  1  0.219622  0.549594  0.000597  4.25137  0.0
C  C59  1  0.24941135  0.17517443  0.88218061  1  0.211387  0.541067  0.020247  4.256294  0.011
O  O60  1  0.75240904  0.32200834  0.83997251  1  -0.290585  -0.54269  0.030028  2.288264  0.015
O  O61  1  0.26239386  0.15530556  0.33641207  1  -0.311639  -0.577531  -0.03241  2.269231  -0.015
O  O62  1  0.74628086  0.82083667  0.65787864  1  -0.291251  -0.546341  -0.028772  2.29257  -0.014
O  O63  1  0.22760065  0.68823769  0.16632928  1  -0.289145  -0.484444  -0.016249  2.365355  -0.017
O  O64  1  0.75078729  0.58277877  0.80218203  1  -0.283527  -0.54562  -0.015844  2.339691  -0.008
O  O65  1  0.26684936  0.88659700  0.30769770  1  -0.289161  -0.513618  -0.019948  2.430921  -0.006
O  O66  1  0.74893127  0.08151941  0.69709973  1  -0.282005  -0.54047  0.016676  2.344927  0.009
O  O67  1  0.24012526  0.43436240  0.20805424  1  -0.282797  -0.513472  -0.009727  2.333262  0.013
O  O68  1  0.75406301  0.96545162  0.08353221  1  -0.294985  -0.540232  6.8e-05  2.245682  0.0
O  O69  1  0.24819451  0.53219804  0.57873842  1  -0.30244  -0.55022  0.00158  2.22936  0.002
O  O70  1  0.74745178  0.46874047  0.41757307  1  -0.302506  -0.550794  0.000521  2.212604  0.0
O  O71  1  0.24732000  0.03722985  0.92262844  1  -0.30477  -0.55169  0.007982  2.241514  0.008
O  O72  1  0.74548994  0.81955056  0.20943277  1  -0.308629  -0.556243  0.000312  2.250853  0.0
O  O73  1  0.24709174  0.66930785  0.70882445  1  -0.306104  -0.549226  0.002952  2.265695  0.003
O  O74  1  0.76342715  0.32004603  0.29252947  1  -0.308981  -0.556059  0.000617  2.297908  0.0
O  O75  1  0.25222134  0.18373916  0.79715119  1  -0.312978  -0.561264  0.011484  2.269768  0.012
O  O76  1  0.75066644  0.67404527  0.98287950  1  -0.095635  -0.099493  -0.006162  2.621217  -0.002
O  O77  1  0.24911733  0.81811763  0.48553178  1  -0.104404  -0.103521  0.001771  2.640481  0.005
O  O78  1  0.74913923  0.17350388  0.51770160  1  -0.094749  -0.099833  0.009268  2.61811  0.004
O  O79  1  0.24285907  0.33135732  0.02426200  1  -0.105343  -0.115728  0.008133  2.604114  0.017
O  O80  1  0.03284455  0.32520762  0.67954348  1  -0.579673  -0.784271  0.048851  2.174721  0.028
O  O81  1  0.97644310  0.17051421  0.17911287  1  -0.581835  -0.790752  -0.047503  2.177838  -0.028
O  O82  1  0.46645727  0.83085565  0.82095063  1  -0.579414  -0.784565  -0.04704  2.173454  -0.027
O  O83  1  0.51424460  0.62707217  0.29294554  1  -0.567534  -0.749261  -0.003022  2.289526  0.002
O  O84  1  0.98229723  0.67096509  0.31513170  1  -0.563248  -0.736536  -0.002808  2.281388  0.001
O  O85  1  0.03113455  0.83332055  0.82015870  1  -0.580921  -0.787954  -0.047501  2.175934  -0.028
O  O86  1  0.53663175  0.18723676  0.17578903  1  -0.576202  -0.776104  -0.046298  2.174262  -0.027
O  O87  1  0.46743467  0.32682094  0.67982459  1  -0.579781  -0.784117  0.048727  2.173927  0.028
O  O88  1  0.75009545  0.52115615  0.59312764  1  -0.586399  -0.800639  0.050474  2.128527  0.028
O  O89  1  0.26930127  0.98542238  0.09618678  1  -0.583636  -0.797087  -0.049845  2.130462  -0.029
O  O90  1  0.74744746  0.02374745  0.90706799  1  -0.582756  -0.793809  -0.048752  2.126479  -0.027
O  O91  1  0.24676592  0.49459913  0.40251138  1  -0.559314  -0.743735  -0.011409  2.187124  0.001
