# generated using pymatgen
data_KH20C14(N5O3)4
_symmetry_space_group_name_H-M   'P 1'
_cell_length_a   8.15708032
_cell_length_b   10.57765635
_cell_length_c   12.51288126
_cell_angle_alpha   97.48580442
_cell_angle_beta   127.51749543
_cell_angle_gamma   92.36363055
_symmetry_Int_Tables_number   1
_chemical_formula_structural   KH20C14(N5O3)4
_chemical_formula_sum   'K1 H20 C14 N20 O12'
_cell_volume   839.00147832
_cell_formula_units_Z   1
loop_
 _symmetry_equiv_pos_site_id
 _symmetry_equiv_pos_as_xyz
  1  'x, y, z'
loop_
 _atom_site_type_symbol
 _atom_site_label
 _atom_site_symmetry_multiplicity
 _atom_site_fract_x
 _atom_site_fract_y
 _atom_site_fract_z
 _atom_site_occupancy
 _atom_site_hle17_bader_spin_density
 _atom_site_hle17_ddec_charge
 _atom_site_hle17_ddec_spin_density
 _atom_site_hle17_ddec_sum_bond_order
 _atom_site_hle17_magmom
 _atom_site_hse06_10hf_bader_spin_density
 _atom_site_hse06_10hf_ddec_charge
 _atom_site_hse06_10hf_ddec_spin_density
 _atom_site_hse06_10hf_ddec_sum_bond_order
 _atom_site_hse06_10hf_magmom
 _atom_site_hse06_bader_spin_density
 _atom_site_hse06_ddec_charge
 _atom_site_hse06_ddec_spin_density
 _atom_site_hse06_ddec_sum_bond_order
 _atom_site_hse06_magmom
 _atom_site_pbe_bader_spin_density
 _atom_site_pbe_cm5_charge
 _atom_site_pbe_ddec_charge
 _atom_site_pbe_ddec_spin_density
 _atom_site_pbe_ddec_sum_bond_order
 _atom_site_pbe_magmom
K  K0  1  0.50055183  0.00007689  0.50031051  1  0  0.920395  0  0.511233  0  0  0.88243  0  0.685159  0  0  0.894607  0  0.661714  0  0  0.807531  0.872897  0  0.702252  0
H  H1  1  0.13442948  0.15502797  0.43629939  1  0  0.076878  0  0.959722  0  0  0.085443  0  1.030999  0  0  0.085451  0  1.030955  0  0  0.105166  0.085126  0  1.031258  0
H  H2  1  0.86571068  0.84481020  0.56321613  1  0  0.076411  0  0.960038  0  0  0.084722  0  1.03163  0  0  0.08475  0  1.031605  0  0  0.105216  0.084417  0  1.031857  0
H  H3  1  0.89684695  0.04187967  0.32002902  1  0  0.053103  0  0.936786  0  0  0.060752  0  1.012121  0  0  0.062263  0  1.009707  0  0  0.092915  0.059918  0  1.013665  0
H  H4  1  0.10334441  0.95797270  0.67953405  1  0  0.052448  0  0.935279  0  0  0.060073  0  1.010695  0  0  0.061604  0  1.008291  0  0  0.092646  0.05924  0  1.012239  0
H  H5  1  0.90198397  0.82755263  0.38202320  1  0  0.049595  0  0.940954  0  0  0.057621  0  1.013176  0  0  0.05866  0  1.012055  0  0  0.092528  0.056739  0  1.01437  0
H  H6  1  0.09822688  0.17226802  0.61751427  1  0  0.049098  0  0.941026  0  0  0.056888  0  1.013548  0  0  0.057959  0  1.012427  0  0  0.092067  0.056001  0  1.014738  0
H  H7  1  0.14312187  0.80153358  0.53400220  1  0  0.056541  0  0.951197  0  0  0.066786  0  1.023746  0  0  0.066262  0  1.024353  0  0  0.098647  0.066967  0  1.023381  0
H  H8  1  0.85706942  0.19835843  0.46556035  1  0  0.05664  0  0.951159  0  0  0.066936  0  1.023418  0  0  0.066426  0  1.024055  0  0  0.098859  0.067118  0  1.023048  0
H  H9  1  0.43459761  0.72445310  0.33787798  1  0  0.385463  0  0.93138  0  0  0.347458  0  1.008349  0  0  0.358507  0  0.99208  0  0  0.273832  0.339763  0  1.019651  0
H  H10  1  0.56546574  0.27564069  0.66226663  1  0  0.384982  0  0.931916  0  0  0.346906  0  1.008931  0  0  0.357956  0  0.992662  0  0  0.273426  0.339212  0  1.020233  0
H  H11  1  0.40625390  0.68423847  0.44439554  1  0  0.394643  0  0.917601  0  0  0.359215  0  0.990513  0  0  0.369052  0  0.975855  0  0  0.272491  0.352187  0  1.000979  0
H  H12  1  0.59394684  0.31594645  0.55581824  1  0  0.394723  0  0.917626  0  0  0.359272  0  0.990568  0  0  0.369116  0  0.975892  0  0  0.272556  0.352241  0  1.001044  0
H  H13  1  0.48313355  0.99160096  0.25944774  1  0  0.396255  0  0.911544  0  0  0.35416  0  1.000159  0  0  0.365276  0  0.984005  0  0  0.287941  0.346366  0  1.011478  0
H  H14  1  0.51687160  0.00842091  0.74072395  1  0  0.396374  0  0.911206  0  0  0.354168  0  0.999991  0  0  0.365262  0  0.983863  0  0  0.287721  0.346381  0  1.011303  0
H  H15  1  0.30250707  0.05873605  0.15877361  1  0  0.40587  0  0.858681  0  0  0.378654  0  0.934029  0  0  0.388515  0  0.921936  0  0  0.305406  0.37174  0  0.942628  0
H  H16  1  0.69678361  0.94101513  0.84160999  1  0  0.405798  0  0.85981  0  0  0.378385  0  0.935537  0  0  0.38828  0  0.923407  0  0  0.305207  0.371442  0  0.94418  0
H  H17  1  0.48552384  0.21813615  0.27303303  1  0  0.347295  0  0.880477  0  0  0.325451  0  0.943291  0  0  0.335105  0  0.935618  0  0  0.322235  0.318825  0  0.948379  0
H  H18  1  0.51451357  0.78178588  0.72710118  1  0  0.347451  0  0.879809  0  0  0.325711  0  0.942581  0  0  0.335325  0  0.934966  0  0  0.322222  0.319083  0  0.947675  0
H  H19  1  0.71616908  0.46064683  0.95895199  1  0  0.124973  0  0.903438  0  0  0.133349  0  0.964701  0  0  0.13552  0  0.962454  0  0  0.149459  0.131498  0  0.966183  0
H  H20  1  0.28384055  0.53933403  0.04119922  1  0  0.124904  0  0.903487  0  0  0.133276  0  0.964731  0  0  0.135425  0  0.962532  0  0  0.149444  0.131437  0  0.966195  0
C  C21  1  0.03229323  0.07777330  0.42900260  1  0  0.034055  0  3.65573  0  0  -0.02162  0  3.924734  0  0  -0.015108  0  3.930073  0  0  -0.087044  -0.026011  0  3.920916  0
C  C22  1  0.96774142  0.92211018  0.57049125  1  0  0.034664  0  3.655387  0  0  -0.020665  0  3.924135  0  0  -0.014314  0  3.929654  0  0  -0.087603  -0.025001  0  3.920248  0
C  C23  1  0.03879550  0.87308329  0.48749916  1  0  0.058764  0  3.66674  0  0  0.002509  0  3.94178  0  0  0.009426  0  3.946723  0  0  -0.080776  -0.002368  0  3.938677  0
C  C24  1  0.96129223  0.12678104  0.51201384  1  0  0.058878  0  3.667685  0  0  0.002894  0  3.942275  0  0  0.009658  0  3.947403  0  0  -0.081159  -0.001947  0  3.939128  0
C  C25  1  0.79864895  0.53493890  0.53878612  1  0  0.343022  0  3.765645  0  0  0.291999  0  4.07153  0  0  0.307028  0  4.080976  0  0  0.314825  0.28249  0  4.064171  0
C  C26  1  0.20143967  0.46513238  0.46130959  1  0  0.34148  0  3.766199  0  0  0.291036  0  4.071465  0  0  0.30607  0  4.080921  0  0  0.314291  0.281525  0  4.064097  0
C  C27  1  0.64079950  0.40420822  0.35413690  1  0  0.619306  0  3.719029  0  0  0.553292  0  4.023618  0  0  0.584527  0  4.023512  0  0  0.355417  0.532586  0  4.023186  0
C  C28  1  0.35924462  0.59572551  0.64601304  1  0  0.617578  0  3.721762  0  0  0.552552  0  4.025245  0  0  0.583794  0  4.025126  0  0  0.355064  0.531848  0  4.024812  0
C  C29  1  0.50247469  0.27493842  0.12951753  1  0  0.476221  0  3.788188  0  0  0.435429  0  4.091971  0  0  0.454202  0  4.10269  0  0  0.340381  0.422921  0  4.083928  0
C  C30  1  0.49743439  0.72504878  0.87059930  1  0  0.47691  0  3.786689  0  0  0.435973  0  4.090741  0  0  0.454757  0  4.101391  0  0  0.340457  0.423455  0  4.082698  0
C  C31  1  0.46991884  0.18577973  0.91352657  1  0  0.337125  0  3.810441  0  0  0.292626  0  4.092512  0  0  0.310121  0  4.111396  0  0  0.330134  0.286389  0  4.080659  0
C  C32  1  0.52971141  0.81429632  0.08646845  1  0  0.337584  0  3.809323  0  0  0.292603  0  4.091801  0  0  0.310395  0  4.110632  0  0  0.32988  0.286333  0  4.079972  0
C  C33  1  0.63464954  0.36319645  0.92587625  1  0  0.139621  0  3.622558  0  0  0.052755  0  3.920605  0  0  0.070298  0  3.936125  0  0  0.160294  0.046371  0  3.913418  0
C  C34  1  0.36520880  0.63684361  0.07421589  1  0  0.140732  0  3.621885  0  0  0.053652  0  3.919721  0  0  0.071448  0  3.935343  0  0  0.160864  0.047264  0  3.91252  0
N  N35  1  0.59008060  0.27451081  0.82220518  1  0  -0.182999  0  2.980502  0  0  -0.15538  0  3.271207  0  0  -0.16457  0  3.283138  0  0  -0.188863  -0.14999  0  3.262537  0
N  N36  1  0.40963287  0.72552938  0.17783094  1  0  -0.183711  0  2.980094  0  0  -0.155961  0  3.270932  0  0  -0.16517  0  3.282797  0  0  -0.18906  -0.150591  0  3.262248  0
N  N37  1  0.48711510  0.16349880  0.81320744  1  0  -0.275859  0  2.941131  0  0  -0.245975  0  3.217487  0  0  -0.256622  0  3.228971  0  0  -0.191943  -0.239481  0  3.20903  0
N  N38  1  0.51242129  0.83657652  0.18674191  1  0  -0.27523  0  2.941633  0  0  -0.245553  0  3.218381  0  0  -0.256226  0  3.229771  0  0  -0.191795  -0.23906  0  3.209914  0
N  N39  1  0.56294309  0.31159469  0.98631248  1  0  0.015657  0  3.63641  0  0  0.123036  0  3.835692  0  0  0.089256  0  3.890976  0  0  -0.10217  0.128471  0  3.819702  0
N  N40  1  0.43684949  0.68844214  0.01373432  1  0  0.014546  0  3.637159  0  0  0.122917  0  3.835638  0  0  0.088302  0  3.891791  0  0  -0.102299  0.128328  0  3.819666  0
N  N41  1  0.52845729  0.30058817  0.25095933  1  0  -0.479085  0  3.285795  0  0  -0.423355  0  3.530074  0  0  -0.44725  0  3.535453  0  0  -0.366718  -0.40678  0  3.52572  0
N  N42  1  0.47156273  0.69932378  0.74918904  1  0  -0.478487  0  3.285709  0  0  -0.423071  0  3.529622  0  0  -0.446943  0  3.535051  0  0  -0.366186  -0.406499  0  3.525267  0
N  N43  1  0.58616024  0.36190099  0.10114334  1  0  -0.288296  0  2.831605  0  0  -0.315903  0  3.118777  0  0  -0.319116  0  3.136778  0  0  -0.204691  -0.308242  0  3.110944  0
N  N44  1  0.41373608  0.63809687  0.89895816  1  0  -0.289013  0  2.832767  0  0  -0.316877  0  3.119952  0  0  -0.319887  0  3.138116  0  0  -0.205342  -0.309264  0  3.11212  0
N  N45  1  0.38614955  0.15584178  0.05193422  1  0  -0.259905  0  2.940161  0  0  -0.241477  0  3.236222  0  0  -0.250753  0  3.245044  0  0  -0.177836  -0.237325  0  3.231973  0
N  N46  1  0.61375932  0.84419075  0.94817462  1  0  -0.260231  0  2.939895  0  0  -0.241389  0  3.235681  0  0  -0.250782  0  3.244546  0  0  -0.177965  -0.237267  0  3.231391  0
N  N47  1  0.37233487  0.10857150  0.94312782  1  0  -0.147104  0  2.928403  0  0  -0.147596  0  3.227742  0  0  -0.149003  0  3.235693  0  0  -0.15607  -0.147507  0  3.222599  0
N  N48  1  0.62735724  0.89149202  0.05688811  1  0  -0.147433  0  2.928004  0  0  -0.147742  0  3.227371  0  0  -0.149294  0  3.235302  0  0  -0.155786  -0.147732  0  3.222212  0
N  N49  1  0.67706163  0.41775974  0.47378588  1  0  -0.495826  0  2.966736  0  0  -0.458014  0  3.23492  0  0  -0.478377  0  3.241329  0  0  -0.314809  -0.4457  0  3.230527  0
N  N50  1  0.32306915  0.58231184  0.52638566  1  0  -0.494753  0  2.966978  0  0  -0.457406  0  3.234708  0  0  -0.477777  0  3.241143  0  0  -0.314439  -0.445091  0  3.230301  0
N  N51  1  0.84169838  0.59590912  0.47145552  1  0  -0.176328  0  2.633171  0  0  -0.180435  0  2.925501  0  0  -0.183138  0  2.931132  0  0  -0.183281  -0.174891  0  2.91863  0
N  N52  1  0.15825466  0.40409009  0.52855359  1  0  -0.175753  0  2.632776  0  0  -0.17992  0  2.924979  0  0  -0.182613  0  2.930612  0  0  -0.182867  -0.174354  0  2.918097  0
N  N53  1  0.88067536  0.59247459  0.67791219  1  0  0.453407  0  3.897863  0  0  0.490391  0  4.195839  0  0  0.510762  0  4.197238  0  0  0.060462  0.47576  0  4.195695  0
N  N54  1  0.11945992  0.40766763  0.32213993  1  0  0.454238  0  3.897686  0  0  0.491015  0  4.19556  0  0  0.51141  0  4.19696  0  0  0.060807  0.476405  0  4.195419  0
O  O55  1  0.48104221  0.74861974  0.43239849  1  0  -0.875067  0  1.820153  0  0  -0.831389  0  1.989562  0  0  -0.848435  0  1.959037  0  0  -0.69787  -0.818572  0  2.010549  0
O  O56  1  0.51920177  0.25151051  0.56777464  1  0  -0.874774  0  1.820483  0  0  -0.831035  0  1.990192  0  0  -0.848079  0  1.959666  0  0  -0.697483  -0.818212  0  2.011177  0
O  O57  1  0.39973461  0.05915594  0.25759541  1  0  -0.821361  0  1.845607  0  0  -0.776509  0  2.019942  0  0  -0.795313  0  1.992735  0  0  -0.627176  -0.763258  0  2.038771  0
O  O58  1  0.60041168  0.94086836  0.74279838  1  0  -0.821991  0  1.845014  0  0  -0.776979  0  2.019823  0  0  -0.795754  0  1.992634  0  0  -0.627227  -0.763725  0  2.03868  0
O  O59  1  0.15460524  0.97580692  0.48358745  1  0  -0.359139  0  2.248724  0  0  -0.289146  0  2.495779  0  0  -0.305343  0  2.49592  0  0  -0.312302  -0.277181  0  2.495043  0
O  O60  1  0.84547237  0.02405776  0.51593499  1  0  -0.358836  0  2.250747  0  0  -0.288726  0  2.497313  0  0  -0.304879  0  2.497568  0  0  -0.311963  -0.276774  0  2.496548  0
O  O61  1  0.99998854  0.69681803  0.73138946  1  0  -0.33181  0  1.754426  0  0  -0.3144  0  1.957388  0  0  -0.319957  0  1.950651  0  0  -0.113674  -0.310638  0  1.9626  0
O  O62  1  0.00009903  0.30333151  0.26857071  1  0  -0.332155  0  1.754377  0  0  -0.315049  0  1.957574  0  0  -0.320611  0  1.950847  0  0  -0.114002  -0.311256  0  1.962787  0
O  O63  1  0.82632762  0.53168795  0.73308851  1  0  -0.355789  0  1.701399  0  0  -0.33881  0  1.892019  0  0  -0.345867  0  1.884906  0  0  -0.139302  -0.333339  0  1.896387  0
O  O64  1  0.17383345  0.46855176  0.26705086  1  0  -0.355426  0  1.701439  0  0  -0.33855  0  1.892082  0  0  -0.345574  0  1.88496  0  0  -0.139126  -0.333067  0  1.896459  0
O  O65  1  0.73259228  0.50809804  0.34424952  1  0  -0.179122  0  2.242917  0  0  -0.111836  0  2.48503  0  0  -0.128144  0  2.48735  0  0  -0.020765  -0.098938  0  2.48254  0
O  O66  1  0.26737102  0.49185475  0.65577358  1  0  -0.178145  0  2.244151  0  0  -0.111567  0  2.486437  0  0  -0.127879  0  2.488749  0  0  -0.020797  -0.09868  0  2.483948  0
