# generated using pymatgen
data_HgH24C28N4Cl2O3
_symmetry_space_group_name_H-M   'P 1'
_cell_length_a   8.50387739
_cell_length_b   12.81719439
_cell_length_c   13.06162485
_cell_angle_alpha   94.30661912
_cell_angle_beta   98.33287845
_cell_angle_gamma   98.11779890
_symmetry_Int_Tables_number   1
_chemical_formula_structural   HgH24C28N4Cl2O3
_chemical_formula_sum   'Hg2 H48 C56 N8 Cl4 O6'
_cell_volume   1387.86651565
_cell_formula_units_Z   2
loop_
 _symmetry_equiv_pos_site_id
 _symmetry_equiv_pos_as_xyz
  1  'x, y, z'
loop_
 _atom_site_type_symbol
 _atom_site_label
 _atom_site_symmetry_multiplicity
 _atom_site_fract_x
 _atom_site_fract_y
 _atom_site_fract_z
 _atom_site_occupancy
 _atom_site_hle17_bader_spin_density
 _atom_site_hle17_ddec_charge
 _atom_site_hle17_ddec_spin_density
 _atom_site_hle17_ddec_sum_bond_order
 _atom_site_hle17_magmom
 _atom_site_hse06_10hf_bader_spin_density
 _atom_site_hse06_10hf_ddec_charge
 _atom_site_hse06_10hf_ddec_spin_density
 _atom_site_hse06_10hf_ddec_sum_bond_order
 _atom_site_hse06_10hf_magmom
 _atom_site_hse06_bader_spin_density
 _atom_site_hse06_ddec_charge
 _atom_site_hse06_ddec_spin_density
 _atom_site_hse06_ddec_sum_bond_order
 _atom_site_hse06_magmom
 _atom_site_pbe_bader_spin_density
 _atom_site_pbe_cm5_charge
 _atom_site_pbe_ddec_charge
 _atom_site_pbe_ddec_spin_density
 _atom_site_pbe_ddec_sum_bond_order
 _atom_site_pbe_magmom
Hg  Hg0  1  0.44145938  0.37705172  0.35774191  1  0  0.743478  0  2.09918  0  0  0.575183  0  2.609639  0  0  0.623508  0  2.576231  0  0  0.515578  0.54231  0  2.631833  0
Hg  Hg1  1  0.55854374  0.62294753  0.64225383  1  0  0.743431  0  2.09923  0  0  0.575153  0  2.609679  0  0  0.62348  0  2.57627  0  0  0.51557  0.542288  0  2.631856  0
H  H2  1  0.82217477  0.42247005  0.43035975  1  0  0.071774  0  0.960072  0  0  0.077574  0  1.029736  0  0  0.080093  0  1.027113  0  0  0.10453  0.075704  0  1.031671  0
H  H3  1  0.17783130  0.57753630  0.56963915  1  0  0.071779  0  0.960064  0  0  0.077573  0  1.029743  0  0  0.080095  0  1.027117  0  0  0.104529  0.075709  0  1.031674  0
H  H4  1  0.04800299  0.41317492  0.57350494  1  0  0.110234  0  0.970724  0  0  0.116198  0  1.039988  0  0  0.119331  0  1.038813  0  0  0.099734  0.113974  0  1.040965  0
H  H5  1  0.95200704  0.58683296  0.42649905  1  0  0.110121  0  0.970882  0  0  0.116093  0  1.040128  0  0  0.119226  0  1.038955  0  0  0.099689  0.113869  0  1.041104  0
H  H6  1  0.69303961  0.28529843  0.75427532  1  0  0.107476  0  0.947753  0  0  0.118797  0  1.007722  0  0  0.12216  0  1.006309  0  0  0.109192  0.116342  0  1.00895  0
H  H7  1  0.30696093  0.71470006  0.24571783  1  0  0.107546  0  0.947767  0  0  0.118898  0  1.007687  0  0  0.122237  0  1.006303  0  0  0.109211  0.116442  0  1.008917  0
H  H8  1  0.48011937  0.30376828  0.60413325  1  0  0.075978  0  0.948302  0  0  0.082045  0  1.017483  0  0  0.084318  0  1.015617  0  0  0.107247  0.080386  0  1.01885  0
H  H9  1  0.51988177  0.69623256  0.39586397  1  0  0.075913  0  0.948335  0  0  0.081988  0  1.017502  0  0  0.08426  0  1.015637  0  0  0.107214  0.080327  0  1.01887  0
H  H10  1  0.13855074  0.37231144  0.74843557  1  0  0.072962  0  0.970057  0  0  0.082184  0  1.040282  0  0  0.08321  0  1.039142  0  0  0.094062  0.081438  0  1.041219  0
H  H11  1  0.86145495  0.62769325  0.25157234  1  0  0.073001  0  0.970167  0  0  0.08218  0  1.040341  0  0  0.0832  0  1.039207  0  0  0.094062  0.081442  0  1.041283  0
H  H12  1  0.00082137  0.38900374  0.83587396  1  0  0.085609  0  0.918863  0  0  0.102946  0  0.973301  0  0  0.103089  0  0.973362  0  0  0.115541  0.102793  0  0.973379  0
H  H13  1  0.99916413  0.61100110  0.16412826  1  0  0.08571  0  0.918914  0  0  0.102967  0  0.973371  0  0  0.103107  0  0.973428  0  0  0.1156  0.102828  0  0.973447  0
H  H14  1  0.17464023  0.26464128  0.63232417  1  0  0.103094  0  0.987473  0  0  0.1104  0  1.057554  0  0  0.113333  0  1.056181  0  0  0.095411  0.108296  0  1.058693  0
H  H15  1  0.82536428  0.73536340  0.36768516  1  0  0.103012  0  0.987532  0  0  0.110332  0  1.057598  0  0  0.113264  0  1.056225  0  0  0.095397  0.10823  0  1.058731  0
H  H16  1  0.24927205  0.12187051  0.52508792  1  0  0.081994  0  0.968215  0  0  0.092954  0  1.03282  0  0  0.095679  0  1.030704  0  0  0.092049  0.090978  0  1.03439  0
H  H17  1  0.75073105  0.87813822  0.47491319  1  0  0.082011  0  0.968189  0  0  0.093018  0  1.032762  0  0  0.095743  0  1.030643  0  0  0.092076  0.091042  0  1.034332  0
H  H18  1  0.02585075  0.89189048  0.70308952  1  0  0.106666  0  0.952591  0  0  0.113459  0  1.019521  0  0  0.117122  0  1.01657  0  0  0.10186  0.110824  0  1.021664  0
H  H19  1  0.97413910  0.10811753  0.29691030  1  0  0.106661  0  0.952694  0  0  0.113473  0  1.019615  0  0  0.117151  0  1.01664  0  0  0.101889  0.110834  0  1.021768  0
H  H20  1  0.18162891  0.92476000  0.45822957  1  0  0.097659  0  0.96937  0  0  0.117347  0  1.034868  0  0  0.117738  0  1.036648  0  0  0.082832  0.117001  0  1.033684  0
H  H21  1  0.81836489  0.07524960  0.54176845  1  0  0.097687  0  0.969243  0  0  0.117331  0  1.034779  0  0  0.117723  0  1.036557  0  0  0.082795  0.116988  0  1.033595  0
H  H22  1  0.11146195  0.83229413  0.54218759  1  0  0.110385  0  0.957769  0  0  0.129957  0  1.019922  0  0  0.130818  0  1.020996  0  0  0.084132  0.129279  0  1.019244  0
H  H23  1  0.88853087  0.16771147  0.45781384  1  0  0.110401  0  0.95778  0  0  0.129981  0  1.019904  0  0  0.130841  0  1.02098  0  0  0.084151  0.129306  0  1.019227  0
H  H24  1  0.31470624  0.89496447  0.56596292  1  0  0.097232  0  0.980212  0  0  0.115906  0  1.046014  0  0  0.116348  0  1.047755  0  0  0.079295  0.115546  0  1.044824  0
H  H25  1  0.68528955  0.10504348  0.43404051  1  0  0.097241  0  0.98028  0  0  0.11591  0  1.04608  0  0  0.116351  0  1.047824  0  0  0.079302  0.115547  0  1.044892  0
H  H26  1  0.87221073  0.73413059  0.85394625  1  0  0.105101  0  0.947025  0  0  0.114477  0  1.008844  0  0  0.118097  0  1.005752  0  0  0.102343  0.111889  0  1.011072  0
H  H27  1  0.12779617  0.26586462  0.14605641  1  0  0.105063  0  0.94709  0  0  0.114447  0  1.008902  0  0  0.118067  0  1.005809  0  0  0.102343  0.111861  0  1.011127  0
H  H28  1  0.62101590  0.53840135  0.05026721  1  0  0.09038  0  0.963005  0  0  0.101388  0  1.025276  0  0  0.103858  0  1.024149  0  0  0.094421  0.099592  0  1.02616  0
H  H29  1  0.37899534  0.46159700  0.94973687  1  0  0.090413  0  0.962979  0  0  0.101444  0  1.025216  0  0  0.103917  0  1.024086  0  0  0.094442  0.099649  0  1.026101  0
H  H30  1  0.53847451  0.69429884  0.13418310  1  0  0.095571  0  0.978327  0  0  0.105036  0  1.045605  0  0  0.108072  0  1.044298  0  0  0.095581  0.102906  0  1.046609  0
H  H31  1  0.46152566  0.30569801  0.86581753  1  0  0.095571  0  0.978327  0  0  0.105032  0  1.045601  0  0  0.108067  0  1.044296  0  0  0.095565  0.102902  0  1.046604  0
H  H32  1  0.81381605  0.53863189  0.81140600  1  0  0.096891  0  0.970801  0  0  0.11552  0  1.040148  0  0  0.11629  0  1.040782  0  0  0.081954  0.114892  0  1.039783  0
H  H33  1  0.18619858  0.46136085  0.18860253  1  0  0.096968  0  0.970856  0  0  0.115647  0  1.040146  0  0  0.116422  0  1.040773  0  0  0.081964  0.115019  0  1.03978  0
H  H34  1  0.71622201  0.45705876  0.89494803  1  0  0.105573  0  0.953364  0  0  0.126894  0  1.014492  0  0  0.128241  0  1.0145  0  0  0.087182  0.125895  0  1.014516  0
H  H35  1  0.28379697  0.54293709  0.10506575  1  0  0.105644  0  0.953367  0  0  0.12704  0  1.014382  0  0  0.128384  0  1.01439  0  0  0.087247  0.126041  0  1.014407  0
H  H36  1  0.92090029  0.51544215  0.93213779  1  0  0.097874  0  0.96  0  0  0.119427  0  1.021587  0  0  0.120748  0  1.021016  0  0  0.086557  0.118452  0  1.022015  0
H  H37  1  0.07911730  0.48455294  0.06787274  1  0  0.098011  0  0.959928  0  0  0.119589  0  1.02148  0  0  0.120914  0  1.020903  0  0  0.086577  0.11861  0  1.021909  0
H  H38  1  0.58106606  0.84740092  0.23029416  1  0  0.058983  0  0.94962  0  0  0.073274  0  1.017527  0  0  0.072641  0  1.018769  0  0  0.102255  0.073703  0  1.016676  0
H  H39  1  0.41892580  0.15259599  0.76970341  1  0  0.058974  0  0.949597  0  0  0.073287  0  1.017515  0  0  0.072654  0  1.018756  0  0  0.102251  0.073718  0  1.016663  0
H  H40  1  0.40304073  0.84854312  0.13725976  1  0  0.078718  0  0.922692  0  0  0.089899  0  0.990204  0  0  0.091194  0  0.987476  0  0  0.109777  0.088961  0  0.992157  0
H  H41  1  0.59695430  0.15145216  0.86274026  1  0  0.078722  0  0.922688  0  0  0.089967  0  0.990138  0  0  0.091262  0  0.987411  0  0  0.109775  0.089027  0  0.992093  0
H  H42  1  0.66705176  0.08056182  0.11038368  1  0  0.134678  0  0.954419  0  0  0.132948  0  1.029381  0  0  0.138481  0  1.024881  0  0  0.112847  0.128973  0  1.032737  0
H  H43  1  0.33294624  0.91943111  0.88961107  1  0  0.134755  0  0.954318  0  0  0.133015  0  1.029291  0  0  0.138549  0  1.024788  0  0  0.112883  0.129044  0  1.032648  0
H  H44  1  0.63436117  0.26157554  0.18740716  1  0  0.077506  0  0.927837  0  0  0.087733  0  0.986348  0  0  0.090031  0  0.984657  0  0  0.112738  0.086004  0  0.987652  0
H  H45  1  0.36563703  0.73841816  0.81259073  1  0  0.077468  0  0.927797  0  0  0.087693  0  0.986312  0  0  0.089997  0  0.984615  0  0  0.112699  0.085954  0  0.987627  0
H  H46  1  0.33265838  0.13266127  0.38203550  1  0  0.065123  0  0.965305  0  0  0.072393  0  1.036937  0  0  0.074503  0  1.034376  0  0  0.102761  0.070821  0  1.038816  0
H  H47  1  0.66733921  0.86733486  0.61795718  1  0  0.065168  0  0.965323  0  0  0.072418  0  1.036947  0  0  0.074526  0  1.034392  0  0  0.102772  0.070845  0  1.038824  0
H  H48  1  0.36128694  0.94768941  0.32011461  1  0  0.104179  0  0.94535  0  0  0.117133  0  1.002344  0  0  0.119784  0  1.002622  0  0  0.106369  0.115228  0  1.00231  0
H  H49  1  0.63870569  0.05231071  0.67987794  1  0  0.10423  0  0.945351  0  0  0.117245  0  1.002246  0  0  0.119898  0  1.002521  0  0  0.106423  0.115342  0  1.002214  0
C  C50  1  0.79889733  0.39387285  0.50412836  1  0  0.13466  0  3.719904  0  0  0.103675  0  3.972274  0  0  0.11121  0  3.990855  0  0  0.042171  0.098884  0  3.959529  0
C  C51  1  0.20111191  0.60612716  0.49586801  1  0  0.134735  0  3.719594  0  0  0.10375  0  3.971938  0  0  0.111284  0  3.990519  0  0  0.042152  0.098953  0  3.959193  0
C  C52  1  0.92396011  0.38870179  0.58430788  1  0  -0.1565  0  3.69507  0  0  -0.173345  0  3.937498  0  0  -0.181418  0  3.959559  0  0  -0.083498  -0.16814  0  3.922658  0
C  C53  1  0.07604499  0.61129586  0.41568869  1  0  -0.156438  0  3.694914  0  0  -0.173244  0  3.93731  0  0  -0.181324  0  3.95937  0  0  -0.083457  -0.16804  0  3.922475  0
C  C54  1  0.88810347  0.34977130  0.67652082  1  0  0.11326  0  3.719675  0  0  0.129946  0  3.951724  0  0  0.133514  0  3.9741  0  0  0.007737  0.127818  0  3.936457  0
C  C55  1  0.11189311  0.65023512  0.32347643  1  0  0.113392  0  3.71963  0  0  0.129955  0  3.951723  0  0  0.133537  0  3.974052  0  0  0.007704  0.127837  0  3.936464  0
C  C56  1  0.72601162  0.31694162  0.68377752  1  0  -0.152989  0  3.699738  0  0  -0.17199  0  3.945754  0  0  -0.179293  0  3.966868  0  0  -0.081488  -0.167279  0  3.931591  0
C  C57  1  0.27398456  0.68306322  0.31621804  1  0  -0.153117  0  3.699763  0  0  -0.172144  0  3.945824  0  0  -0.179436  0  3.966942  0  0  -0.081496  -0.167424  0  3.931648  0
C  C58  1  0.60786855  0.32586841  0.60068704  1  0  0.111964  0  3.745537  0  0  0.08406  0  3.998786  0  0  0.090596  0  4.01842  0  0  0.036903  0.079865  0  3.985358  0
C  C59  1  0.39213297  0.67413403  0.39930805  1  0  0.112138  0  3.745484  0  0  0.084243  0  3.998725  0  0  0.090784  0  4.018348  0  0  0.036953  0.080047  0  3.985298  0
C  C60  1  0.01875252  0.34223493  0.76583444  1  0  0.035065  0  3.620495  0  0  -0.025188  0  3.872645  0  0  -0.017514  0  3.876654  0  0  -0.059122  -0.030468  0  3.869907  0
C  C61  1  0.98124406  0.65777145  0.23416664  1  0  0.034787  0  3.621089  0  0  -0.025209  0  3.872918  0  0  -0.017519  0  3.876882  0  0  -0.059122  -0.030527  0  3.870246  0
C  C62  1  0.05734770  0.16148311  0.73215097  1  0  0.252957  0  3.771597  0  0  0.235771  0  4.033331  0  0  0.247998  0  4.048625  0  0  0.088638  0.227456  0  4.022881  0
C  C63  1  0.94264671  0.83851928  0.26785341  1  0  0.252893  0  3.771656  0  0  0.235627  0  4.033468  0  0  0.247852  0  4.048764  0  0  0.088606  0.227315  0  4.023014  0
C  C64  1  0.14293019  0.18362978  0.65050493  1  0  -0.210143  0  3.795389  0  0  -0.230075  0  4.05462  0  0  -0.236138  0  4.074899  0  0  -0.112674  -0.226038  0  4.040905  0
C  C65  1  0.85705533  0.81637031  0.34949461  1  0  -0.209941  0  3.795262  0  0  -0.229875  0  4.054537  0  0  -0.235936  0  4.074815  0  0  -0.112592  -0.225841  0  4.04082  0
C  C66  1  0.18578443  0.10153527  0.58937569  1  0  -0.091102  0  3.745112  0  0  -0.111442  0  3.989996  0  0  -0.110709  0  4.00929  0  0  -0.091814  -0.111648  0  3.976753  0
C  C67  1  0.81421116  0.89846718  0.41062115  1  0  -0.091161  0  3.745248  0  0  -0.111554  0  3.99014  0  0  -0.11082  0  4.009432  0  0  -0.091869  -0.111755  0  3.976896  0
C  C68  1  0.14503374  0.99523169  0.60644634  1  0  0.119866  0  3.785962  0  0  0.148996  0  4.018785  0  0  0.14749  0  4.044465  0  0  -0.019755  0.149809  0  4.001333  0
C  C69  1  0.85496067  0.00477075  0.39355269  1  0  0.119826  0  3.785885  0  0  0.148968  0  4.018694  0  0  0.147456  0  4.04438  0  0  -0.019773  0.149783  0  4.001243  0
C  C70  1  0.06043956  0.97390054  0.68829468  1  0  -0.121033  0  3.686133  0  0  -0.153402  0  3.937167  0  0  -0.152738  0  3.955698  0  0  -0.086787  -0.15353  0  3.924474  0
C  C71  1  0.93956058  0.02610581  0.31170750  1  0  -0.120755  0  3.686113  0  0  -0.153172  0  3.937109  0  0  -0.152508  0  3.95565  0  0  -0.086724  -0.153311  0  3.924415  0
C  C72  1  0.01638995  0.05467917  0.75228267  1  0  -0.115505  0  3.794282  0  0  -0.106942  0  4.044845  0  0  -0.113017  0  4.065127  0  0  -0.0234  -0.103038  0  4.031217  0
C  C73  1  0.98360941  0.94532398  0.24772300  1  0  -0.115787  0  3.794571  0  0  -0.107119  0  4.045126  0  0  -0.113197  0  4.065408  0  0  -0.023419  -0.103194  0  4.031476  0
C  C74  1  0.19045821  0.90715356  0.53967318  1  0  -0.328835  0  3.730881  0  0  -0.406504  0  3.961542  0  0  -0.409079  0  3.973413  0  0  -0.246878  -0.404437  0  3.953356  0
C  C75  1  0.80953759  0.09284968  0.46032527  1  0  -0.328905  0  3.730834  0  0  -0.406534  0  3.961513  0  0  -0.4091  0  3.973373  0  0  -0.246856  -0.40447  0  3.953328  0
C  C76  1  0.92874448  0.02653317  0.83596173  1  0  0.359127  0  3.72411  0  0  0.322004  0  4.015253  0  0  0.339826  0  4.023123  0  0  0.212771  0.310124  0  4.009899  0
C  C77  1  0.07124203  0.97346614  0.16403707  1  0  0.359244  0  3.723989  0  0  0.321959  0  4.015285  0  0  0.339788  0  4.023161  0  0  0.212706  0.310076  0  4.009932  0
C  C78  1  0.81173892  0.91903741  0.93137648  1  0  0.371283  0  3.696983  0  0  0.335531  0  3.983836  0  0  0.353588  0  3.992118  0  0  0.216359  0.323485  0  3.978173  0
C  C79  1  0.18824958  0.08096026  0.06862697  1  0  0.371469  0  3.6971  0  0  0.335551  0  3.984075  0  0  0.353617  0  3.992362  0  0  0.216399  0.323512  0  3.97841  0
C  C80  1  0.75681808  0.81652808  0.96401655  1  0  -0.10879  0  3.792804  0  0  -0.103003  0  4.047282  0  0  -0.109959  0  4.068831  0  0  -0.0185  -0.098482  0  4.032794  0
C  C81  1  0.24317913  0.18346639  0.03598515  1  0  -0.108979  0  3.792894  0  0  -0.103042  0  4.047265  0  0  -0.109997  0  4.068808  0  0  -0.018575  -0.098527  0  4.03278  0
C  C82  1  0.79928000  0.72519462  0.91574951  1  0  -0.116937  0  3.694127  0  0  -0.149944  0  3.944749  0  0  -0.1487  0  3.962781  0  0  -0.0871  -0.15046  0  3.932366  0
C  C83  1  0.20073124  0.27480372  0.08425534  1  0  -0.116877  0  3.693979  0  0  -0.149888  0  3.944566  0  0  -0.148656  0  3.962622  0  0  -0.08705  -0.150405  0  3.932185  0
C  C84  1  0.75163350  0.62443580  0.94462469  1  0  0.114283  0  3.794196  0  0  0.143423  0  4.030419  0  0  0.140606  0  4.057411  0  0  -0.023058  0.145102  0  4.012119  0
C  C85  1  0.24838645  0.37556404  0.05538568  1  0  0.114446  0  3.793725  0  0  0.143517  0  4.030088  0  0  0.140701  0  4.05708  0  0  -0.023106  0.145191  0  4.011795  0
C  C86  1  0.65797595  0.61575521  0.02428129  1  0  -0.085827  0  3.742014  0  0  -0.107739  0  3.988768  0  0  -0.107011  0  4.009271  0  0  -0.090451  -0.107912  0  3.974681  0
C  C87  1  0.34202618  0.38424478  0.97572132  1  0  -0.085853  0  3.741818  0  0  -0.107758  0  3.988601  0  0  -0.10702  0  4.009079  0  0  -0.090452  -0.107929  0  3.974517  0
C  C88  1  0.61115311  0.70447476  0.07255514  1  0  -0.204821  0  3.789784  0  0  -0.226736  0  4.050473  0  0  -0.233029  0  4.070377  0  0  -0.113283  -0.222595  0  4.036999  0
C  C89  1  0.38884192  0.29552054  0.92744336  1  0  -0.20485  0  3.789787  0  0  -0.22678  0  4.05053  0  0  -0.233072  0  4.070436  0  0  -0.113258  -0.222639  0  4.037059  0
C  C90  1  0.65986703  0.80531373  0.04324753  1  0  0.267927  0  3.767248  0  0  0.246408  0  4.031678  0  0  0.259511  0  4.046533  0  0  0.095464  0.237515  0  4.021494  0
C  C91  1  0.34012424  0.19468080  0.95674979  1  0  0.26811  0  3.767241  0  0  0.24657  0  4.031663  0  0  0.259673  0  4.04652  0  0  0.095504  0.23768  0  4.021484  0
C  C92  1  0.80272668  0.52876115  0.89296446  1  0  -0.331296  0  3.758375  0  0  -0.411928  0  3.99369  0  0  -0.414021  0  4.004907  0  0  -0.243099  -0.410146  0  3.985889  0
C  C93  1  0.19729071  0.47123790  0.10704715  1  0  -0.33173  0  3.7583  0  0  -0.41247  0  3.993619  0  0  -0.414566  0  4.004826  0  0  -0.243208  -0.410695  0  3.985845  0
C  C94  1  0.52601281  0.88995964  0.16737957  1  0  0.043163  0  3.644677  0  0  -0.023289  0  3.902407  0  0  -0.015282  0  3.906656  0  0  -0.056131  -0.028642  0  3.899166  0
C  C95  1  0.47398478  0.11003645  0.83261846  1  0  0.043074  0  3.644692  0  0  -0.023488  0  3.902541  0  0  -0.015487  0  3.906806  0  0  -0.056224  -0.028838  0  3.899301  0
C  C96  1  0.51639302  0.00035806  0.20963932  1  0  0.135757  0  3.702722  0  0  0.150044  0  3.940468  0  0  0.154828  0  3.961554  0  0  0.018435  0.14703  0  3.92612  0
C  C97  1  0.48360042  0.99963572  0.79035278  1  0  0.13591  0  3.702275  0  0  0.15019  0  3.940091  0  0  0.154972  0  3.961186  0  0  0.018524  0.147179  0  3.925741  0
C  C98  1  0.59470650  0.08964007  0.17212659  1  0  -0.137957  0  3.648516  0  0  -0.158441  0  3.899216  0  0  -0.165507  0  3.917861  0  0  -0.07648  -0.153972  0  3.886852  0
C  C99  1  0.40529031  0.91035286  0.82786958  1  0  -0.13795  0  3.647946  0  0  -0.158441  0  3.898675  0  0  -0.165504  0  3.917314  0  0  -0.076464  -0.153977  0  3.886316  0
C  C100  1  0.57615678  0.18939555  0.21414960  1  0  0.129026  0  3.712795  0  0  0.100834  0  3.960984  0  0  0.107741  0  3.981045  0  0  0.046696  0.096433  0  3.947284  0
C  C101  1  0.42384241  0.81059737  0.78584679  1  0  0.128968  0  3.712784  0  0  0.1008  0  3.96097  0  0  0.1077  0  3.981029  0  0  0.046673  0.096406  0  3.947273  0
C  C102  1  0.40920547  0.11742604  0.32414141  1  0  0.120924  0  3.749149  0  0  0.088278  0  4.006554  0  0  0.096399  0  4.024171  0  0  0.036343  0.083054  0  3.994497  0
C  C103  1  0.59079232  0.88257088  0.67585212  1  0  0.120855  0  3.749174  0  0  0.088242  0  4.006547  0  0  0.096366  0  4.024157  0  0  0.036403  0.083023  0  3.994489  0
C  C104  1  0.42394311  0.01506214  0.28833464  1  0  -0.171848  0  3.724529  0  0  -0.189719  0  3.971059  0  0  -0.197964  0  3.992668  0  0  -0.088156  -0.18442  0  3.956572  0
C  C105  1  0.57604992  0.98493483  0.71165615  1  0  -0.172021  0  3.724664  0  0  -0.189898  0  3.971125  0  0  -0.198143  0  3.992729  0  0  -0.08825  -0.1846  0  3.956641  0
N  N106  1  0.86836007  0.08453495  0.90336684  1  0  -0.28151  0  2.922501  0  0  -0.272132  0  3.222364  0  0  -0.279038  0  3.230519  0  0  -0.232839  -0.267563  0  3.217005  0
N  N107  1  0.13162624  0.91546357  0.09663034  1  0  -0.281603  0  2.922452  0  0  -0.272179  0  3.222325  0  0  -0.279085  0  3.230483  0  0  -0.232878  -0.267615  0  3.21697  0
N  N108  1  0.79342319  0.01544146  0.96487944  1  0  -0.265981  0  2.91198  0  0  -0.252038  0  3.209668  0  0  -0.259564  0  3.218346  0  0  -0.224235  -0.247027  0  3.203912  0
N  N109  1  0.20656649  0.98455624  0.03512029  1  0  -0.265912  0  2.912037  0  0  -0.251917  0  3.209735  0  0  -0.259442  0  3.218415  0  0  -0.224178  -0.246906  0  3.203981  0
N  N110  1  0.48402973  0.20315327  0.28799699  1  0  -0.314806  0  3.286482  0  0  -0.240636  0  3.556873  0  0  -0.261986  0  3.579272  0  0  -0.321136  -0.226147  0  3.541214  0
N  N111  1  0.51597300  0.79684440  0.71199936  1  0  -0.314674  0  3.286561  0  0  -0.240543  0  3.556947  0  0  -0.261898  0  3.579362  0  0  -0.321166  -0.226053  0  3.541287  0
N  N112  1  0.64398217  0.36394290  0.51227444  1  0  -0.313855  0  3.26831  0  0  -0.240283  0  3.53562  0  0  -0.260799  0  3.556697  0  0  -0.314971  -0.226286  0  3.520837  0
N  N113  1  0.35603004  0.63605948  0.48772088  1  0  -0.313989  0  3.268191  0  0  -0.24044  0  3.535521  0  0  -0.260958  0  3.556596  0  0  -0.314952  -0.226444  0  3.520743  0
Cl  Cl114  1  0.61175188  0.49556623  0.27114032  1  0  -0.48831  0  0.943514  0  0  -0.425382  0  1.211869  0  0  -0.443008  0  1.194032  0  0  -0.275065  -0.413378  0  1.223986  0
Cl  Cl115  1  0.38825005  0.50443301  0.72885761  1  0  -0.488317  0  0.943517  0  0  -0.425402  0  1.211883  0  0  -0.443029  0  1.194047  0  0  -0.275074  -0.413399  0  1.223999  0
Cl  Cl116  1  0.18609635  0.32171382  0.41101044  1  0  -0.481236  0  0.927095  0  0  -0.417159  0  1.191304  0  0  -0.434743  0  1.174145  0  0  -0.276936  -0.405151  0  1.202914  0
Cl  Cl117  1  0.81391250  0.67828934  0.58898922  1  0  -0.481214  0  0.927068  0  0  -0.417142  0  1.191272  0  0  -0.434727  0  1.174113  0  0  -0.276917  -0.405136  0  1.202878  0
O  O118  1  0.89773246  0.92079031  0.84995969  1  0  -0.281333  0  2.330099  0  0  -0.202312  0  2.547157  0  0  -0.22151  0  2.55018  0  0  -0.104972  -0.189495  0  2.544984  0
O  O119  1  0.10226256  0.07920969  0.15004532  1  0  -0.28148  0  2.330272  0  0  -0.202352  0  2.547408  0  0  -0.221581  0  2.550455  0  0  -0.104965  -0.189535  0  2.545235  0
O  O120  1  0.62129534  0.89586373  0.08655153  1  0  -0.259696  0  2.413186  0  0  -0.183394  0  2.648435  0  0  -0.203459  0  2.654632  0  0  -0.158766  -0.169253  0  2.643715  0
O  O121  1  0.37870543  0.10413073  0.91344896  1  0  -0.259857  0  2.41314  0  0  -0.183548  0  2.648441  0  0  -0.203607  0  2.654637  0  0  -0.158826  -0.169412  0  2.643733  0
O  O122  1  0.00974140  0.23621848  0.79553195  1  0  -0.264049  0  2.36045  0  0  -0.19703  0  2.599324  0  0  -0.216529  0  2.604521  0  0  -0.167172  -0.183265  0  2.595372  0
O  O123  1  0.99026468  0.76378782  0.20447383  1  0  -0.263955  0  2.360638  0  0  -0.196941  0  2.59942  0  0  -0.216438  0  2.6046  0  0  -0.167195  -0.183183  0  2.595498  0
