# generated using pymatgen
data_CuH12C18(NO)3
_symmetry_space_group_name_H-M   'P 1'
_cell_length_a   15.30783739
_cell_length_b   19.37361449
_cell_length_c   20.89910552
_cell_angle_alpha   90.00006970
_cell_angle_beta   99.66881120
_cell_angle_gamma   89.99977692
_symmetry_Int_Tables_number   1
_chemical_formula_structural   CuH12C18(NO)3
_chemical_formula_sum   'Cu8 H96 C144 N24 O24'
_cell_volume   6109.96638554
_cell_formula_units_Z   8
loop_
 _symmetry_equiv_pos_site_id
 _symmetry_equiv_pos_as_xyz
  1  'x, y, z'
loop_
 _atom_site_type_symbol
 _atom_site_label
 _atom_site_symmetry_multiplicity
 _atom_site_fract_x
 _atom_site_fract_y
 _atom_site_fract_z
 _atom_site_occupancy
 _atom_site_pbe_bader_charge
 _atom_site_pbe_bader_spin_density
 _atom_site_pbe_cm5_charge
 _atom_site_pbe_ddec_charge
 _atom_site_pbe_ddec_spin_density
 _atom_site_pbe_ddec_sum_bond_order
 _atom_site_pbe_magmom
Cu  Cu0  1  0.67732001  0.53488313  0.76168661  1  1.050561  0.546524  0.738072  0.720451  0.716478  2.421493  0.546
Cu  Cu1  1  0.54571704  0.46025249  0.82837382  1  1.082291  0.542283  0.73652  0.816939  0.699247  2.26233  0.538
Cu  Cu2  1  0.67731923  0.96512466  0.26168628  1  1.050421  0.546523  0.738087  0.720343  0.716473  2.421312  0.546
Cu  Cu3  1  0.54571497  0.03975758  0.32837047  1  1.082307  0.542268  0.736468  0.816911  0.699218  2.262306  0.538
Cu  Cu4  1  0.32266438  0.03486029  0.73830491  1  1.052759  0.546536  0.738068  0.720299  0.716476  2.421539  0.546
Cu  Cu5  1  0.45428199  0.96020828  0.67163570  1  1.082629  0.542259  0.736532  0.817134  0.699151  2.262047  0.538
Cu  Cu6  1  0.32266029  0.46513021  0.23830370  1  1.052823  0.546528  0.738015  0.720121  0.716472  2.421722  0.546
Cu  Cu7  1  0.45427594  0.53978718  0.17162997  1  1.082503  0.542263  0.736667  0.817171  0.699161  2.262054  0.538
H  H8  1  0.62718445  0.95049960  0.11577343  1  0.115098  -4.1e-05  0.115917  0.09183  -6.2e-05  1.000339  0.0
H  H9  1  0.61596262  0.86365361  0.02685798  1  0.107569  9e-06  0.10876  0.114445  6e-06  1.004514  0.0
H  H10  1  0.69874164  0.70918472  0.17422886  1  0.08674  5e-05  0.108168  0.115841  3e-05  1.0138  0.0
H  H11  1  0.69954748  0.80234189  0.25647603  1  0.053013  9e-06  0.114406  0.085302  -0.0  1.0022  0.0
H  H12  1  0.67544394  0.80250241  0.96665115  1  0.059868  0.000169  0.102462  0.100082  8.3e-05  1.00787  0.0
H  H13  1  0.67870753  0.71674189  0.87967215  1  0.059372  0.000344  0.104071  0.107727  0.000272  1.002897  0.0
H  H14  1  0.65687600  0.55221346  0.01409191  1  0.100691  8.8e-05  0.107019  0.112524  3.9e-05  1.00855  0.0
H  H15  1  0.65187288  0.63723896  0.10147809  1  0.063641  0.000165  0.100836  0.10122  4.4e-05  1.036138  0.0
H  H16  1  0.82968267  0.62205974  0.80477692  1  0.118787  0.001688  0.120347  0.093516  0.000764  1.001974  0.001
H  H17  1  0.99428083  0.61508093  0.82028179  1  0.090264  0.000954  0.112069  0.117848  0.000519  0.994822  0.0
H  H18  1  0.96616960  0.39660081  0.78009234  1  0.080269  0.001154  0.11203  0.118366  0.000623  0.992181  0.001
H  H19  1  0.80265307  0.41395197  0.76199845  1  0.108615  0.001878  0.124428  0.100587  0.000857  0.986908  0.001
H  H20  1  0.11470623  0.57634614  0.88673805  1  0.059773  0.000312  0.103763  0.101993  0.000169  1.001217  0.0
H  H21  1  0.27917242  0.56873348  0.90132954  1  0.104942  4.8e-05  0.107317  0.111634  -2e-06  1.007809  0.0
H  H22  1  0.25957128  0.41255347  0.75432895  1  0.08709  0.000648  0.104628  0.110547  0.000526  0.996664  0.0
H  H23  1  0.09457564  0.41948892  0.73826187  1  0.058269  0.000144  0.100463  0.098022  7.6e-05  1.006188  0.0
H  H24  1  0.55524897  0.03422642  0.46660249  1  0.109985  0.002332  0.122765  0.101125  0.001123  1.008444  0.002
H  H25  1  0.57172969  0.11492022  0.55888470  1  0.151392  0.000932  0.109278  0.134087  0.000528  1.047519  0.001
H  H26  1  0.56239402  0.28176821  0.41880594  1  0.073296  0.001124  0.10738  0.112788  0.000627  1.009425  0.001
H  H27  1  0.55115519  0.19190626  0.33274988  1  0.112519  0.002304  0.123456  0.106162  0.001141  0.994134  0.002
H  H28  1  0.52962390  0.19162723  0.61944342  1  0.108009  0.000519  0.103504  0.106582  0.000361  1.021799  0.0
H  H29  1  0.55649672  0.27518213  0.70971688  1  0.12397  0.000114  0.104898  0.11054  8.2e-05  1.014006  0.0
H  H30  1  0.66880487  0.41832192  0.58898394  1  0.087889  0.000409  0.101579  0.106402  0.000351  1.008264  0.0
H  H31  1  0.64359285  0.33469682  0.49777906  1  0.054247  0.000122  0.101028  0.101266  6.5e-05  1.007459  0.0
H  H32  1  0.62717456  0.54951074  0.61577299  1  0.115338  -4.1e-05  0.115887  0.091797  -6.2e-05  1.00035  0.0
H  H33  1  0.61594899  0.63635355  0.52685671  1  0.107558  9e-06  0.108713  0.114432  6e-06  1.004611  0.0
H  H34  1  0.69873386  0.79082392  0.67422416  1  0.086665  5e-05  0.108183  0.115881  3e-05  1.013842  0.0
H  H35  1  0.69954019  0.69766893  0.75647558  1  0.052791  9e-06  0.114451  0.085442  -0.0  1.002057  0.0
H  H36  1  0.67544244  0.69750205  0.46664756  1  0.06  0.000169  0.102491  0.100106  8.3e-05  1.007897  0.0
H  H37  1  0.67870495  0.78326193  0.37966805  1  0.059335  0.000343  0.104067  0.107728  0.000272  1.002886  0.0
H  H38  1  0.65686482  0.94779046  0.51408792  1  0.100817  8.8e-05  0.107078  0.112589  3.9e-05  1.008622  0.0
H  H39  1  0.65185945  0.86276458  0.60147183  1  0.063054  0.000165  0.100845  0.101248  4.4e-05  1.036162  0.0
H  H40  1  0.82968235  0.87794558  0.30478133  1  0.11891  0.001688  0.120364  0.093531  0.000764  1.001977  0.001
H  H41  1  0.99428178  0.88492338  0.32028397  1  0.090322  0.000954  0.112092  0.117865  0.000519  0.994755  0.0
H  H42  1  0.96617125  0.10340274  0.28009524  1  0.080197  0.001154  0.111983  0.118336  0.000624  0.992163  0.001
H  H43  1  0.80265482  0.08605361  0.26200231  1  0.108467  0.001878  0.124488  0.10054  0.000857  0.987123  0.001
H  H44  1  0.11470696  0.92365890  0.38673498  1  0.059907  0.000312  0.103781  0.101984  0.000169  1.001206  0.0
H  H45  1  0.27917376  0.93126901  0.40132464  1  0.105015  4.8e-05  0.107355  0.111642  -2e-06  1.007903  0.0
H  H46  1  0.25956964  0.08745015  0.25432522  1  0.086765  0.000648  0.104657  0.110576  0.000526  0.996755  0.0
H  H47  1  0.09457339  0.08051570  0.23826046  1  0.058125  0.000144  0.100486  0.098005  7.6e-05  1.006218  0.0
H  H48  1  0.55524239  0.46577916  0.96660482  1  0.109815  0.002332  0.122733  0.101119  0.001123  1.008595  0.002
H  H49  1  0.57172003  0.38508167  0.05888417  1  0.151279  0.000932  0.109257  0.134101  0.000529  1.047405  0.001
H  H50  1  0.56239121  0.21823986  0.91879840  1  0.073476  0.001124  0.107369  0.112745  0.000627  1.009481  0.001
H  H51  1  0.55115662  0.30810586  0.83274772  1  0.112467  0.002305  0.123407  0.106162  0.001141  0.994238  0.002
H  H52  1  0.52961790  0.30838054  0.11944085  1  0.107819  0.000519  0.103386  0.106389  0.000361  1.021868  0.0
H  H53  1  0.55649577  0.22482723  0.20971578  1  0.124074  0.000114  0.104938  0.110519  8.2e-05  1.014118  0.0
H  H54  1  0.66879862  0.08168487  0.08897775  1  0.087674  0.000409  0.101551  0.106297  0.000351  1.008147  0.0
H  H55  1  0.64357374  0.16530801  0.99777142  1  0.053942  0.000122  0.100983  0.101151  6.5e-05  1.007461  0.0
H  H56  1  0.37281312  0.45049796  0.38423017  1  0.11506  -4e-05  0.115925  0.09185  -6.2e-05  1.000335  0.0
H  H57  1  0.38403867  0.36365360  0.47314453  1  0.107467  9e-06  0.108729  0.114379  6e-06  1.004497  0.0
H  H58  1  0.30126172  0.20918684  0.32577324  1  0.086701  5e-05  0.108151  0.115826  3e-05  1.013917  0.0
H  H59  1  0.30045675  0.30234287  0.24352628  1  0.052714  9e-06  0.114441  0.085352  -0.0  1.002121  0.0
H  H60  1  0.32455849  0.30249271  0.53335813  1  0.060053  0.000169  0.102479  0.100081  8.3e-05  1.007929  0.0
H  H61  1  0.32130458  0.21673025  0.62033579  1  0.059188  0.000344  0.104102  0.107805  0.000273  1.002778  0.0
H  H62  1  0.34314467  0.05220791  0.48591017  1  0.100775  8.8e-05  0.107045  0.11249  3.9e-05  1.008709  0.0
H  H63  1  0.34814144  0.13723535  0.39852763  1  0.063048  0.000165  0.100832  0.101261  4.4e-05  1.036143  0.0
H  H64  1  0.17031520  0.12203938  0.69521295  1  0.119334  0.001688  0.120331  0.093285  0.000764  1.001927  0.001
H  H65  1  0.00571385  0.11506312  0.67972013  1  0.090524  0.000953  0.112107  0.117856  0.000519  0.994861  0.0
H  H66  1  0.03384084  0.89657705  0.71989742  1  0.080311  0.001154  0.11214  0.118403  0.000624  0.992233  0.001
H  H67  1  0.19735656  0.91393083  0.73798214  1  0.108472  0.001879  0.124588  0.100616  0.000856  0.987132  0.001
H  H68  1  0.88529194  0.07632450  0.61326377  1  0.060222  0.000312  0.103755  0.101944  0.000169  1.001132  0.0
H  H69  1  0.72082456  0.06872265  0.59868600  1  0.105452  4.8e-05  0.107391  0.111785  -2e-06  1.008001  0.0
H  H70  1  0.74044059  0.91253893  0.74568396  1  0.086668  0.000648  0.104635  0.110389  0.000526  0.997021  0.0
H  H71  1  0.90543611  0.91946977  0.76173955  1  0.057707  0.000144  0.100528  0.098084  7.6e-05  1.006437  0.0
H  H72  1  0.44475664  0.53422799  0.03341069  1  0.110267  0.002332  0.122781  0.101156  0.001123  1.008448  0.002
H  H73  1  0.42828952  0.61491516  0.94112206  1  0.151451  0.000932  0.109269  0.134055  0.000529  1.047624  0.001
H  H74  1  0.43761560  0.78177193  0.08119507  1  0.073232  0.001123  0.107313  0.112646  0.000627  1.009544  0.001
H  H75  1  0.44885222  0.69191419  0.16725173  1  0.112334  0.002305  0.123477  0.106086  0.001141  0.994259  0.002
H  H76  1  0.47038164  0.69162351  0.88055606  1  0.10786  0.000519  0.103422  0.106445  0.000361  1.02193  0.0
H  H77  1  0.44349649  0.77517321  0.79028026  1  0.124237  0.000114  0.104974  0.110576  8.2e-05  1.014066  0.0
H  H78  1  0.33119826  0.91831866  0.91101598  1  0.087518  0.000409  0.101605  0.106411  0.000351  1.008213  0.0
H  H79  1  0.35643110  0.83470224  0.00222468  1  0.054103  0.000122  0.101008  0.101243  6.5e-05  1.007541  0.0
H  H80  1  0.37281182  0.04949671  0.88422836  1  0.114926  -4.1e-05  0.115875  0.091782  -6.2e-05  1.000397  0.0
H  H81  1  0.38403496  0.13634116  0.97314109  1  0.107427  9e-06  0.108768  0.114425  6e-06  1.004493  0.0
H  H82  1  0.30125460  0.29080591  0.82576813  1  0.086482  5e-05  0.108183  0.115877  3e-05  1.013944  0.0
H  H83  1  0.30044877  0.19764823  0.74352384  1  0.052459  9e-06  0.114425  0.085264  -0.0  1.002242  0.0
H  H84  1  0.32456028  0.19750320  0.03335110  1  0.059842  0.000169  0.10247  0.100019  8.3e-05  1.00795  0.0
H  H85  1  0.32129933  0.28326475  0.12032803  1  0.05928  0.000344  0.10414  0.107858  0.000273  1.002853  0.0
H  H86  1  0.34313016  0.44778956  0.98590388  1  0.100852  8.8e-05  0.106996  0.112473  3.9e-05  1.008488  0.0
H  H87  1  0.34813130  0.36276148  0.89851937  1  0.063482  0.000165  0.100849  0.10132  4.4e-05  1.035986  0.0
H  H88  1  0.17031487  0.37795051  0.19521640  1  0.119136  0.001688  0.120313  0.093137  0.000764  1.00192  0.001
H  H89  1  0.00571346  0.38493138  0.17971928  1  0.090416  0.000954  0.112091  0.117823  0.000519  0.994836  0.0
H  H90  1  0.03384316  0.60341770  0.21990136  1  0.080176  0.001154  0.11208  0.118356  0.000624  0.992246  0.001
H  H91  1  0.19735897  0.58605776  0.23798751  1  0.108513  0.001878  0.124554  0.100593  0.000856  0.987215  0.001
H  H92  1  0.88528936  0.42367391  0.11326126  1  0.060259  0.000312  0.103724  0.101927  0.000169  1.001164  0.0
H  H93  1  0.72082394  0.43128090  0.09868374  1  0.105751  4.8e-05  0.107355  0.111752  -2e-06  1.007997  0.0
H  H94  1  0.74044232  0.58745832  0.24568686  1  0.086765  0.000648  0.104631  0.110399  0.000526  0.997  0.0
H  H95  1  0.90543787  0.58052391  0.26174292  1  0.057832  0.000144  0.100496  0.098086  7.6e-05  1.006252  0.0
H  H96  1  0.44475603  0.96576525  0.53341421  1  0.110192  0.002332  0.122773  0.101067  0.001123  1.008546  0.002
H  H97  1  0.42828648  0.88508280  0.44112185  1  0.151558  0.000932  0.109238  0.13407  0.000528  1.047575  0.001
H  H98  1  0.43761080  0.71822036  0.58118777  1  0.073211  0.001123  0.107319  0.112712  0.000627  1.009377  0.001
H  H99  1  0.44885098  0.80807354  0.66724782  1  0.11242  0.002305  0.123449  0.106086  0.001141  0.994227  0.002
H  H100  1  0.47037961  0.80836495  0.38055253  1  0.108111  0.000519  0.103481  0.106516  0.000361  1.021979  0.0
H  H101  1  0.44349686  0.72481263  0.29027837  1  0.124507  0.000114  0.104892  0.110497  8.2e-05  1.014057  0.0
H  H102  1  0.33119599  0.58167078  0.41101217  1  0.088085  0.000409  0.101522  0.106296  0.000351  1.008328  0.0
H  H103  1  0.35641796  0.66528968  0.50221872  1  0.054387  0.000122  0.101005  0.101341  6.5e-05  1.007496  0.0
C  C104  1  0.64235062  0.89613853  0.12611724  1  0.484359  -0.00053  0.042922  0.098745  -0.000597  3.968319  0.0
C  C105  1  0.63765266  0.84743567  0.07691703  1  -0.071884  0.000316  -0.086492  -0.18317  0.000212  3.954915  0.0
C  C106  1  0.66057044  0.77830657  0.09213033  1  -0.056002  -0.000604  0.012957  0.112158  -0.000666  3.989147  0.0
C  C107  1  0.68203772  0.76185431  0.15843076  1  -0.00029  0.000388  -0.084757  -0.17677  0.00027  3.943622  0.0
C  C108  1  0.68357570  0.81364178  0.20463529  1  0.493003  -0.000367  0.039976  0.090672  -0.0004  3.986306  0.0
C  C109  1  0.66340572  0.72649225  0.04083013  1  -0.05052  -0.000329  -0.007641  0.056763  -0.000403  3.997661  0.0
C  C110  1  0.67103414  0.74777902  0.97764182  1  -0.017537  0.000381  -0.087616  -0.124363  0.000188  3.986774  0.0
C  C111  1  0.67382531  0.69990150  0.92867574  1  -0.0122  0.000682  -0.085151  -0.091422  0.000393  3.99263  0.0
C  C112  1  0.66847430  0.62909800  0.94128884  1  -0.040259  0.013343  -0.012395  -0.018726  0.009502  3.941186  0.01
C  C113  1  0.66160797  0.60720576  0.00421719  1  0.009077  0.000624  -0.078454  -0.079135  0.000246  3.946744  0.001
C  C114  1  0.65952451  0.65531711  0.05335417  1  -0.037872  0.000637  -0.085749  -0.122431  0.000358  3.9592  0.001
C  C115  1  0.86308083  0.57338575  0.79890622  1  0.453771  -0.001373  0.045374  0.096061  -0.001696  3.955486  -0.001
C  C116  1  0.95471741  0.56864257  0.80851040  1  -0.04759  0.004823  -0.08322  -0.177875  0.003305  3.950766  0.004
C  C117  1  0.99563422  0.50477522  0.80150262  1  0.049551  -0.003602  0.016344  0.118873  -0.004016  3.989453  -0.002
C  C118  1  0.93919970  0.44807137  0.78475064  1  -0.067683  0.004757  -0.081565  -0.178272  0.003268  3.943603  0.004
C  C119  1  0.84785262  0.45698053  0.77525989  1  0.51214  -0.001318  0.052284  0.105362  -0.001609  3.939546  -0.001
C  C120  1  0.09282400  0.49856456  0.81131585  1  -0.026018  -0.000247  -0.009808  0.055672  -0.000347  4.013119  0.0
C  C121  1  0.14591091  0.54076675  0.85697506  1  -0.002672  0.000269  -0.088005  -0.128714  0.000118  3.982551  0.0
C  C122  1  0.23774814  0.53640605  0.86578874  1  -0.128387  0.000679  -0.078407  -0.082659  0.000235  3.967111  0.001
C  C123  1  0.27896778  0.49002948  0.82891436  1  0.025176  0.011018  -0.012182  -0.010456  0.007948  3.942279  0.009
C  C124  1  0.22661422  0.44766625  0.78340089  1  -0.00307  0.000265  -0.084622  -0.094451  0.000131  3.983337  0.0
C  C125  1  0.13458058  0.45160679  0.77488344  1  -0.055831  -0.000381  -0.090843  -0.133295  -0.00052  3.992164  0.0
C  C126  1  0.37859680  0.48709803  0.83885761  1  1.519833  -0.002106  0.187134  0.540403  -0.002669  4.259269  -0.004
C  C127  1  0.66633728  0.57847551  0.88696225  1  1.558913  -6.1e-05  0.20658  0.576095  0.000192  4.178282  -0.002
C  C128  1  0.55818603  0.08961514  0.45884760  1  0.497952  -0.000655  0.049392  0.10803  -0.000993  3.915265  0.0
C  C129  1  0.56683553  0.13595499  0.51003151  1  -0.020245  0.006144  -0.08401  -0.180003  0.00415  3.920555  0.005
C  C130  1  0.57073192  0.20700987  0.49776718  1  0.005385  -0.003397  0.013054  0.11194  -0.00381  3.985603  -0.002
C  C131  1  0.56316108  0.22747169  0.43246600  1  -0.070748  0.005924  -0.086699  -0.183978  0.004068  3.96071  0.005
C  C132  1  0.55536273  0.17809575  0.38372237  1  0.487076  -0.000417  0.047471  0.094091  -0.000713  3.93301  0.0
C  C133  1  0.58363723  0.25730509  0.55143038  1  -0.047349  -5.2e-05  -0.007789  0.06258  -0.000173  3.993564  0.0
C  C134  1  0.56006962  0.24117550  0.61197700  1  -0.06531  0.000531  -0.085389  -0.120555  0.000345  3.955545  0.0
C  C135  1  0.57463718  0.28817345  0.66295478  1  -0.043563  0.001008  -0.081282  -0.083569  0.000599  3.961875  0.001
C  C136  1  0.61327929  0.35245308  0.65477510  1  -0.031493  0.010082  -0.018801  -0.027035  0.007245  3.958881  0.008
C  C137  1  0.63737660  0.36876385  0.59467629  1  -0.023246  0.00021  -0.092857  -0.100689  9e-05  4.008219  0.0
C  C138  1  0.62258258  0.32190578  0.54369403  1  -0.056697  -0.000216  -0.094632  -0.138555  -0.000332  4.004136  0.0
C  C139  1  0.62907776  0.40317672  0.70975236  1  1.532518  -0.001039  0.20261  0.572261  -0.001069  4.196352  -0.003
C  C140  1  0.64234311  0.60387022  0.62611619  1  0.484101  -0.00053  0.042838  0.098789  -0.000597  3.96841  0.0
C  C141  1  0.63764159  0.65257252  0.57691513  1  -0.071597  0.000316  -0.08649  -0.183342  0.000212  3.955366  0.0
C  C142  1  0.66056433  0.72170002  0.59212718  1  -0.056384  -0.000603  0.013053  0.112444  -0.000665  3.989374  0.0
C  C143  1  0.68203021  0.73815540  0.65842794  1  -0.000228  0.000388  -0.084799  -0.176915  0.00027  3.943765  0.0
C  C144  1  0.68357176  0.68636798  0.70463475  1  0.492934  -0.000367  0.040064  0.090755  -0.0004  3.986114  0.0
C  C145  1  0.66339935  0.77351581  0.54082557  1  -0.050112  -0.000329  -0.007817  0.056452  -0.000403  3.997748  0.0
C  C146  1  0.67103370  0.75222598  0.47763746  1  -0.017558  0.000381  -0.087546  -0.124391  0.000188  3.986659  0.0
C  C147  1  0.67382264  0.80010601  0.42867069  1  -0.012261  0.000681  -0.085124  -0.091255  0.000393  3.992556  0.0
C  C148  1  0.66847064  0.87090748  0.44128471  1  -0.040253  0.013344  -0.012468  -0.018908  0.009502  3.941402  0.01
C  C149  1  0.66159772  0.89279968  0.50421325  1  0.008657  0.000625  -0.078657  -0.079464  0.000246  3.946898  0.001
C  C150  1  0.65951581  0.84468737  0.55334894  1  -0.037278  0.000637  -0.085535  -0.122039  0.000358  3.95915  0.001
C  C151  1  0.86307962  0.92662049  0.29891153  1  0.453863  -0.001373  0.045362  0.095973  -0.001697  3.955578  -0.001
C  C152  1  0.95471682  0.93136134  0.30851244  1  -0.047768  0.004823  -0.083285  -0.17795  0.003306  3.950641  0.004
C  C153  1  0.99563396  0.99523010  0.30150190  1  0.049825  -0.003602  0.01643  0.11894  -0.004017  3.989254  -0.002
C  C154  1  0.93919894  0.05193226  0.28475320  1  -0.067844  0.004757  -0.081578  -0.178302  0.003267  3.943731  0.004
C  C155  1  0.84785323  0.04302596  0.27526213  1  0.512186  -0.001317  0.052255  0.105365  -0.001609  3.939626  -0.001
C  C156  1  0.09282611  0.00144068  0.31131487  1  -0.026007  -0.000248  -0.009729  0.055834  -0.000347  4.013107  0.0
C  C157  1  0.14591279  0.95923661  0.35697264  1  -0.002571  0.00027  -0.088058  -0.128734  0.000118  3.982538  0.0
C  C158  1  0.23774934  0.96359652  0.36578625  1  -0.128325  0.00068  -0.078548  -0.082806  0.000235  3.967108  0.001
C  C159  1  0.27896718  0.00997366  0.32890972  1  0.025157  0.011021  -0.012093  -0.010423  0.00795  3.941996  0.009
C  C160  1  0.22661343  0.05233700  0.28339914  1  -0.002805  0.000265  -0.084593  -0.094412  0.00013  3.983342  0.0
C  C161  1  0.13457714  0.04839621  0.27487898  1  -0.055972  -0.000381  -0.090903  -0.133323  -0.00052  3.992262  0.0
C  C162  1  0.37860150  0.01290276  0.33885600  1  1.519956  -0.002106  0.187063  0.540386  -0.002671  4.259248  -0.004
C  C163  1  0.66633340  0.92153197  0.38696102  1  1.559258  -6.1e-05  0.206533  0.576295  0.000191  4.178111  -0.002
C  C164  1  0.55817904  0.41039248  0.95884790  1  0.497655  -0.000655  0.049316  0.107824  -0.000993  3.91532  0.0
C  C165  1  0.56682861  0.36405046  0.01002985  1  -0.019813  0.006143  -0.083877  -0.179854  0.00415  3.920296  0.005
C  C166  1  0.57071949  0.29299622  0.99776049  1  0.005664  -0.003397  0.013086  0.111858  -0.00381  3.985203  -0.002
C  C167  1  0.56315471  0.27253485  0.93246001  1  -0.070803  0.005924  -0.086578  -0.183707  0.004069  3.960644  0.005
C  C168  1  0.55535614  0.32191230  0.88371975  1  0.487233  -0.000417  0.047411  0.093821  -0.000713  3.933091  0.0
C  C169  1  0.58362427  0.24270088  0.05142691  1  -0.048018  -5.2e-05  -0.00787  0.062537  -0.000173  3.993641  0.0
C  C170  1  0.56006453  0.25883166  0.11197545  1  -0.064973  0.000531  -0.085265  -0.120431  0.000345  3.955445  0.0
C  C171  1  0.57463895  0.21183476  0.16295542  1  -0.042849  0.001007  -0.081306  -0.083435  0.000599  3.962  0.001
C  C172  1  0.61328401  0.14755552  0.15477364  1  -0.032255  0.010083  -0.018792  -0.02718  0.007244  3.959043  0.008
C  C173  1  0.63737145  0.13124511  0.09467220  1  -0.022609  0.00021  -0.092782  -0.100563  9e-05  4.008162  0.0
C  C174  1  0.62256925  0.17809903  0.04368901  1  -0.056747  -0.000216  -0.094681  -0.138428  -0.000332  4.004291  0.0
C  C175  1  0.62908138  0.09682932  0.20974783  1  1.532048  -0.00104  0.20261  0.572247  -0.00107  4.196249  -0.003
C  C176  1  0.35764723  0.39613899  0.37388872  1  0.483068  -0.000529  0.042869  0.098715  -0.000596  3.968371  0.0
C  C177  1  0.36234476  0.34743566  0.42308739  1  -0.070721  0.000316  -0.086404  -0.182964  0.000212  3.954965  0.0
C  C178  1  0.33942931  0.27830662  0.40787573  1  -0.055836  -0.000603  0.012933  0.112099  -0.000665  3.989192  0.0
C  C179  1  0.31796341  0.26185382  0.34157305  1  -0.000212  0.000387  -0.084774  -0.176861  0.000269  3.943854  0.0
C  C180  1  0.31642453  0.31364175  0.29536943  1  0.493372  -0.000366  0.039999  0.090791  -0.000399  3.98641  0.0
C  C181  1  0.33659956  0.22648566  0.45917461  1  -0.050431  -0.00033  -0.007712  0.056705  -0.000405  3.997601  0.0
C  C182  1  0.32896788  0.24776930  0.52236495  1  -0.01749  0.000381  -0.087611  -0.124472  0.000188  3.986722  0.0
C  C183  1  0.32618555  0.19988772  0.57133204  1  -0.012014  0.000679  -0.085023  -0.091226  0.000392  3.992499  0.0
C  C184  1  0.33153687  0.12908780  0.55871411  1  -0.040602  0.013339  -0.012636  -0.019164  0.009499  3.941685  0.01
C  C185  1  0.33840979  0.10719870  0.49578604  1  0.008995  0.000624  -0.078575  -0.07914  0.000245  3.946809  0.001
C  C186  1  0.34048574  0.15531359  0.44664965  1  -0.03738  0.000637  -0.085587  -0.122254  0.000358  3.959043  0.001
C  C187  1  0.13691393  0.07336395  0.70108036  1  0.453151  -0.001375  0.045307  0.096153  -0.001698  3.955326  -0.001
C  C188  1  0.04527612  0.06862362  0.69148607  1  -0.048382  0.004824  -0.083223  -0.177875  0.003305  3.950452  0.004
C  C189  1  0.00437155  0.00475125  0.69849572  1  0.050537  -0.003603  0.016452  0.119091  -0.004017  3.989445  -0.002
C  C190  1  0.06080850  0.94804804  0.71523747  1  -0.068459  0.004755  -0.081774  -0.178472  0.003267  3.943896  0.004
C  C191  1  0.15215023  0.95695487  0.72472664  1  0.511847  -0.001317  0.052193  0.105375  -0.001608  3.939684  -0.001
C  C192  1  0.90718075  0.99853911  0.68868674  1  -0.026129  -0.000248  -0.009687  0.055819  -0.000347  4.013421  0.0
C  C193  1  0.85409343  0.04074783  0.64303129  1  -0.002947  0.00027  -0.087987  -0.128759  0.000118  3.982424  0.0
C  C194  1  0.76225164  0.03639617  0.63422519  1  -0.128236  0.000679  -0.078821  -0.083186  0.000235  3.967176  0.001
C  C195  1  0.72103444  0.99001542  0.67109892  1  0.025169  0.011024  -0.01213  -0.010487  0.007952  3.94183  0.009
C  C196  1  0.77338819  0.94765208  0.71660903  1  -0.003212  0.000265  -0.084502  -0.094  0.00013  3.983091  0.0
C  C197  1  0.86542709  0.95158823  0.72512423  1  -0.055265  -0.000381  -0.090978  -0.133547  -0.000521  3.99247  0.0
C  C198  1  0.62140148  0.98708891  0.66115664  1  1.519796  -0.002106  0.187297  0.540962  -0.002671  4.258897  -0.004
C  C199  1  0.33367342  0.07846124  0.61303484  1  1.559261  -6.4e-05  0.206736  0.576583  0.000187  4.17826  -0.002
C  C200  1  0.44182257  0.58961777  0.04115834  1  0.497499  -0.000655  0.049341  0.107763  -0.000992  3.915103  0.0
C  C201  1  0.43317561  0.63595359  0.98997192  1  -0.020126  0.006145  -0.084002  -0.179789  0.004151  3.920305  0.005
C  C202  1  0.42928339  0.70701093  0.00223874  1  0.005407  -0.003398  0.013132  0.111824  -0.003812  3.985076  -0.002
C  C203  1  0.43684815  0.72747746  0.06753682  1  -0.070956  0.005924  -0.086592  -0.183727  0.004068  3.960578  0.005
C  C204  1  0.44464475  0.67810569  0.11628019  1  0.486837  -0.000419  0.047492  0.094249  -0.000716  3.932886  0.0
C  C205  1  0.41637196  0.75730317  0.94856865  1  -0.047419  -5.2e-05  -0.007752  0.062715  -0.000173  3.993423  0.0
C  C206  1  0.43993634  0.74117188  0.88802162  1  -0.064911  0.000531  -0.085331  -0.120524  0.000345  3.955619  0.0
C  C207  1  0.42535729  0.78816620  0.83704205  1  -0.043267  0.001007  -0.081386  -0.083589  0.000599  3.962094  0.001
C  C208  1  0.38671155  0.85244544  0.84522088  1  -0.032235  0.010083  -0.018815  -0.027146  0.007245  3.959087  0.008
C  C209  1  0.36262543  0.86875894  0.90532152  1  -0.022392  0.00021  -0.092806  -0.100638  9.1e-05  4.008311  0.0
C  C210  1  0.37743227  0.82190657  0.95630670  1  -0.05694  -0.000216  -0.094713  -0.138602  -0.000332  4.004472  0.0
C  C211  1  0.37090623  0.90316441  0.79024526  1  1.53326  -0.001037  0.202373  0.572128  -0.001069  4.196622  -0.003
C  C212  1  0.35764235  0.10385365  0.87388558  1  0.482772  -0.000529  0.042884  0.098669  -0.000596  3.968444  0.0
C  C213  1  0.36233832  0.15255806  0.92308412  1  -0.070386  0.000316  -0.086521  -0.183092  0.000212  3.955106  0.0
C  C214  1  0.33942383  0.22168612  0.90786883  1  -0.05578  -0.000603  0.012961  0.112175  -0.000665  3.989103  0.0
C  C215  1  0.31795654  0.23813890  0.84156696  1  0.000506  0.000388  -0.084776  -0.177051  0.000269  3.944046  0.0
C  C216  1  0.31641593  0.18634885  0.79536499  1  0.493252  -0.000366  0.039935  0.090954  -0.000399  3.986776  0.0
C  C217  1  0.33659452  0.27350716  0.95917069  1  -0.050622  -0.000331  -0.007607  0.056831  -0.000405  3.997519  0.0
C  C218  1  0.32896610  0.25222555  0.02235996  1  -0.017475  0.000381  -0.087601  -0.124222  0.000188  3.986892  0.0
C  C219  1  0.32618022  0.30010514  0.07132476  1  -0.012307  0.00068  -0.085154  -0.091554  0.000392  3.992869  0.0
C  C220  1  0.33153053  0.37090554  0.05870679  1  -0.039871  0.013341  -0.012579  -0.018968  0.0095  3.941462  0.01
C  C221  1  0.33839686  0.39279623  0.99577796  1  0.008702  0.000624  -0.07845  -0.079019  0.000245  3.946876  0.001
C  C222  1  0.34047769  0.34468385  0.94664401  1  -0.037819  0.000637  -0.085737  -0.122579  0.000358  3.959285  0.001
C  C223  1  0.13691336  0.42662759  0.20108240  1  0.453722  -0.001375  0.045367  0.096416  -0.001698  3.955294  -0.001
C  C224  1  0.04527882  0.43137129  0.19148564  1  -0.047926  0.004824  -0.083197  -0.177901  0.003305  3.950602  0.004
C  C225  1  0.00437197  0.49524380  0.19849652  1  0.050127  -0.003603  0.016397  0.118969  -0.004018  3.989438  -0.002
C  C226  1  0.06081041  0.55194610  0.21524179  1  -0.068127  0.004755  -0.081608  -0.178238  0.003267  3.943704  0.004
C  C227  1  0.15215218  0.54303591  0.22473094  1  0.511672  -0.001317  0.052124  0.105142  -0.001609  3.93965  -0.001
C  C228  1  0.90717954  0.50145859  0.18868297  1  -0.026452  -0.000248  -0.009622  0.055892  -0.000347  4.013141  0.0
C  C229  1  0.85409069  0.45924917  0.14302975  1  -0.00285  0.000269  -0.087995  -0.128703  0.000118  3.982456  0.0
C  C230  1  0.76225151  0.46360833  0.13422206  1  -0.128634  0.000679  -0.078701  -0.083149  0.000235  3.967262  0.001
C  C231  1  0.72103387  0.50998644  0.17109859  1  0.025562  0.011026  -0.012163  -0.010529  0.007953  3.941831  0.009
C  C232  1  0.77339139  0.55234865  0.21660919  1  -0.00358  0.000265  -0.08449  -0.09393  0.00013  3.983073  0.0
C  C233  1  0.86542833  0.54840758  0.22512559  1  -0.055206  -0.000381  -0.091001  -0.133637  -0.000521  3.992138  0.0
C  C234  1  0.62140023  0.51291222  0.16115670  1  1.519804  -0.002107  0.187254  0.540859  -0.002671  4.258854  -0.004
C  C235  1  0.33366555  0.42153164  0.11303074  1  1.559101  -6.4e-05  0.206758  0.576354  0.000188  4.177788  -0.002
C  C236  1  0.44181823  0.91037446  0.54115992  1  0.497416  -0.000655  0.04934  0.10792  -0.000991  3.915178  0.0
C  C237  1  0.43316736  0.86404132  0.48996963  1  -0.01999  0.006145  -0.084037  -0.179927  0.00415  3.920076  0.005
C  C238  1  0.42927030  0.79298231  0.50223292  1  0.00483  -0.003398  0.013026  0.11249  -0.00381  3.985836  -0.002
C  C239  1  0.43683979  0.77251585  0.56753059  1  -0.070878  0.005924  -0.086512  -0.183746  0.004067  3.960418  0.005
C  C240  1  0.44464147  0.82188456  0.61627749  1  0.486747  -0.000419  0.047597  0.094379  -0.000716  3.93282  0.0
C  C241  1  0.41636362  0.74268967  0.44856477  1  -0.047514  -5.2e-05  -0.007786  0.060532  -0.000174  3.996485  0.0
C  C242  1  0.43992924  0.75881926  0.38801696  1  -0.064599  0.000531  -0.085319  -0.119894  0.000345  3.956223  0.0
C  C243  1  0.42535707  0.71182131  0.33704102  1  -0.045117  0.001009  -0.081367  -0.083502  0.000599  3.961347  0.001
C  C244  1  0.38671297  0.64754220  0.34522142  1  -0.031179  0.010085  -0.018835  -0.027188  0.007248  3.958898  0.008
C  C245  1  0.36262295  0.63122937  0.40532062  1  -0.022941  0.00021  -0.092732  -0.100452  9e-05  4.00825  0.0
C  C246  1  0.37742358  0.67808589  0.45630271  1  -0.057414  -0.000216  -0.094625  -0.137977  -0.000332  4.004788  0.0
C  C247  1  0.37091052  0.59682475  0.29024273  1  1.53277  -0.001039  0.202693  0.572436  -0.00107  4.196329  -0.003
N  N248  1  0.66636572  0.88023701  0.18925398  1  -1.208703  0.001865  -0.340034  -0.264911  0.001488  3.529503  0.003
N  N249  1  0.80987745  0.51868875  0.78200799  1  -1.207134  0.075107  -0.343742  -0.226082  0.051193  3.602224  0.066
N  N250  1  0.54464490  0.53008815  0.76067194  1  -0.312795  0.120814  -0.369198  -0.539935  0.085749  3.304695  0.107
N  N251  1  0.50330724  0.58393413  0.75699931  1  -0.271718  0.006543  0.098036  0.439289  -0.006101  4.399255  -0.011
N  N252  1  0.46416262  0.63548471  0.75026379  1  0.05988  0.173558  -0.148977  -0.304334  0.113601  2.473588  0.124
N  N253  1  0.55416660  0.11007902  0.39682846  1  -1.198285  0.08382  -0.352873  -0.216622  0.056704  3.614937  0.071
N  N254  1  0.66635945  0.61977381  0.68925117  1  -1.208324  0.001864  -0.339971  -0.265018  0.001487  3.529341  0.003
N  N255  1  0.80987794  0.98131763  0.28200973  1  -1.207167  0.075111  -0.343743  -0.225895  0.051197  3.601975  0.066
N  N256  1  0.54464210  0.96991902  0.26066993  1  -0.312544  0.120788  -0.36926  -0.540054  0.085737  3.304763  0.107
N  N257  1  0.50330601  0.91607523  0.25699600  1  -0.272265  0.006544  0.098196  0.439635  -0.006113  4.39912  -0.011
N  N258  1  0.46415965  0.86452269  0.25025926  1  0.060222  0.173585  -0.149041  -0.304513  0.113624  2.473362  0.124
N  N259  1  0.55416368  0.38992749  0.89682827  1  -1.19842  0.083829  -0.352816  -0.216312  0.056707  3.614517  0.071
N  N260  1  0.33363353  0.38023488  0.31075261  1  -1.208499  0.001865  -0.339968  -0.265033  0.001487  3.529492  0.003
N  N261  1  0.19011757  0.01866629  0.71797760  1  -1.206516  0.075111  -0.343736  -0.225794  0.051197  3.602455  0.066
N  N262  1  0.45534758  0.03005407  0.73933538  1  -0.315534  0.12075  -0.369078  -0.540087  0.085728  3.305267  0.107
N  N263  1  0.49668630  0.08389063  0.74300771  1  -0.272735  0.006529  0.098138  0.439636  -0.006131  4.399093  -0.011
N  N264  1  0.53583593  0.13544626  0.74973814  1  0.061249  0.173633  -0.149188  -0.304561  0.113663  2.472441  0.124
N  N265  1  0.44583591  0.61008998  0.10317487  1  -1.197746  0.083815  -0.353011  -0.216653  0.0567  3.614752  0.071
N  N266  1  0.33362857  0.11975671  0.81074901  1  -1.208486  0.001866  -0.339878  -0.26492  0.001487  3.529592  0.003
N  N267  1  0.19011675  0.48132356  0.21798159  1  -1.2069  0.075106  -0.343745  -0.225652  0.051195  3.602046  0.066
N  N268  1  0.45533880  0.46994377  0.23933074  1  -0.315517  0.120749  -0.369038  -0.539886  0.085725  3.305469  0.107
N  N269  1  0.49667578  0.41610760  0.24300090  1  -0.271747  0.006515  0.098069  0.439504  -0.006129  4.399176  -0.011
N  N270  1  0.53582234  0.36455083  0.24973091  1  0.060383  0.17364  -0.149182  -0.304546  0.113659  2.472218  0.124
N  N271  1  0.44583366  0.88990129  0.60317619  1  -1.197191  0.083811  -0.353081  -0.216883  0.056699  3.614883  0.071
O  O272  1  0.42307440  0.52582850  0.88021937  1  -1.172079  0.004854  -0.324017  -0.561157  0.002228  2.17054  0.005
O  O273  1  0.41248017  0.44338644  0.80315591  1  -1.096956  0.121923  -0.331087  -0.541839  0.078647  2.226221  0.11
O  O274  1  0.68679084  0.60258091  0.83398440  1  -1.120561  0.101552  -0.322296  -0.542085  0.066419  2.393215  0.092
O  O275  1  0.64349013  0.51681540  0.89521510  1  -1.149645  0.046724  -0.316985  -0.576341  0.030047  2.34268  0.043
O  O276  1  0.60906772  0.38732378  0.76396206  1  -1.160792  0.015853  -0.321566  -0.580791  0.009666  2.279335  0.016
O  O277  1  0.66445247  0.46087936  0.69633967  1  -1.121785  0.097709  -0.330139  -0.546624  0.063598  2.391764  0.088
O  O278  1  0.42307754  0.97417507  0.38021664  1  -1.172028  0.004853  -0.323953  -0.561045  0.002227  2.170607  0.005
O  O279  1  0.41248002  0.05661936  0.30315376  1  -1.097114  0.121942  -0.331099  -0.541894  0.07866  2.226203  0.11
O  O280  1  0.68678574  0.89742695  0.33398204  1  -1.12055  0.101569  -0.322263  -0.542173  0.066431  2.393089  0.092
O  O281  1  0.64349258  0.98319164  0.39521613  1  -1.15007  0.046714  -0.317021  -0.576397  0.030041  2.342496  0.043
O  O282  1  0.60907194  0.11268291  0.26396002  1  -1.160234  0.015856  -0.321519  -0.580695  0.009668  2.27929  0.016
O  O283  1  0.66445901  0.03912862  0.19633543  1  -1.121467  0.097697  -0.330173  -0.546614  0.063593  2.391593  0.088
O  O284  1  0.57692745  0.02581401  0.61979958  1  -1.17162  0.004862  -0.324015  -0.561287  0.002234  2.170718  0.005
O  O285  1  0.58752891  0.94336508  0.69685862  1  -1.097418  0.12195  -0.331238  -0.542202  0.078665  2.225946  0.11
O  O286  1  0.31321977  0.10256678  0.66601558  1  -1.120294  0.101581  -0.322343  -0.542273  0.066441  2.392815  0.092
O  O287  1  0.35651226  0.01680415  0.60478046  1  -1.150432  0.046678  -0.317096  -0.576546  0.030018  2.342663  0.043
O  O288  1  0.39091699  0.88731082  0.73603324  1  -1.160866  0.015885  -0.321419  -0.580663  0.009687  2.279455  0.016
O  O289  1  0.33552991  0.96086356  0.80365639  1  -1.122376  0.097691  -0.330041  -0.546502  0.063592  2.39176  0.088
O  O290  1  0.57692734  0.47417865  0.11980556  1  -1.171613  0.004868  -0.32398  -0.561186  0.002239  2.170639  0.005
O  O291  1  0.58752746  0.55663619  0.19685823  1  -1.097494  0.121941  -0.331247  -0.542243  0.07866  2.225895  0.11
O  O292  1  0.31321400  0.39742624  0.16601218  1  -1.120366  0.101568  -0.322425  -0.542232  0.06643  2.392814  0.092
O  O293  1  0.35651004  0.48318762  0.10477662  1  -1.150052  0.046685  -0.317089  -0.576455  0.030023  2.342518  0.043
O  O294  1  0.39091923  0.61268027  0.23603239  1  -1.160304  0.015888  -0.321533  -0.580782  0.009689  2.279474  0.016
O  O295  1  0.33553449  0.53912469  0.30365527  1  -1.122324  0.097707  -0.330147  -0.546585  0.063601  2.391795  0.088
