# generated using pymatgen
data_HoH5(C3O4)2
_symmetry_space_group_name_H-M   'P 1'
_cell_length_a   6.22024418
_cell_length_b   8.61902073
_cell_length_c   8.75550833
_cell_angle_alpha   111.19544090
_cell_angle_beta   109.80492247
_cell_angle_gamma   91.52124232
_symmetry_Int_Tables_number   1
_chemical_formula_structural   HoH5(C3O4)2
_chemical_formula_sum   'Ho2 H10 C12 O16'
_cell_volume   405.77635012
_cell_formula_units_Z   2
loop_
 _symmetry_equiv_pos_site_id
 _symmetry_equiv_pos_as_xyz
  1  'x, y, z'
loop_
 _atom_site_type_symbol
 _atom_site_label
 _atom_site_symmetry_multiplicity
 _atom_site_fract_x
 _atom_site_fract_y
 _atom_site_fract_z
 _atom_site_occupancy
 _atom_site_hle17_bader_spin_density
 _atom_site_hle17_ddec_charge
 _atom_site_hle17_ddec_spin_density
 _atom_site_hle17_ddec_sum_bond_order
 _atom_site_hle17_magmom
 _atom_site_hse06_10hf_bader_spin_density
 _atom_site_hse06_10hf_ddec_charge
 _atom_site_hse06_10hf_ddec_spin_density
 _atom_site_hse06_10hf_ddec_sum_bond_order
 _atom_site_hse06_10hf_magmom
 _atom_site_hse06_bader_spin_density
 _atom_site_hse06_ddec_charge
 _atom_site_hse06_ddec_spin_density
 _atom_site_hse06_ddec_sum_bond_order
 _atom_site_hse06_magmom
 _atom_site_pbe_bader_spin_density
 _atom_site_pbe_cm5_charge
 _atom_site_pbe_ddec_charge
 _atom_site_pbe_ddec_spin_density
 _atom_site_pbe_ddec_sum_bond_order
 _atom_site_pbe_magmom
Ho  Ho0  1  0.31951521  0.35014991  0.18133508  1  0  2.313846  0  1.586757  0  0  2.245454  0  1.910172  0  0  2.291863  0  1.868497  0  0  1.532136  2.129158  0  2.094204  0
Ho  Ho1  1  0.68048654  0.64984781  0.81866480  1  0  2.313818  0  1.586687  0  0  2.245418  0  1.910094  0  0  2.29183  0  1.868418  0  0  1.532167  2.129104  0  2.094156  0
H  H2  1  0.80844261  0.28111768  0.28252860  1  0  0.446928  0  0.835457  0  0  0.420767  0  0.891972  0  0  0.429987  0  0.878638  0  0  0.315123  0.41361  0  0.902181  0
H  H3  1  0.19155643  0.71889018  0.71747876  1  0  0.44702  0  0.835433  0  0  0.420831  0  0.891928  0  0  0.430053  0  0.878591  0  0  0.315156  0.413673  0  0.902137  0
H  H4  1  0.48787823  0.33189838  0.89209730  1  0  0.444526  0  0.856297  0  0  0.413268  0  0.920211  0  0  0.423998  0  0.904525  0  0  0.303441  0.405343  0  0.931442  0
H  H5  1  0.51212447  0.66811065  0.10789650  1  0  0.444568  0  0.856263  0  0  0.413329  0  0.920133  0  0  0.424056  0  0.904454  0  0  0.303472  0.405404  0  0.931367  0
H  H6  1  0.68174046  0.27333890  0.02774442  1  0  0.44516  0  0.851038  0  0  0.418327  0  0.906385  0  0  0.428985  0  0.890824  0  0  0.307586  0.410092  0  0.918307  0
H  H7  1  0.31825903  0.72668533  0.97225967  1  0  0.445114  0  0.851127  0  0  0.418278  0  0.906483  0  0  0.428935  0  0.890919  0  0  0.307549  0.410044  0  0.918403  0
H  H8  1  0.77046149  0.35548127  0.46749482  1  0  0.438366  0  0.861521  0  0  0.404928  0  0.929822  0  0  0.415797  0  0.913975  0  0  0.299812  0.396755  0  0.941436  0
H  H9  1  0.22954219  0.64453166  0.53252001  1  0  0.438393  0  0.861487  0  0  0.405002  0  0.929712  0  0  0.415874  0  0.913862  0  0  0.299865  0.396832  0  0.941324  0
H  H10  1  0.25909599  0.96915808  0.33282380  1  0  0.112109  0  0.933568  0  0  0.124139  0  0.990217  0  0  0.127352  0  0.989162  0  0  0.114637  0.121643  0  0.991534  0
H  H11  1  0.74090231  0.03083960  0.66716724  1  0  0.112169  0  0.933513  0  0  0.124184  0  0.990165  0  0  0.127405  0  0.989105  0  0  0.114659  0.121689  0  0.991478  0
C  C12  1  0.15005175  0.14135204  0.52927429  1  0  -0.063694  0  3.707044  0  0  -0.050107  0  3.94038  0  0  -0.053634  0  3.958263  0  0  -0.003737  -0.048823  0  3.931375  0
C  C13  1  0.84994336  0.85863935  0.47071720  1  0  -0.063661  0  3.707114  0  0  -0.050042  0  3.940454  0  0  -0.053569  0  3.958339  0  0  -0.003699  -0.048787  0  3.931422  0
C  C14  1  0.00523086  0.15978890  0.62589710  1  0  -0.05319  0  3.694748  0  0  -0.040402  0  3.929162  0  0  -0.042917  0  3.946607  0  0  0.002376  -0.039732  0  3.920141  0
C  C15  1  0.99476144  0.84020504  0.37409690  1  0  -0.053376  0  3.694956  0  0  -0.040557  0  3.929334  0  0  -0.043064  0  3.94678  0  0  0.002345  -0.039784  0  3.920172  0
C  C16  1  0.14288648  0.98210341  0.40456295  1  0  -0.076235  0  3.682806  0  0  -0.109916  0  3.93384  0  0  -0.110356  0  3.951698  0  0  -0.072189  -0.11001  0  3.9235  0
C  C17  1  0.85710519  0.01788797  0.59542544  1  0  -0.076436  0  3.68279  0  0  -0.110082  0  3.933817  0  0  -0.110534  0  3.95167  0  0  -0.072242  -0.110143  0  3.923513  0
C  C18  1  0.31506745  0.28927827  0.55883273  1  0  0.733668  0  3.840107  0  0  0.68505  0  4.136174  0  0  0.720021  0  4.123656  0  0  0.243909  0.660199  0  4.1401  0
C  C19  1  0.68493480  0.71071439  0.44116435  1  0  0.733954  0  3.839896  0  0  0.685207  0  4.13616  0  0  0.720182  0  4.123637  0  0  0.243938  0.660351  0  4.140102  0
C  C20  1  0.99726585  0.32888161  0.75806419  1  0  0.740343  0  3.819682  0  0  0.691666  0  4.117736  0  0  0.726795  0  4.105174  0  0  0.24723  0.666583  0  4.122408  0
C  C21  1  0.00272815  0.67111231  0.24192793  1  0  0.740259  0  3.819864  0  0  0.691572  0  4.117904  0  0  0.726675  0  4.105389  0  0  0.247274  0.666465  0  4.122569  0
C  C22  1  0.89358769  0.03932891  0.01027261  1  0  0.555033  0  3.935017  0  0  0.506155  0  4.250004  0  0  0.534967  0  4.241639  0  0  0.22029  0.487031  0  4.24655  0
C  C23  1  0.10640506  0.96065244  0.98972507  1  0  0.554894  0  3.93538  0  0  0.505994  0  4.250402  0  0  0.534788  0  4.24206  0  0  0.22013  0.48687  0  4.246943  0
O  O24  1  0.44681560  0.38095675  0.71774518  1  0  -0.724448  0  2.088622  0  0  -0.673297  0  2.326891  0  0  -0.699236  0  2.315248  0  0  -0.360075  -0.644736  0  2.33678  0
O  O25  1  0.55319278  0.61902577  0.28224752  1  0  -0.72466  0  2.088508  0  0  -0.67346  0  2.326833  0  0  -0.699401  0  2.315194  0  0  -0.360159  -0.644901  0  2.336726  0
O  O26  1  0.69303150  0.31210961  0.33661702  1  0  -0.911879  0  1.883516  0  0  -0.871826  0  2.076239  0  0  -0.890512  0  2.045674  0  0  -0.646526  -0.848155  0  2.104572  0
O  O27  1  0.30696963  0.68790707  0.66339052  1  0  -0.911964  0  1.883504  0  0  -0.87193  0  2.076079  0  0  -0.890616  0  2.045504  0  0  -0.646581  -0.848259  0  2.104415  0
O  O28  1  0.52969103  0.31180855  0.00257085  1  0  -0.932464  0  1.894918  0  0  -0.893979  0  2.094899  0  0  -0.913186  0  2.062705  0  0  -0.672345  -0.869371  0  2.123898  0
O  O29  1  0.47031308  0.68822072  0.99743612  1  0  -0.932489  0  1.894983  0  0  -0.893998  0  2.094936  0  0  -0.913202  0  2.062749  0  0  -0.672341  -0.869394  0  2.123931  0
O  O30  1  0.31673297  0.31697926  0.42734216  1  0  -0.738861  0  2.094584  0  0  -0.704855  0  2.365935  0  0  -0.728842  0  2.352401  0  0  -0.393843  -0.673446  0  2.375545  0
O  O31  1  0.68326434  0.68302858  0.57266021  1  0  -0.738909  0  2.094566  0  0  -0.704869  0  2.365983  0  0  -0.728849  0  2.35243  0  0  -0.393804  -0.673456  0  2.375599  0
O  O32  1  0.08943674  0.35652161  0.91934532  1  0  -0.713876  0  2.091248  0  0  -0.679489  0  2.358321  0  0  -0.704266  0  2.34614  0  0  -0.389452  -0.648948  0  2.368806  0
O  O33  1  0.91054057  0.64347374  0.08066615  1  0  -0.7137  0  2.091659  0  0  -0.679314  0  2.358735  0  0  -0.704081  0  2.346573  0  0  -0.389339  -0.648775  0  2.36923  0
O  O34  1  0.88833815  0.43040463  0.69669457  1  0  -0.709727  0  2.00892  0  0  -0.662835  0  2.24806  0  0  -0.688113  0  2.235724  0  0  -0.347405  -0.634903  0  2.259126  0
O  O35  1  0.11167342  0.56958417  0.30329654  1  0  -0.709781  0  2.008638  0  0  -0.662915  0  2.247792  0  0  -0.688187  0  2.235472  0  0  -0.347575  -0.634985  0  2.258872  0
O  O36  1  0.93175648  0.19945469  0.09682183  1  0  -0.690929  0  2.151269  0  0  -0.640116  0  2.385152  0  0  -0.664772  0  2.376817  0  0  -0.345474  -0.614211  0  2.392042  0
O  O37  1  0.06824008  0.80053551  0.90318216  1  0  -0.690622  0  2.151836  0  0  -0.639798  0  2.385717  0  0  -0.664451  0  2.377394  0  0  -0.345252  -0.613891  0  2.392601  0
O  O38  1  0.29766273  0.05714036  0.05968153  1  0  -0.614698  0  2.072334  0  0  -0.582959  0  2.320608  0  0  -0.603953  0  2.310842  0  0  -0.355519  -0.558136  0  2.329545  0
O  O39  1  0.70235292  0.94285108  0.94033090  1  0  -0.614567  0  2.072694  0  0  -0.582821  0  2.320937  0  0  -0.603821  0  2.311171  0  0  -0.355538  -0.558003  0  2.329881  0
