# generated using pymatgen
data_Cd3P2H28C22(NO7)2
_symmetry_space_group_name_H-M   'P 1'
_cell_length_a   7.69641602
_cell_length_b   9.28786789
_cell_length_c   9.75000236
_cell_angle_alpha   105.09395984
_cell_angle_beta   93.20938235
_cell_angle_gamma   102.64008349
_symmetry_Int_Tables_number   1
_chemical_formula_structural   Cd3P2H28C22(NO7)2
_chemical_formula_sum   'Cd3 P2 H28 C22 N2 O14'
_cell_volume   651.87064353
_cell_formula_units_Z   1
loop_
 _symmetry_equiv_pos_site_id
 _symmetry_equiv_pos_as_xyz
  1  'x, y, z'
loop_
 _atom_site_type_symbol
 _atom_site_label
 _atom_site_symmetry_multiplicity
 _atom_site_fract_x
 _atom_site_fract_y
 _atom_site_fract_z
 _atom_site_occupancy
 _atom_site_hle17_bader_spin_density
 _atom_site_hle17_ddec_charge
 _atom_site_hle17_ddec_spin_density
 _atom_site_hle17_ddec_sum_bond_order
 _atom_site_hle17_magmom
 _atom_site_hse06_10hf_bader_spin_density
 _atom_site_hse06_10hf_ddec_charge
 _atom_site_hse06_10hf_ddec_spin_density
 _atom_site_hse06_10hf_ddec_sum_bond_order
 _atom_site_hse06_10hf_magmom
 _atom_site_hse06_bader_spin_density
 _atom_site_hse06_ddec_charge
 _atom_site_hse06_ddec_spin_density
 _atom_site_hse06_ddec_sum_bond_order
 _atom_site_hse06_magmom
 _atom_site_pbe_bader_spin_density
 _atom_site_pbe_cm5_charge
 _atom_site_pbe_ddec_charge
 _atom_site_pbe_ddec_spin_density
 _atom_site_pbe_ddec_sum_bond_order
 _atom_site_pbe_magmom
Cd  Cd0  1  0.94651732  0.83684200  0.83624278  1  0  1.250542  0  1.580593  0  0  1.083116  0  2.01296  0  0  1.144081  0  1.953345  0  0  0.784759  1.03913  0  2.053557  0
Cd  Cd1  1  0.05348514  0.16315760  0.16375878  1  0  1.250557  0  1.580653  0  0  1.083102  0  2.013022  0  0  1.144067  0  1.953407  0  0  0.784744  1.039118  0  2.053624  0
Cd  Cd2  1  0.50000162  0.99999198  0.99999329  1  0  1.397061  0  1.439345  0  0  1.225013  0  1.880841  0  0  1.28302  0  1.818101  0  0  0.834544  1.182015  0  1.92545  0
P  P3  1  0.14926377  0.78036994  0.08203770  1  0  1.443826  0  4.955202  0  0  1.288332  0  5.4516  0  0  1.338482  0  5.417315  0  0  0.303462  1.253331  0  5.473917  0
P  P4  1  0.85073575  0.21962852  0.91796243  1  0  1.443812  0  4.955334  0  0  1.288305  0  5.451706  0  0  1.338452  0  5.417415  0  0  0.303451  1.253303  0  5.474035  0
H  H5  1  0.91299470  0.50749228  0.13942695  1  0  0.299217  0  0.903374  0  0  0.280637  0  0.963098  0  0  0.289206  0  0.95721  0  0  0.307739  0.274585  0  0.967183  0
H  H6  1  0.08700614  0.49250618  0.86057530  1  0  0.299168  0  0.903402  0  0  0.280559  0  0.963181  0  0  0.289143  0  0.957275  0  0  0.307699  0.274504  0  0.967274  0
H  H7  1  0.11867380  0.80760030  0.33459494  1  0  0.130996  0  0.956973  0  0  0.141953  0  1.020014  0  0  0.143746  0  1.020466  0  0  0.117998  0.14041  0  1.020277  0
H  H8  1  0.88132737  0.19239931  0.66540759  1  0  0.131015  0  0.956887  0  0  0.14194  0  1.019965  0  0  0.143727  0  1.020414  0  0  0.117994  0.14039  0  1.02024  0
H  H9  1  0.19700093  0.64191770  0.25488179  1  0  0.140318  0  0.920762  0  0  0.152924  0  0.976824  0  0  0.155533  0  0.975966  0  0  0.124837  0.150834  0  0.977848  0
H  H10  1  0.80300022  0.35808190  0.74511869  1  0  0.14022  0  0.920853  0  0  0.15285  0  0.976867  0  0  0.155453  0  0.976006  0  0  0.124799  0.150759  0  0.977894  0
H  H11  1  0.79137047  0.72372470  0.10505461  1  0  0.095587  0  0.936808  0  0  0.109159  0  0.997349  0  0  0.110515  0  0.996651  0  0  0.116205  0.108175  0  0.997955  0
H  H12  1  0.20863190  0.27627026  0.89494069  1  0  0.095665  0  0.936759  0  0  0.109181  0  0.99734  0  0  0.110537  0  0.996642  0  0  0.116212  0.108198  0  0.997945  0
H  H13  1  0.77859951  0.77914927  0.29237792  1  0  0.074392  0  0.935722  0  0  0.090022  0  0.997962  0  0  0.089982  0  0.999211  0  0  0.109534  0.089895  0  0.997438  0
H  H14  1  0.22140190  0.22085144  0.70761669  1  0  0.074508  0  0.935794  0  0  0.090105  0  0.99801  0  0  0.090064  0  0.999262  0  0  0.109574  0.089946  0  0.997526  0
H  H15  1  0.58765563  0.47039593  0.07743187  1  0  0.088842  0  0.946473  0  0  0.103956  0  1.009975  0  0  0.105325  0  1.009977  0  0  0.099988  0.102954  0  1.010116  0
H  H16  1  0.41234485  0.52960137  0.92256803  1  0  0.088783  0  0.946494  0  0  0.10395  0  1.009947  0  0  0.105318  0  1.009948  0  0  0.09998  0.102947  0  1.010091  0
H  H17  1  0.48568368  0.62204705  0.15415416  1  0  0.098198  0  0.936488  0  0  0.116297  0  0.99317  0  0  0.117666  0  0.993193  0  0  0.099817  0.115014  0  0.993624  0
H  H18  1  0.51431873  0.37795253  0.84584329  1  0  0.098182  0  0.93649  0  0  0.116285  0  0.993177  0  0  0.117653  0  0.993197  0  0  0.099816  0.115003  0  0.993631  0
H  H19  1  0.53646165  0.58024817  0.39268782  1  0  0.073758  0  0.919776  0  0  0.08681  0  0.976638  0  0  0.088101  0  0.977444  0  0  0.099307  0.085868  0  0.976375  0
H  H20  1  0.46353984  0.41975717  0.60731202  1  0  0.073741  0  0.919732  0  0  0.086812  0  0.976569  0  0  0.088101  0  0.977374  0  0  0.09931  0.085872  0  0.976305  0
H  H21  1  0.72185581  0.33123319  0.24658034  1  0  0.087764  0  0.975074  0  0  0.099716  0  1.044383  0  0  0.101154  0  1.0445  0  0  0.094363  0.098445  0  1.044762  0
H  H22  1  0.27814475  0.66876875  0.75342479  1  0  0.087726  0  0.975108  0  0  0.09971  0  1.044372  0  0  0.10115  0  1.044487  0  0  0.094339  0.098424  0  1.044764  0
H  H23  1  0.70543438  0.39558281  0.43268196  1  0  0.084931  0  0.932687  0  0  0.101022  0  0.996424  0  0  0.10192  0  0.996785  0  0  0.094784  0.100355  0  0.996345  0
H  H24  1  0.29456455  0.60442258  0.56732190  1  0  0.084973  0  0.932634  0  0  0.10106  0  0.996396  0  0  0.101957  0  0.996754  0  0  0.094786  0.100387  0  0.996321  0
H  H25  1  0.90152248  0.65291151  0.44762271  1  0  0.089428  0  0.933388  0  0  0.101364  0  0.999487  0  0  0.10291  0  0.998941  0  0  0.109016  0.100208  0  1.000014  0
H  H26  1  0.09847739  0.34709270  0.55237782  1  0  0.089439  0  0.933366  0  0  0.101326  0  0.999494  0  0  0.10287  0  0.998957  0  0  0.108986  0.100172  0  1.000022  0
H  H27  1  0.00849086  0.50306736  0.37218226  1  0  0.092657  0  0.938772  0  0  0.107296  0  1.000964  0  0  0.108521  0  1.000742  0  0  0.114303  0.106364  0  1.001246  0
H  H28  1  0.99150838  0.49693457  0.62782179  1  0  0.092658  0  0.938814  0  0  0.107302  0  1.000982  0  0  0.10853  0  1.000757  0  0  0.114295  0.10637  0  1.001262  0
H  H29  1  0.56573280  0.88035369  0.69073613  1  0  0.091116  0  1.004468  0  0  0.098912  0  1.072425  0  0  0.10184  0  1.07094  0  0  0.099752  0.096874  0  1.07355  0
H  H30  1  0.43426668  0.11964475  0.30926093  1  0  0.091136  0  1.004405  0  0  0.098938  0  1.072351  0  0  0.101891  0  1.070837  0  0  0.09976  0.096901  0  1.073476  0
H  H31  1  0.20369584  0.06105031  0.46861857  1  0  0.108712  0  0.963457  0  0  0.115667  0  1.031566  0  0  0.119752  0  1.028183  0  0  0.104243  0.112716  0  1.034148  0
H  H32  1  0.79630105  0.93894815  0.53137942  1  0  0.108717  0  0.963412  0  0  0.115666  0  1.031545  0  0  0.11975  0  1.028157  0  0  0.104253  0.112715  0  1.034128  0
C  C33  1  0.10149771  0.71001731  0.23899931  1  0  -0.321287  0  3.509667  0  0  -0.358274  0  3.75377  0  0  -0.36304  0  3.759969  0  0  -0.070222  -0.354714  0  3.750037  0
C  C34  1  0.89849922  0.28998118  0.76100279  1  0  -0.321248  0  3.50956  0  0  -0.35821  0  3.75364  0  0  -0.362943  0  3.759798  0  0  -0.070225  -0.354632  0  3.749884  0
C  C35  1  0.76933780  0.68069414  0.19866514  1  0  0.012427  0  3.522925  0  0  -0.042003  0  3.769376  0  0  -0.038102  0  3.779989  0  0  -0.059307  -0.044748  0  3.762461  0
C  C36  1  0.23066395  0.31930314  0.80133172  1  0  0.012186  0  3.523137  0  0  -0.042126  0  3.769484  0  0  -0.038231  0  3.78011  0  0  -0.059339  -0.044856  0  3.76258  0
C  C37  1  0.59076809  0.56408494  0.17397018  1  0  -0.147756  0  3.643473  0  0  -0.192529  0  3.895935  0  0  -0.193725  0  3.908284  0  0  -0.159822  -0.191229  0  3.887502  0
C  C38  1  0.40923270  0.43591349  0.82602693  1  0  -0.147664  0  3.643515  0  0  -0.192495  0  3.895982  0  0  -0.193689  0  3.908327  0  0  -0.159827  -0.191193  0  3.887542  0
C  C39  1  0.55649940  0.49279089  0.29841328  1  0  -0.103071  0  3.635331  0  0  -0.106594  0  3.879258  0  0  -0.112342  0  3.892997  0  0  -0.090824  -0.102789  0  3.870072  0
C  C40  1  0.44349918  0.50721333  0.70158926  1  0  -0.103055  0  3.635316  0  0  -0.106582  0  3.879275  0  0  -0.112325  0  3.893005  0  0  -0.090823  -0.102778  0  3.870087  0
C  C41  1  0.71779625  0.43169550  0.33423811  1  0  -0.144169  0  3.652024  0  0  -0.191695  0  3.907555  0  0  -0.192609  0  3.920522  0  0  -0.166723  -0.190754  0  3.898682  0
C  C42  1  0.28220331  0.56830758  0.66576521  1  0  -0.144141  0  3.652035  0  0  -0.191714  0  3.907605  0  0  -0.192624  0  3.920564  0  0  -0.166726  -0.190768  0  3.898759  0
C  C43  1  0.89402419  0.55203468  0.35650063  1  0  -0.005656  0  3.512456  0  0  -0.061449  0  3.765181  0  0  -0.058307  0  3.775527  0  0  -0.064377  -0.063448  0  3.758169  0
C  C44  1  0.10597667  0.44796839  0.64350273  1  0  -0.005781  0  3.51261  0  0  -0.061478  0  3.765243  0  0  -0.058347  0  3.775606  0  0  -0.064328  -0.063477  0  3.758225  0
C  C45  1  0.38314807  0.36707327  0.25296482  1  0  0.664612  0  3.833139  0  0  0.61859  0  4.12723  0  0  0.652408  0  4.121981  0  0  0.203714  0.595636  0  4.129924  0
C  C46  1  0.61685084  0.63293210  0.74703698  1  0  0.664649  0  3.833104  0  0  0.618636  0  4.12721  0  0  0.65246  0  4.121948  0  0  0.203755  0.595681  0  4.129907  0
C  C47  1  0.22811805  0.92680742  0.68106794  1  0  0.654351  0  3.892553  0  0  0.601826  0  4.185258  0  0  0.637094  0  4.178791  0  0  0.207088  0.577381  0  4.189632  0
C  C48  1  0.77188078  0.07318873  0.31892955  1  0  0.654395  0  3.892416  0  0  0.601846  0  4.185121  0  0  0.637117  0  4.178655  0  0  0.207078  0.577398  0  4.1895  0
C  C49  1  0.37054964  0.96730324  0.59026624  1  0  -0.052392  0  3.744066  0  0  -0.029762  0  3.97534  0  0  -0.035792  0  3.99633  0  0  -0.012851  -0.025912  0  3.961408  0
C  C50  1  0.62944531  0.03269294  0.40973316  1  0  -0.052538  0  3.744102  0  0  -0.029848  0  3.97531  0  0  -0.035886  0  3.996316  0  0  -0.012878  -0.025998  0  3.961381  0
C  C51  1  0.53715068  0.93238303  0.60692995  1  0  -0.062385  0  3.727166  0  0  -0.086345  0  3.974961  0  0  -0.086964  0  3.995126  0  0  -0.086356  -0.086162  0  3.961275  0
C  C52  1  0.46284785  0.06761657  0.39306838  1  0  -0.062297  0  3.727063  0  0  -0.08628  0  3.974842  0  0  -0.086915  0  3.994995  0  0  -0.086349  -0.086095  0  3.961149  0
C  C53  1  0.33428499  0.03544848  0.48272191  1  0  -0.090665  0  3.731036  0  0  -0.111804  0  3.980217  0  0  -0.112664  0  3.998953  0  0  -0.087294  -0.110719  0  3.967418  0
C  C54  1  0.66571124  0.96454768  0.51727549  1  0  -0.090578  0  3.730985  0  0  -0.111734  0  3.98015  0  0  -0.112588  0  3.998879  0  0  -0.087313  -0.110651  0  3.967352  0
N  N55  1  0.91857664  0.60839243  0.22578535  1  0  -0.073781  0  3.362335  0  0  0.009525  0  3.570679  0  0  -0.003083  0  3.58982  0  0  -0.346895  0.017983  0  3.557805  0
N  N56  1  0.08142581  0.39160717  0.77421620  1  0  -0.073607  0  3.36223  0  0  0.009656  0  3.570556  0  0  -0.002959  0  3.58965  0  0  -0.346798  0.018117  0  3.557672  0
O  O57  1  0.05612973  0.65132341  0.94790657  1  0  -0.846153  0  1.960152  0  0  -0.766352  0  2.217395  0  0  -0.793429  0  2.199342  0  0  -0.382799  -0.745938  0  2.228218  0
O  O58  1  0.94387076  0.34867391  0.05209435  1  0  -0.846166  0  1.960195  0  0  -0.766355  0  2.217401  0  0  -0.793412  0  2.199329  0  0  -0.382791  -0.745954  0  2.228249  0
O  O59  1  0.05865477  0.91428129  0.08772955  1  0  -0.915287  0  2.101206  0  0  -0.815461  0  2.389992  0  0  -0.849533  0  2.36993  0  0  -0.401024  -0.791019  0  2.402155  0
O  O60  1  0.94134345  0.08571719  0.91227156  1  0  -0.915308  0  2.101285  0  0  -0.815455  0  2.390026  0  0  -0.849539  0  2.36998  0  0  -0.401009  -0.790994  0  2.402142  0
O  O61  1  0.35456897  0.82747062  0.09530459  1  0  -0.86266  0  1.969638  0  0  -0.773295  0  2.248361  0  0  -0.804562  0  2.228708  0  0  -0.385419  -0.750977  0  2.261425  0
O  O62  1  0.64543087  0.17252898  0.90469482  1  0  -0.862617  0  1.969632  0  0  -0.773262  0  2.24833  0  0  -0.804532  0  2.228683  0  0  -0.385417  -0.750946  0  2.261395  0
O  O63  1  0.37581650  0.24510483  0.15161700  1  0  -0.682356  0  1.955661  0  0  -0.612507  0  2.205061  0  0  -0.642778  0  2.192848  0  0  -0.3285  -0.591311  0  2.212941  0
O  O64  1  0.62418079  0.75489941  0.84838549  1  0  -0.682388  0  1.955634  0  0  -0.612549  0  2.205051  0  0  -0.642818  0  2.192823  0  0  -0.328542  -0.591354  0  2.212933  0
O  O65  1  0.24518421  0.38931028  0.31408353  1  0  -0.646515  0  1.957355  0  0  -0.584237  0  2.200391  0  0  -0.613645  0  2.191596  0  0  -0.324187  -0.563763  0  2.205676  0
O  O66  1  0.75481736  0.61069512  0.68592453  1  0  -0.646454  0  1.957338  0  0  -0.584235  0  2.200458  0  0  -0.613645  0  2.191657  0  0  -0.324191  -0.563764  0  2.205745  0
O  O67  1  0.06523825  0.88959103  0.62627318  1  0  -0.624114  0  1.938651  0  0  -0.564909  0  2.181981  0  0  -0.593254  0  2.172192  0  0  -0.316061  -0.545142  0  2.188656  0
O  O68  1  0.93475960  0.11040627  0.37372353  1  0  -0.624056  0  1.938658  0  0  -0.564843  0  2.181999  0  0  -0.593181  0  2.17219  0  0  -0.316026  -0.545077  0  2.188676  0
O  O69  1  0.26918095  0.92586083  0.81056714  1  0  -0.702037  0  2.078293  0  0  -0.62247  0  2.344897  0  0  -0.65599  0  2.331776  0  0  -0.325521  -0.598584  0  2.353639  0
O  O70  1  0.73081492  0.07413416  0.18942791  1  0  -0.702083  0  2.078174  0  0  -0.622517  0  2.344783  0  0  -0.65604  0  2.331662  0  0  -0.325521  -0.598634  0  2.353533  0
