# generated using pymatgen
data_ZnH16C18(NO)3
_symmetry_space_group_name_H-M   'P 1'
_cell_length_a   16.87878701
_cell_length_b   18.37655524
_cell_length_c   18.37655035
_cell_angle_alpha   75.88889303
_cell_angle_beta   62.67803573
_cell_angle_gamma   62.67838775
_symmetry_Int_Tables_number   1
_chemical_formula_structural   ZnH16C18(NO)3
_chemical_formula_sum   'Zn8 H128 C144 N24 O24'
_cell_volume   4495.16113644
_cell_formula_units_Z   8
loop_
 _symmetry_equiv_pos_site_id
 _symmetry_equiv_pos_as_xyz
  1  'x, y, z'
loop_
 _atom_site_type_symbol
 _atom_site_label
 _atom_site_symmetry_multiplicity
 _atom_site_fract_x
 _atom_site_fract_y
 _atom_site_fract_z
 _atom_site_occupancy
 _atom_site_pbe_bader_charge
 _atom_site_pbe_bader_spin_density
 _atom_site_pbe_cm5_charge
 _atom_site_pbe_ddec_charge
 _atom_site_pbe_ddec_spin_density
 _atom_site_pbe_ddec_sum_bond_order
 _atom_site_pbe_magmom
Zn  Zn0  1  0.73580217  0.59516252  0.13532492  1  1.254665  0  0.717841  0.768431  0  2.481018  0
Zn  Zn1  1  0.53365530  0.63526188  0.09525172  1  1.255975  0  0.718607  0.769423  0  2.480776  0
Zn  Zn2  1  0.76418966  0.86468185  0.40483832  1  1.254704  0  0.717901  0.768517  0  2.480912  0
Zn  Zn3  1  0.96634209  0.90474657  0.36474259  1  1.256055  0  0.71861  0.769399  0  2.480624  0
Zn  Zn4  1  0.26418944  0.40484169  0.86468108  1  1.254699  0  0.717874  0.768466  0  2.480955  0
Zn  Zn5  1  0.46634145  0.36473987  0.90475104  1  1.2559  0  0.718572  0.769395  0  2.480769  0
Zn  Zn6  1  0.23580691  0.13532297  0.59515940  1  1.254691  0  0.717847  0.76842  0  2.481069  0
Zn  Zn7  1  0.03365557  0.09525335  0.63526187  1  1.256036  0  0.718604  0.769395  0  2.480689  0
H  H8  1  0.82645924  0.16922139  0.66872047  1  0.562922  0  0.312259  0.27444  0  1.011381  0
H  H9  1  0.33558321  0.16881989  0.66926655  1  0.575349  0  0.312475  0.275088  0  1.010097  0
H  H10  1  0.67354444  0.33127598  0.83077703  1  0.563101  0  0.31225  0.274422  0  1.011404  0
H  H11  1  0.16441686  0.33073210  0.83118165  1  0.575452  0  0.312483  0.275187  0  1.009952  0
H  H12  1  0.17354442  0.83077424  0.33127865  1  0.562922  0  0.312293  0.274494  0  1.011357  0
H  H13  1  0.66441479  0.83118187  0.33072860  1  0.57548  0  0.312474  0.275158  0  1.009912  0
H  H14  1  0.32645834  0.66872149  0.16922147  1  0.562887  0  0.312246  0.274429  0  1.011409  0
H  H15  1  0.83558107  0.66926721  0.16882067  1  0.575424  0  0.312501  0.275154  0  1.010009  0
H  H16  1  0.81118789  0.38931070  0.27806264  1  0.07613  0  0.104639  0.111733  0  1.000588  0
H  H17  1  0.52151922  0.77812942  0.88917671  1  0.088431  0  0.10345  0.1092  0  1.002005  0
H  H18  1  0.68880669  0.72194360  0.61069370  1  0.076178  0  0.104609  0.111741  0  1.000533  0
H  H19  1  0.97846714  0.11082042  0.22187234  1  0.088268  0  0.103477  0.109237  0  1.00197  0
H  H20  1  0.18880814  0.61068983  0.72194237  1  0.076066  0  0.104608  0.111681  0  1.000635  0
H  H21  1  0.47847086  0.22188214  0.11082812  1  0.08658  0  0.103455  0.109213  0  1.00191  0
H  H22  1  0.31118772  0.27806306  0.38930885  1  0.076096  0  0.104613  0.111709  0  1.000604  0
H  H23  1  0.02152149  0.88918010  0.77813040  1  0.088381  0  0.103517  0.109263  0  1.001996  0
H  H24  1  0.83195010  0.28496191  0.39174004  1  0.055772  0  0.100947  0.104158  0  0.994836  0
H  H25  1  0.49123741  0.89187464  0.78494086  1  0.064297  0  0.100841  0.104915  0  0.994279  0
H  H26  1  0.66804367  0.60826495  0.71504335  1  0.055492  0  0.100925  0.104125  0  0.994745  0
H  H27  1  0.00876151  0.21506089  0.10813240  1  0.064117  0  0.10082  0.104844  0  0.994363  0
H  H28  1  0.16804408  0.71504107  0.60826406  1  0.055322  0  0.100888  0.104097  0  0.994703  0
H  H29  1  0.50876036  0.10814060  0.21506901  1  0.064294  0  0.100845  0.104914  0  0.994332  0
H  H30  1  0.33195097  0.39173987  0.28496065  1  0.055567  0  0.100938  0.10415  0  0.994826  0
H  H31  1  0.99123757  0.78494454  0.89187552  1  0.064326  0  0.100864  0.104927  0  0.994243  0
H  H32  1  0.90277344  0.43436145  0.47962217  1  0.05296  0  0.100693  0.102568  0  0.997628  0
H  H33  1  0.18326676  0.97957494  0.93455573  1  0.036335  0  0.101756  0.1045  0  0.998738  0
H  H34  1  0.59724190  0.52037183  0.56563369  1  0.053272  0  0.100716  0.102533  0  0.997672  0
H  H35  1  0.31672680  0.06544808  0.02043021  1  0.036348  0  0.101799  0.104591  0  0.998661  0
H  H36  1  0.09723495  0.56563541  0.52037299  1  0.052866  0  0.1007  0.102526  0  0.997641  0
H  H37  1  0.81672757  0.02042621  0.06544387  1  0.036142  0  0.10177  0.104576  0  0.998691  0
H  H38  1  0.40277369  0.47962258  0.43436061  1  0.052979  0  0.100735  0.102637  0  0.997573  0
H  H39  1  0.68326918  0.93455245  0.97957100  1  0.036248  0  0.101751  0.104504  0  0.998796  0
H  H40  1  0.88063264  0.53871235  0.36616794  1  0.098703  0  0.107111  0.111433  0  0.999858  0
H  H41  1  0.21473061  0.86607468  0.03874749  1  0.095265  0  0.106779  0.11087  0  0.99873  0
H  H42  1  0.61938270  0.63382630  0.46128537  1  0.09836  0  0.10718  0.111468  0  0.99976  0
H  H43  1  0.28526867  0.96125541  0.13393073  1  0.095318  0  0.106736  0.110759  0  0.99859  0
H  H44  1  0.11938129  0.46128267  0.63382474  1  0.098639  0  0.107135  0.111422  0  0.99978  0
H  H45  1  0.78526990  0.13392892  0.96125102  1  0.095276  0  0.106786  0.110885  0  0.998671  0
H  H46  1  0.38062499  0.36616933  0.53871366  1  0.098832  0  0.107181  0.111527  0  0.999732  0
H  H47  1  0.71473317  0.03874696  0.86607295  1  0.09529  0  0.106781  0.110857  0  0.998739  0
H  H48  1  0.65812207  0.31405150  0.65791533  1  0.07058  0  0.097506  0.144615  0  1.002812  0
H  H49  1  0.36990118  0.15800739  0.81402318  1  0.035715  0  0.097244  0.14427  0  1.003489  0
H  H50  1  0.84188233  0.34208476  0.68594460  1  0.070342  0  0.097484  0.144571  0  1.002864  0
H  H51  1  0.13009328  0.18597441  0.84199708  1  0.035806  0  0.097265  0.144295  0  1.00344  0
H  H52  1  0.34187780  0.68594658  0.34208808  1  0.070394  0  0.097513  0.144646  0  1.002792  0
H  H53  1  0.63009642  0.84199804  0.18597395  1  0.035842  0  0.097273  0.144321  0  1.003481  0
H  H54  1  0.15812259  0.65791516  0.31405129  1  0.070567  0  0.097485  0.144574  0  1.0028  0
H  H55  1  0.86990575  0.81402121  0.15800676  1  0.035756  0  0.097257  0.144283  0  1.003437  0
H  H56  1  0.68183346  0.25840565  0.57883641  1  0.064884  0  0.09461  0.138611  0  1.019099  0
H  H57  1  0.48087706  0.07896980  0.75840658  1  0.080492  0  0.094732  0.138486  0  1.018418  0
H  H58  1  0.81817126  0.42116220  0.74158976  1  0.064836  0  0.09461  0.13857  0  1.019126  0
H  H59  1  0.01912332  0.24159084  0.92103402  1  0.080479  0  0.094738  0.138508  0  1.018407  0
H  H60  1  0.31816867  0.74159182  0.42116346  1  0.064943  0  0.094593  0.138567  0  1.019113  0
H  H61  1  0.51912130  0.92103258  0.24158717  1  0.080476  0  0.094703  0.138479  0  1.018458  0
H  H62  1  0.18182745  0.57883955  0.25840835  1  0.064784  0  0.094596  0.138552  0  1.019142  0
H  H63  1  0.98087847  0.75840601  0.07896941  1  0.080423  0  0.094773  0.138585  0  1.018471  0
H  H64  1  0.68181224  0.35822416  0.55638528  1  0.053554  0  0.098207  0.140707  0  1.001133  0
H  H65  1  0.40359934  0.05652169  0.85823661  1  0.065766  0  0.098479  0.140921  0  1.000993  0
H  H66  1  0.81819059  0.44361421  0.64177375  1  0.05365  0  0.098214  0.140721  0  1.001105  0
H  H67  1  0.09639477  0.14176474  0.94348153  1  0.06567  0  0.09847  0.140883  0  1.001003  0
H  H68  1  0.31819007  0.64177576  0.44361554  1  0.053865  0  0.09823  0.140742  0  1.00111  0
H  H69  1  0.59639610  0.94348130  0.14176151  1  0.065591  0  0.098479  0.140932  0  1.000896  0
H  H70  1  0.18181042  0.55638693  0.35822406  1  0.053573  0  0.098198  0.140677  0  1.001139  0
H  H71  1  0.90360412  0.85823395  0.05652107  1  0.065809  0  0.0985  0.140944  0  1.001019  0
H  H72  1  0.11998400  0.17559882  0.44983987  1  0.059027  0  0.09775  0.142969  0  0.996564  0
H  H73  1  0.25454980  0.94981211  0.67554448  1  0.058272  0  0.097887  0.143325  0  0.996052  0
H  H74  1  0.38001578  0.55016106  0.82439680  1  0.059094  0  0.097784  0.143056  0  0.996513  0
H  H75  1  0.24545216  0.32444806  0.05018926  1  0.058481  0  0.097932  0.143383  0  0.996049  0
H  H76  1  0.88001786  0.82439497  0.55015885  1  0.059119  0  0.097763  0.14299  0  0.996549  0
H  H77  1  0.74544232  0.05019087  0.32445615  1  0.058287  0  0.09787  0.143284  0  0.996063  0
H  H78  1  0.61998260  0.44984131  0.17559804  1  0.059239  0  0.097775  0.143012  0  0.996548  0
H  H79  1  0.75455211  0.67554634  0.94981154  1  0.058375  0  0.097898  0.143329  0  0.996058  0
H  H80  1  0.09277655  0.25573714  0.50619412  1  0.053239  0  0.098386  0.14942  0  1.002408  0
H  H81  1  0.14534823  0.00616070  0.75567494  1  0.091631  0  0.098823  0.1502  0  1.00166  0
H  H82  1  0.40723103  0.49380340  0.74425694  1  0.053294  0  0.09836  0.149379  0  1.002382  0
H  H83  1  0.35465478  0.24431864  0.99384119  1  0.091583  0  0.098813  0.150213  0  1.001609  0
H  H84  1  0.90722607  0.74425788  0.49380452  1  0.053226  0  0.09837  0.14942  0  1.002392  0
H  H85  1  0.85464944  0.99384474  0.24432705  1  0.091662  0  0.098788  0.150146  0  1.001708  0
H  H86  1  0.59277252  0.50619652  0.25573682  1  0.053319  0  0.09838  0.149405  0  1.002389  0
H  H87  1  0.64535016  0.75567576  0.00615878  1  0.091684  0  0.09877  0.150135  0  1.001729  0
H  H88  1  0.06809868  0.27964044  0.41677713  1  0.037435  0  0.097405  0.14036  0  0.995898  0
H  H89  1  0.23560511  0.91686136  0.77959515  1  0.070783  0  0.09724  0.141397  0  0.995267  0
H  H90  1  0.43190813  0.58322028  0.72035361  1  0.037395  0  0.097418  0.140346  0  0.995895  0
H  H91  1  0.26439399  0.22039857  0.08314003  1  0.070313  0  0.097245  0.141436  0  0.995201  0
H  H92  1  0.93190222  0.72035396  0.58322131  1  0.037379  0  0.097427  0.140351  0  0.995822  0
H  H93  1  0.76438905  0.08314162  0.22040734  1  0.070745  0  0.09728  0.141462  0  0.995225  0
H  H94  1  0.56809542  0.41677964  0.27964015  1  0.037423  0  0.097411  0.140383  0  0.995913  0
H  H95  1  0.73560871  0.77959767  0.91685881  1  0.070317  0  0.097261  0.141423  0  0.995206  0
H  H96  1  0.91340504  0.45346337  0.06619822  1  0.075811  0  0.094577  0.139539  0  1.024249  0
H  H97  1  0.56665484  0.56622972  0.95343217  1  0.084185  0  0.094963  0.140025  0  1.02406  0
H  H98  1  0.58659021  0.93380906  0.54653525  1  0.075938  0  0.094576  0.139577  0  1.02428  0
H  H99  1  0.93334564  0.04656949  0.43377010  1  0.084167  0  0.094953  0.140013  0  1.024082  0
H  H100  1  0.08659488  0.54654022  0.93380599  1  0.075932  0  0.094589  0.139532  0  1.024331  0
H  H101  1  0.43334474  0.43376897  0.04657122  1  0.08395  0  0.094966  0.140034  0  1.024063  0
H  H102  1  0.41340684  0.06619209  0.45346807  1  0.075881  0  0.094575  0.139589  0  1.024296  0
H  H103  1  0.06665161  0.95342981  0.56623142  1  0.084077  0  0.094947  0.140017  0  1.024056  0
H  H104  1  0.96286752  0.48421709  0.96099486  1  0.051143  0  0.0951  0.136915  0  0.994432  0
H  H105  1  0.59161077  0.46100606  0.98415529  1  0.015721  0  0.095872  0.137517  0  0.996095  0
H  H106  1  0.53712855  0.03901191  0.51578197  1  0.051338  0  0.095082  0.136898  0  0.994413  0
H  H107  1  0.90838821  0.01584622  0.53899065  1  0.015863  0  0.095908  0.137553  0  0.996092  0
H  H108  1  0.03712808  0.51578712  0.03900888  1  0.051591  0  0.095063  0.13681  0  0.994443  0
H  H109  1  0.40838573  0.53899201  0.01584740  1  0.01588  0  0.095907  0.137544  0  0.99606  0
H  H110  1  0.46286814  0.96098862  0.48422221  1  0.051304  0  0.095074  0.13691  0  0.994408  0
H  H111  1  0.09161176  0.98415431  0.46100776  1  0.015814  0  0.0959  0.137559  0  0.996118  0
H  H112  1  0.96363898  0.38480801  0.98762885  1  0.018289  0  0.093944  0.13718  0  1.009734  0
H  H113  1  0.66364856  0.48765324  0.88477440  1  0.017049  0  0.093401  0.136598  0  1.010841  0
H  H114  1  0.53635277  0.01237770  0.61519311  1  0.018237  0  0.093965  0.137202  0  1.009697  0
H  H115  1  0.83635715  0.11522516  0.51234376  1  0.017184  0  0.093413  0.136639  0  1.010794  0
H  H116  1  0.03635899  0.61519681  0.01237371  1  0.018201  0  0.093973  0.137173  0  1.009752  0
H  H117  1  0.33635399  0.51234484  0.11522895  1  0.017093  0  0.093387  0.136574  0  1.010828  0
H  H118  1  0.46364126  0.98762282  0.38481221  1  0.018378  0  0.093963  0.137217  0  1.009754  0
H  H119  1  0.16364438  0.88477354  0.48765498  1  0.017176  0  0.093411  0.136613  0  1.010803  0
H  H120  1  0.76321898  0.32678726  0.94402492  1  0.076167  0  0.101179  0.107307  0  1.010367  0
H  H121  1  0.96543664  0.44412833  0.82696182  1  0.079671  0  0.101322  0.10731  0  1.009374  0
H  H122  1  0.73678146  0.05597793  0.67320258  1  0.077906  0  0.101204  0.107364  0  1.010208  0
H  H123  1  0.53455096  0.17304788  0.55587552  1  0.0794  0  0.101325  0.10732  0  1.009315  0
H  H124  1  0.23678412  0.67320407  0.05597877  1  0.077906  0  0.101189  0.107359  0  1.010179  0
H  H125  1  0.03455612  0.55587219  0.17304894  1  0.079224  0  0.101353  0.107356  0  1.009293  0
H  H126  1  0.26321499  0.94402567  0.32679277  1  0.078213  0  0.101172  0.10727  0  1.010322  0
H  H127  1  0.46544161  0.82695694  0.44412392  1  0.079631  0  0.101337  0.107346  0  1.009365  0
H  H128  1  0.86876915  0.22169363  0.83901315  1  0.11585  0  0.107041  0.117781  0  1.008459  0
H  H129  1  0.07004028  0.33924186  0.72175474  1  0.111787  0  0.106692  0.117097  0  1.008341  0
H  H130  1  0.63123924  0.16098445  0.77830268  1  0.115879  0  0.107034  0.117831  0  1.008418  0
H  H131  1  0.42995531  0.27825209  0.66076469  1  0.111846  0  0.106692  0.117094  0  1.008308  0
H  H132  1  0.13123617  0.77830690  0.16098351  1  0.115843  0  0.107026  0.117801  0  1.008469  0
H  H133  1  0.92995278  0.66076357  0.27825305  1  0.11179  0  0.106662  0.117071  0  1.008348  0
H  H134  1  0.36876124  0.83901914  0.22169366  1  0.115741  0  0.107018  0.117793  0  1.008518  0
H  H135  1  0.57003974  0.72175457  0.33923541  1  0.111707  0  0.106663  0.117045  0  1.008395  0
C  C136  1  0.82982915  0.53316829  0.24834263  1  1.563886  0  0.213876  0.580108  0  4.194508  0
C  C137  1  0.38872894  0.74826818  0.03313512  1  1.558158  0  0.210921  0.577713  0  4.203636  0
C  C138  1  0.67017126  0.75165932  0.46683184  1  1.563617  0  0.213886  0.580092  0  4.194487  0
C  C139  1  0.11127230  0.96686496  0.25173401  1  1.558168  0  0.210887  0.577642  0  4.203793  0
C  C140  1  0.17017057  0.46683286  0.75165900  1  1.563601  0  0.213894  0.58013  0  4.194415  0
C  C141  1  0.61127161  0.25173541  0.96686555  1  1.558164  0  0.210865  0.577581  0  4.203856  0
C  C142  1  0.32982884  0.24834244  0.53316948  1  1.563878  0  0.213919  0.58023  0  4.194555  0
C  C143  1  0.88872697  0.03313434  0.74826881  1  1.558139  0  0.210915  0.577663  0  4.203717  0
C  C144  1  0.84507059  0.46994841  0.31524749  1  -0.05214  0  -0.023031  -0.046207  0  3.987227  0
C  C145  1  0.36984773  0.81516406  0.96989100  1  -0.038428  0  -0.022774  -0.047791  0  3.986649  0
C  C146  1  0.65493261  0.68475336  0.53005228  1  -0.051817  0  -0.023017  -0.046252  0  3.987279  0
C  C147  1  0.13014502  0.03011069  0.18483397  1  -0.038671  0  -0.022718  -0.047765  0  3.986763  0
C  C148  1  0.15493391  0.53004967  0.68475121  1  -0.051907  0  -0.023031  -0.046254  0  3.987149  0
C  C149  1  0.63014434  0.18483769  0.03011214  1  -0.038848  0  -0.022763  -0.047699  0  3.986767  0
C  C150  1  0.34507064  0.31524595  0.46994720  1  -0.052156  0  -0.023035  -0.04627  0  3.987279  0
C  C151  1  0.86985161  0.96988984  0.81516533  1  -0.038841  0  -0.022761  -0.047703  0  3.986668  0
C  C152  1  0.83084136  0.39855532  0.32287223  1  -0.05077  0  -0.089846  -0.095705  0  3.998824  0
C  C153  1  0.44777993  0.82281625  0.89845160  1  -0.031547  0  -0.08648  -0.089073  0  3.998489  0
C  C154  1  0.66915869  0.67713198  0.60144806  1  -0.050975  0  -0.089851  -0.095719  0  3.998737  0
C  C155  1  0.05221011  0.10154780  0.17718354  1  -0.031666  0  -0.086462  -0.089121  0  3.998283  0
C  C156  1  0.16916000  0.60144521  0.67712940  1  -0.050744  0  -0.089871  -0.095712  0  3.998863  0
C  C157  1  0.55221383  0.17719041  0.10155287  1  -0.029456  0  -0.086466  -0.089078  0  3.998352  0
C  C158  1  0.33083892  0.32287222  0.39855590  1  -0.050819  0  -0.089882  -0.095733  0  3.998886  0
C  C159  1  0.94778192  0.89845395  0.82281635  1  -0.0314  0  -0.086553  -0.089219  0  3.998552  0
C  C160  1  0.84211440  0.34088593  0.38631148  1  -0.009706  0  -0.092849  -0.143192  0  3.991769  0
C  C161  1  0.43065659  0.88633647  0.84084993  1  -0.092775  0  -0.093911  -0.146168  0  3.994389  0
C  C162  1  0.65788487  0.61369213  0.65911484  1  -0.009472  0  -0.092825  -0.143157  0  3.991681  0
C  C163  1  0.06933770  0.15915155  0.11366316  1  -0.092488  0  -0.093927  -0.146068  0  3.99426  0
C  C164  1  0.15788620  0.65911337  0.61369023  1  -0.009207  0  -0.092806  -0.143164  0  3.991647  0
C  C165  1  0.56933834  0.11367202  0.15915793  1  -0.092964  0  -0.093918  -0.146218  0  3.9943  0
C  C166  1  0.34211414  0.38630902  0.34088438  1  -0.009507  0  -0.092864  -0.143197  0  3.991716  0
C  C167  1  0.93065822  0.84085327  0.88633702  1  -0.092694  0  -0.093923  -0.146118  0  3.994232  0
C  C168  1  0.86841888  0.35291628  0.44337643  1  0.021853  0  -0.005176  0.110569  0  4.039102  0
C  C169  1  0.33526744  0.94339677  0.85291236  1  0.002244  0  -0.003799  0.111775  0  4.037795  0
C  C170  1  0.63158485  0.55662486  0.64708405  1  0.021858  0  -0.00507  0.110624  0  4.039013  0
C  C171  1  0.16472914  0.14708708  0.05660431  1  0.001892  0  -0.003773  0.111802  0  4.037665  0
C  C172  1  0.13158314  0.64708426  0.55662491  1  0.021734  0  -0.005037  0.110771  0  4.038892  0
C  C173  1  0.66472871  0.05660621  0.14708818  1  0.001451  0  -0.003788  0.111871  0  4.03785  0
C  C174  1  0.36842002  0.44337384  0.35291435  1  0.021798  0  -0.005106  0.110645  0  4.038956  0
C  C175  1  0.83526769  0.85291590  0.94339757  1  0.001484  0  -0.003788  0.111858  0  4.037788  0
C  C176  1  0.88331986  0.42424984  0.43503029  1  -0.036599  0  -0.089853  -0.138949  0  3.98043  0
C  C177  1  0.25745047  0.93499487  0.92427483  1  -0.053938  0  -0.091436  -0.14325  0  3.985082  0
C  C178  1  0.61669406  0.56496400  0.57574374  1  -0.036796  0  -0.090007  -0.138949  0  3.980286  0
C  C179  1  0.24254452  0.07572488  0.06501194  1  -0.053598  0  -0.091431  -0.143324  0  3.985008  0
C  C180  1  0.11669170  0.57574457  0.56496410  1  -0.036447  0  -0.089953  -0.138949  0  3.980311  0
C  C181  1  0.74254556  0.06500689  0.07572334  1  -0.053015  0  -0.091417  -0.143349  0  3.985044  0
C  C182  1  0.38331721  0.43503102  0.42425063  1  -0.036527  0  -0.08994  -0.139098  0  3.980351  0
C  C183  1  0.75745057  0.92427626  0.93499441  1  -0.053205  0  -0.091432  -0.143304  0  3.985149  0
C  C184  1  0.87132895  0.48237751  0.37188211  1  -0.065928  0  -0.081186  -0.085143  0  3.987892  0
C  C185  1  0.27455316  0.87182869  0.98235725  1  0.021957  0  -0.081518  -0.083015  0  3.984193  0
C  C186  1  0.62868160  0.62811795  0.51761989  1  -0.06589  0  -0.081191  -0.085141  0  3.987732  0
C  C187  1  0.22543905  0.01764255  0.12817369  1  0.022168  0  -0.081592  -0.082963  0  3.984224  0
C  C188  1  0.12868138  0.51761812  0.62811414  1  -0.066197  0  -0.081169  -0.085106  0  3.987656  0
C  C189  1  0.72544164  0.12817429  0.01764332  1  0.022293  0  -0.081559  -0.083069  0  3.984121  0
C  C190  1  0.37132689  0.37188013  0.48237655  1  -0.065993  0  -0.08117  -0.085123  0  3.987731  0
C  C191  1  0.77455522  0.98235736  0.87182733  1  0.022032  0  -0.081536  -0.083008  0  3.984152  0
C  C192  1  0.88042268  0.29086606  0.50963705  1  0.02162  0  -0.031923  -0.185115  0  4.029899  0
C  C193  1  0.31902867  0.00970447  0.79087254  1  0.004554  0  -0.034058  -0.185527  0  4.032483  0
C  C194  1  0.61957973  0.49036445  0.70913512  1  0.021474  0  -0.031965  -0.185199  0  4.03005  0
C  C195  1  0.18097238  0.20912602  0.99029496  1  0.004501  0  -0.034055  -0.185541  0  4.03241  0
C  C196  1  0.11957859  0.70913324  0.49036437  1  0.021514  0  -0.031989  -0.185258  0  4.030085  0
C  C197  1  0.68096738  0.99029729  0.20912725  1  0.004811  0  -0.034036  -0.185549  0  4.032606  0
C  C198  1  0.38042226  0.50963608  0.29086405  1  0.02179  0  -0.031953  -0.185189  0  4.029931  0
C  C199  1  0.81903093  0.79087451  0.00970310  1  0.004446  0  -0.03403  -0.185568  0  4.032404  0
C  C200  1  0.80781890  0.26728018  0.57278456  1  0.394609  0  0.106901  0.215313  0  3.981371  0
C  C201  1  0.35204653  0.07289535  0.76732047  1  0.439072  0  0.109487  0.217665  0  3.981919  0
C  C202  1  0.69218215  0.42721491  0.73271950  1  0.394555  0  0.106858  0.215272  0  3.981478  0
C  C203  1  0.14795101  0.23267915  0.92710804  1  0.439519  0  0.1095  0.217716  0  3.98177  0
C  C204  1  0.19218197  0.73271851  0.42721555  1  0.394525  0  0.106883  0.21532  0  3.981456  0
C  C205  1  0.64794716  0.92711131  0.23267858  1  0.439175  0  0.109494  0.2177  0  3.981873  0
C  C206  1  0.30781849  0.57278563  0.26727917  1  0.394501  0  0.1069  0.215335  0  3.981464  0
C  C207  1  0.85205019  0.76731893  0.07289426  1  0.43954  0  0.109513  0.217705  0  3.981767  0
C  C208  1  0.96746979  0.24009336  0.52075585  1  0.475517  0  0.101147  0.222002  0  4.007945  0
C  C209  1  0.27163458  0.02087899  0.74005050  1  0.46581  0  0.102209  0.223236  0  4.011868  0
C  C210  1  0.53253413  0.47924183  0.75990330  1  0.47557  0  0.101191  0.22215  0  4.008117  0
C  C211  1  0.22836541  0.25994806  0.97912045  1  0.465745  0  0.102185  0.223252  0  4.011913  0
C  C212  1  0.03253350  0.75990166  0.47924305  1  0.475383  0  0.101141  0.222021  0  4.008146  0
C  C213  1  0.72836126  0.97912461  0.25994948  1  0.465449  0  0.102246  0.223315  0  4.011862  0
C  C214  1  0.46746743  0.52075809  0.24009185  1  0.475357  0  0.101184  0.222136  0  4.00791  0
C  C215  1  0.77163554  0.74005186  0.02087878  1  0.465734  0  0.102256  0.223323  0  4.011833  0
C  C216  1  0.70175526  0.30105149  0.59266686  1  -0.056224  0  -0.23369  -0.43258  0  3.959675  0
C  C217  1  0.40452194  0.09275854  0.80105129  1  -0.04079  0  -0.234385  -0.43291  0  3.960632  0
C  C218  1  0.79824609  0.40733226  0.69894624  1  -0.056087  0  -0.233645  -0.432459  0  3.959681  0
C  C219  1  0.09547575  0.19894816  0.90724542  1  -0.041151  0  -0.23438  -0.432874  0  3.960534  0
C  C220  1  0.29824429  0.69894720  0.40733491  1  -0.056431  0  -0.233681  -0.432567  0  3.959703  0
C  C221  1  0.59547462  0.90724629  0.19894644  1  -0.040709  0  -0.23437  -0.432954  0  3.960504  0
C  C222  1  0.20175482  0.59266766  0.30105083  1  -0.056149  0  -0.233622  -0.432401  0  3.959674  0
C  C223  1  0.90452643  0.80104930  0.09275825  1  -0.041193  0  -0.234493  -0.433081  0  3.960735  0
C  C224  1  0.06750005  0.23768152  0.47067889  1  -0.025826  0  -0.234977  -0.431481  0  3.957815  0
C  C225  1  0.22417724  0.97071731  0.73760239  1  -0.088895  0  -0.235908  -0.434696  0  3.957216  0
C  C226  1  0.43250701  0.52931800  0.76231466  1  -0.025938  0  -0.235021  -0.431582  0  3.957947  0
C  C227  1  0.27582466  0.26239217  0.02928189  1  -0.088523  0  -0.235987  -0.434872  0  3.957173  0
C  C228  1  0.93250456  0.76231350  0.52931835  1  -0.02579  0  -0.235016  -0.431535  0  3.957903  0
C  C229  1  0.77581920  0.02928505  0.26239818  1  -0.088891  0  -0.235897  -0.434685  0  3.957277  0
C  C230  1  0.56749619  0.47068131  0.23768103  1  -0.025942  0  -0.23505  -0.431624  0  3.957908  0
C  C231  1  0.72418005  0.73760407  0.97071663  1  -0.088455  0  -0.235927  -0.434714  0  3.95726  0
C  C232  1  0.82305516  0.47955842  0.00295376  1  0.425162  0  0.089694  0.217207  0  4.010235  0
C  C233  1  0.69406456  0.50297013  0.97962672  1  0.424044  0  0.091843  0.218807  0  4.012555  0
C  C234  1  0.67693884  0.99705294  0.52044110  1  0.424602  0  0.08974  0.217253  0  4.009968  0
C  C235  1  0.80593311  0.02037972  0.49702647  1  0.424006  0  0.091817  0.218791  0  4.012506  0
C  C236  1  0.17694060  0.52044272  0.99705230  1  0.424609  0  0.089772  0.217238  0  4.009974  0
C  C237  1  0.30593291  0.49702610  0.02038253  1  0.423503  0  0.091739  0.218732  0  4.012439  0
C  C238  1  0.32305590  0.00294881  0.47956143  1  0.425015  0  0.089675  0.217145  0  4.010204  0
C  C239  1  0.19406274  0.97962387  0.50297405  1  0.424052  0  0.091836  0.218796  0  4.012504  0
C  C240  1  0.92076677  0.44907353  0.00466016  1  -0.032608  0  -0.236382  -0.429381  0  3.961269  0
C  C241  1  0.62518533  0.50468983  0.94905286  1  -0.003134  0  -0.2377  -0.429959  0  3.963751  0
C  C242  1  0.57922819  0.99534669  0.55092652  1  -0.032892  0  -0.236371  -0.42942  0  3.96129  0
C  C243  1  0.87481436  0.05094871  0.49530691  1  -0.003406  0  -0.237735  -0.43004  0  3.963797  0
C  C244  1  0.07922951  0.55093067  0.99534437  1  -0.033072  0  -0.2364  -0.429256  0  3.961288  0
C  C245  1  0.37481447  0.49530702  0.05095197  1  -0.002634  0  -0.237658  -0.429911  0  3.963715  0
C  C246  1  0.42076851  0.00465384  0.44907820  1  -0.032901  0  -0.236336  -0.429427  0  3.961345  0
C  C247  1  0.12518391  0.94905121  0.50469238  1  -0.003309  0  -0.237693  -0.429985  0  3.963733  0
C  C248  1  0.79476814  0.45500667  0.95505802  1  0.02397  0  -0.042909  -0.186691  0  4.048658  0
C  C249  1  0.70522990  0.04494963  0.54498549  1  0.024367  0  -0.042959  -0.186674  0  4.048453  0
C  C250  1  0.20522906  0.54498589  0.04494954  1  0.024347  0  -0.042971  -0.18665  0  4.048538  0
C  C251  1  0.29476692  0.95505336  0.45501530  1  0.024088  0  -0.043008  -0.186759  0  4.048574  0
C  C252  1  0.85674315  0.39303367  0.89305266  1  -0.048757  0  -0.003134  0.109171  0  4.047353  0
C  C253  1  0.64325524  0.10695329  0.60695972  1  -0.048849  0  -0.003148  0.109203  0  4.047388  0
C  C254  1  0.14325510  0.60695949  0.10695485  1  -0.049025  0  -0.003169  0.109107  0  4.047521  0
C  C255  1  0.35674126  0.89305031  0.39303943  1  -0.048861  0  -0.003079  0.109229  0  4.047271  0
C  C256  1  0.83033226  0.32980145  0.89540074  1  -0.004704  0  -0.092868  -0.145971  0  3.973046  0
C  C257  1  0.94399234  0.39548257  0.82987108  1  -0.058022  0  -0.091887  -0.144055  0  3.972736  0
C  C258  1  0.66966781  0.10460270  0.67019129  1  -0.006572  0  -0.092936  -0.146178  0  3.973015  0
C  C259  1  0.55600487  0.17013261  0.60451701  1  -0.057772  0  -0.091822  -0.143949  0  3.972663  0
C  C260  1  0.16966980  0.67018927  0.10460355  1  -0.006566  0  -0.092883  -0.146076  0  3.972936  0
C  C261  1  0.05600614  0.60451428  0.17013487  1  -0.057443  0  -0.091795  -0.14388  0  3.972698  0
C  C262  1  0.33033067  0.89540090  0.32980591  1  -0.006692  0  -0.092878  -0.145984  0  3.973008  0
C  C263  1  0.44399437  0.82987222  0.39547957  1  -0.058032  0  -0.09187  -0.144018  0  3.972715  0
C  C264  1  0.88969976  0.27037314  0.83689759  1  -0.092118  0  -0.081379  -0.083044  0  3.971827  0
C  C265  1  0.00259908  0.33705036  0.77039537  1  -0.027077  0  -0.082159  -0.084266  0  3.973043  0
C  C266  1  0.61030298  0.16310591  0.72962353  1  -0.091852  0  -0.081383  -0.083041  0  3.971839  0
C  C267  1  0.49739917  0.22960767  0.66294992  1  -0.027158  0  -0.082108  -0.084194  0  3.972915  0
C  C268  1  0.11030374  0.72962432  0.16310441  1  -0.091819  0  -0.081406  -0.083093  0  3.971939  0
C  C269  1  0.99739702  0.66295140  0.22960822  1  -0.027092  0  -0.082086  -0.084244  0  3.972919  0
C  C270  1  0.38969396  0.83689953  0.27037442  1  -0.091956  0  -0.081344  -0.082957  0  3.971809  0
C  C271  1  0.50259553  0.77039409  0.33704936  1  -0.027061  0  -0.082079  -0.084128  0  3.973003  0
C  C272  1  0.97599220  0.27390631  0.77388314  1  -0.003687  0  -0.027154  -0.062639  0  4.015396  0
C  C273  1  0.52400930  0.22611808  0.72609525  1  -0.003617  0  -0.027205  -0.062818  0  4.015497  0
C  C274  1  0.02400892  0.72609606  0.22611650  1  -0.003657  0  -0.027235  -0.062739  0  4.015494  0
C  C275  1  0.47598631  0.77388736  0.27390328  1  -0.003555  0  -0.027287  -0.063011  0  4.015474  0
C  C276  1  0.03895016  0.21107504  0.71105549  1  1.515523  0  0.214346  0.57581  0  4.194919  0
C  C277  1  0.46105063  0.28894501  0.78892835  1  1.51504  0  0.214435  0.57592  0  4.194784  0
C  C278  1  0.96104969  0.78892856  0.28894330  1  1.515477  0  0.214378  0.575789  0  4.19506  0
C  C279  1  0.53894781  0.71105736  0.21107189  1  1.51513  0  0.214456  0.576039  0  4.194781  0
N  N280  1  0.85159017  0.20636599  0.61747042  1  -0.826291  0  -0.277133  -0.142502  0  3.665216  0
N  N281  1  0.32455299  0.11757170  0.70638459  1  -0.861374  0  -0.278363  -0.144895  0  3.66473  0
N  N282  1  0.64841091  0.38252742  0.79363349  1  -0.826504  0  -0.277137  -0.142524  0  3.665191  0
N  N283  1  0.17544798  0.29361368  0.88242996  1  -0.861453  0  -0.278426  -0.145103  0  3.664701  0
N  N284  1  0.14841033  0.79363209  0.38253000  1  -0.826261  0  -0.277164  -0.142576  0  3.66523  0
N  N285  1  0.67544281  0.88243190  0.29361267  1  -0.861569  0  -0.278419  -0.145002  0  3.664791  0
N  N286  1  0.35159050  0.61747005  0.20636288  1  -0.826355  0  -0.277152  -0.142596  0  3.665381  0
N  N287  1  0.82455291  0.70638501  0.11757177  1  -0.861397  0  -0.278365  -0.144921  0  3.664752  0
N  N288  1  0.94820221  0.18875040  0.58643429  1  -0.815086  0  -0.272549  -0.260833  0  3.530664  0
N  N289  1  0.27662325  0.08653075  0.68870244  1  -0.805597  0  -0.271991  -0.259772  0  3.532488  0
N  N290  1  0.55179814  0.41356729  0.81125095  1  -0.814933  0  -0.272524  -0.260865  0  3.530698  0
N  N291  1  0.22338066  0.31129416  0.91346890  1  -0.80541  0  -0.271876  -0.259639  0  3.532467  0
N  N292  1  0.05179984  0.81124584  0.41356539  1  -0.814875  0  -0.272478  -0.260748  0  3.530634  0
N  N293  1  0.72337596  0.91346856  0.31129498  1  -0.805178  0  -0.271994  -0.259808  0  3.532448  0
N  N294  1  0.44820133  0.58643570  0.18874762  1  -0.815011  0  -0.272531  -0.260806  0  3.530615  0
N  N295  1  0.77662186  0.68870392  0.08653229  1  -0.805514  0  -0.272018  -0.25983  0  3.532515  0
N  N296  1  0.74365301  0.53795426  0.05303602  1  -0.809216  0  -0.286147  -0.267496  0  3.620719  0
N  N297  1  0.66515585  0.55301342  0.03802809  1  -0.831076  0  -0.285717  -0.267958  0  3.623087  0
N  N298  1  0.75634465  0.94696576  0.46204919  1  -0.809078  0  -0.286205  -0.267678  0  3.620772  0
N  N299  1  0.83484224  0.96197151  0.44699044  1  -0.831038  0  -0.285641  -0.267794  0  3.623027  0
N  N300  1  0.25634487  0.46204933  0.94696634  1  -0.80906  0  -0.2862  -0.267602  0  3.620641  0
N  N301  1  0.33484322  0.44698773  0.96197491  1  -0.831061  0  -0.285655  -0.267917  0  3.623022  0
N  N302  1  0.24365388  0.05303231  0.53795480  1  -0.809187  0  -0.286119  -0.267433  0  3.62069  0
N  N303  1  0.16515437  0.03802779  0.55301407  1  -0.83112  0  -0.285717  -0.267936  0  3.623105  0
O  O304  1  0.80591346  0.51485211  0.19963946  1  -1.184825  0  -0.340471  -0.563138  0  2.366101  0
O  O305  1  0.47957278  0.69943976  0.01483890  1  -1.191012  0  -0.340674  -0.562845  0  2.369148  0
O  O306  1  0.69407960  0.80036614  0.48514841  1  -1.184884  0  -0.340498  -0.563143  0  2.366094  0
O  O307  1  0.02042993  0.98516225  0.30057220  1  -1.190992  0  -0.340712  -0.56283  0  2.369189  0
O  O308  1  0.19408035  0.48515025  0.80036550  1  -1.18486  0  -0.340485  -0.563139  0  2.36609  0
O  O309  1  0.52043112  0.30057365  0.98516172  1  -1.190856  0  -0.340723  -0.562829  0  2.369232  0
O  O310  1  0.30591369  0.19963868  0.51485507  1  -1.184799  0  -0.340477  -0.563168  0  2.366148  0
O  O311  1  0.97956940  0.01484134  0.69943771  1  -1.190968  0  -0.340708  -0.562821  0  2.369125  0
O  O312  1  0.84044039  0.59790058  0.24345463  1  -1.171201  0  -0.310271  -0.538016  0  2.192856  0
O  O313  1  0.31828964  0.74348191  0.09789742  1  -1.180406  0  -0.307379  -0.536289  0  2.194974  0
O  O314  1  0.65956422  0.75654517  0.40209658  1  -1.171001  0  -0.310272  -0.537976  0  2.192713  0
O  O315  1  0.18171305  0.90210180  0.25651515  1  -1.180561  0  -0.307359  -0.53629  0  2.194965  0
O  O316  1  0.15956146  0.40209750  0.75654685  1  -1.170926  0  -0.310255  -0.537997  0  2.19269  0
O  O317  1  0.68171555  0.25651617  0.90210262  1  -1.180544  0  -0.307301  -0.536226  0  2.195054  0
O  O318  1  0.34043930  0.24345904  0.59789830  1  -1.1712  0  -0.310277  -0.538013  0  2.192962  0
O  O319  1  0.81828712  0.09789689  0.74348255  1  -1.180423  0  -0.307334  -0.536281  0  2.19498  0
O  O320  1  0.10552388  0.22528916  0.64618738  1  -1.190065  0  -0.323435  -0.543349  0  2.354747  0
O  O321  1  0.02327619  0.14609029  0.72517976  1  -1.181936  0  -0.323735  -0.544842  0  2.355124  0
O  O322  1  0.39447407  0.35381099  0.77471822  1  -1.190423  0  -0.323471  -0.543367  0  2.354761  0
O  O323  1  0.47672919  0.27482022  0.85391335  1  -1.181213  0  -0.323774  -0.544885  0  2.355094  0
O  O324  1  0.89447129  0.77471995  0.35380934  1  -1.190503  0  -0.323426  -0.543315  0  2.354794  0
O  O325  1  0.97673026  0.85391208  0.27481705  1  -1.181521  0  -0.323757  -0.544844  0  2.355264  0
O  O326  1  0.60551921  0.64618831  0.22528772  1  -1.190364  0  -0.323463  -0.543358  0  2.35456  0
O  O327  1  0.52327186  0.72518093  0.14608771  1  -1.181227  0  -0.323748  -0.544889  0  2.355269  0
