# generated using pymatgen
data_NdCuH13C15N2O13
_symmetry_space_group_name_H-M   'P 1'
_cell_length_a   8.09503935
_cell_length_b   11.04448790
_cell_length_c   11.85450127
_cell_angle_alpha   100.88059113
_cell_angle_beta   106.59613885
_cell_angle_gamma   102.81370629
_symmetry_Int_Tables_number   1
_chemical_formula_structural   NdCuH13C15N2O13
_chemical_formula_sum   'Nd2 Cu2 H26 C30 N4 O26'
_cell_volume   953.68746481
_cell_formula_units_Z   2
loop_
 _symmetry_equiv_pos_site_id
 _symmetry_equiv_pos_as_xyz
  1  'x, y, z'
loop_
 _atom_site_type_symbol
 _atom_site_label
 _atom_site_symmetry_multiplicity
 _atom_site_fract_x
 _atom_site_fract_y
 _atom_site_fract_z
 _atom_site_occupancy
 _atom_site_hle17_ddec_charge
 _atom_site_hle17_ddec_spin_density
 _atom_site_hle17_ddec_sum_bond_order
 _atom_site_hle17_magmom
 _atom_site_hse06_10hf_ddec_charge
 _atom_site_hse06_10hf_ddec_spin_density
 _atom_site_hse06_10hf_ddec_sum_bond_order
 _atom_site_hse06_10hf_magmom
 _atom_site_hse06_ddec_charge
 _atom_site_hse06_ddec_spin_density
 _atom_site_hse06_ddec_sum_bond_order
 _atom_site_hse06_magmom
 _atom_site_pbe_cm5_charge
 _atom_site_pbe_ddec_charge
 _atom_site_pbe_ddec_spin_density
 _atom_site_pbe_ddec_sum_bond_order
 _atom_site_pbe_magmom
Nd  Nd0  1  0.01525498  0.33764254  0.07982926  1  2.318435  -5.4e-05  1.575503  0.0  2.221424  0.000123  1.924998  0.0  2.258943  5.4e-05  1.885113  0.0  1.468441  2.13555  0.000241  2.060886  0.0
Nd  Nd1  1  0.98474315  0.66235579  0.92017145  1  2.318437  4.6e-05  1.575492  0.0  2.221421  -0.000139  1.924995  0.0  2.258942  -5.1e-05  1.885106  0.0  1.468425  2.135598  -0.000242  2.060806  0.0
Cu  Cu2  1  0.96694627  0.77062022  0.44441979  1  0.824554  -0.736439  1.895264  -0.513  0.794098  -0.812184  2.300891  -0.622  0.88078  -0.886658  2.234637  -0.706  0.752113  0.741029  -0.757831  2.347783  -0.567
Cu  Cu3  1  0.03305612  0.22937909  0.55557940  1  0.824571  0.73645  1.895301  0.513  0.794046  0.812208  2.301081  0.622  0.880729  0.88665  2.234687  0.706  0.752139  0.741012  0.757848  2.347874  0.567
H  H4  1  0.40111697  0.67707612  0.14731852  1  0.026707  8e-06  0.896334  0.0  0.038753  8e-06  0.957185  0.0  0.038912  7e-06  0.9533  0.0  0.119416  0.038065  1e-05  0.96035  0.0
H  H5  1  0.59888850  0.32291454  0.85267476  1  0.026715  -8e-06  0.896316  0.0  0.038724  -8e-06  0.95722  0.0  0.038885  -6e-06  0.953333  0.0  0.119409  0.038045  -9e-06  0.960382  0.0
H  H6  1  0.75391424  0.08528950  0.95845489  1  0.409011  -9e-06  0.910869  0.0  0.376538  -9e-06  0.978502  0.0  0.388346  -6e-06  0.961329  0.0  0.288978  0.36853  -1.4e-05  0.989823  0.0
H  H7  1  0.24609117  0.91471753  0.04154620  1  0.40899  9e-06  0.910921  0.0  0.376515  9e-06  0.978551  0.0  0.388324  6e-06  0.961377  0.0  0.288962  0.368509  1.4e-05  0.989871  0.0
H  H8  1  0.82420171  0.11076403  0.85147008  1  0.427117  -0.000109  0.877093  0.0  0.400025  -4.2e-05  0.935095  0.0  0.410483  -3.3e-05  0.919838  0.0  0.298218  0.392704  -4e-05  0.94554  0.0
H  H9  1  0.17580350  0.88923914  0.14852779  1  0.427121  0.000108  0.877084  0.0  0.400021  4.1e-05  0.935093  0.0  0.410479  3.3e-05  0.919843  0.0  0.298218  0.392703  4e-05  0.94553  0.0
H  H10  1  0.15430751  0.12517239  0.16923047  1  0.446089  -0.000126  0.844214  0.0  0.416834  -0.000117  0.904419  0.0  0.426701  -6.3e-05  0.889943  0.0  0.306232  0.409747  -0.000183  0.914648  0.0
H  H11  1  0.84568932  0.87482595  0.83077168  1  0.446059  0.000126  0.844259  0.0  0.416812  0.000117  0.904444  0.0  0.426676  6.3e-05  0.889971  0.0  0.306238  0.409726  0.000183  0.91467  0.0
H  H12  1  0.22029898  0.13208374  0.05649553  1  0.449625  1.3e-05  0.841473  0.0  0.419341  1.1e-05  0.903416  0.0  0.429633  5e-06  0.888245  0.0  0.304946  0.411851  1.5e-05  0.91433  0.0
H  H13  1  0.77970195  0.86791848  0.94350893  1  0.449546  -1.4e-05  0.841571  0.0  0.419257  -1.1e-05  0.903524  0.0  0.429549  -5e-06  0.888351  0.0  0.304916  0.411768  -1.5e-05  0.914435  0.0
H  H14  1  0.30259717  0.33145618  0.97730405  1  0.436091  7e-06  0.814544  0.0  0.421071  5e-06  0.864501  0.0  0.429313  3e-06  0.855231  0.0  0.328041  0.415159  4e-06  0.870258  0.0
H  H15  1  0.69740010  0.66852671  0.02268546  1  0.436198  -7e-06  0.814478  0.0  0.42118  -5e-06  0.864448  0.0  0.429426  -3e-06  0.855166  0.0  0.328054  0.415265  -4e-06  0.87022  0.0
H  H16  1  0.16332874  0.33770225  0.85655707  1  0.437097  -1e-06  0.865341  0.0  0.406353  -4e-06  0.928301  0.0  0.418251  4e-06  0.911108  0.0  0.294726  0.397828  -2.4e-05  0.940476  0.0
H  H17  1  0.83666788  0.66229221  0.14344016  1  0.437127  1e-06  0.865286  0.0  0.406366  4e-06  0.928267  0.0  0.418278  -4e-06  0.911055  0.0  0.294727  0.397818  2.4e-05  0.940458  0.0
H  H18  1  0.51131018  0.45901377  0.30540539  1  0.130163  0.000151  0.96854  0.0  0.137208  -3.5e-05  1.029789  0.0  0.141377  -4e-05  1.026158  0.0  0.118946  0.134006  -1.8e-05  1.032646  0.0
H  H19  1  0.48868419  0.54097486  0.69458535  1  0.130161  -0.00015  0.968465  0.0  0.137193  3.5e-05  1.029753  0.0  0.141359  4e-05  1.026121  0.0  0.118921  0.133993  1.8e-05  1.032612  0.0
H  H20  1  0.44814592  0.35300661  0.46313571  1  0.120143  0.000701  0.965867  0.001  0.128606  0.000641  1.025989  0.001  0.132939  0.00045  1.023716  0.0  0.11203  0.12539  0.000791  1.02796  0.001
H  H21  1  0.55185022  0.64699650  0.53686458  1  0.120173  -0.000701  0.965958  -0.001  0.128665  -0.00064  1.026032  -0.001  0.133004  -0.00045  1.02376  0.0  0.112041  0.125449  -0.000791  1.028001  -0.001
H  H22  1  0.68370855  0.25727569  0.57638584  1  0.091006  0.001105  0.944499  0.002  0.100319  0.000905  1.006057  0.002  0.102542  0.000668  1.00374  0.001  0.124215  0.09849  0.001081  1.008018  0.002
H  H23  1  0.31628445  0.74272934  0.42361752  1  0.090888  -0.001105  0.944664  -0.002  0.10028  -0.000905  1.006149  -0.002  0.102505  -0.000667  1.003829  -0.001  0.124217  0.098446  -0.001081  1.008109  -0.002
H  H24  1  0.63077829  0.82930651  0.47821946  1  0.088751  -0.000939  0.944778  -0.002  0.097855  -0.000813  1.007721  -0.001  0.100357  -0.000608  1.005466  -0.001  0.123857  0.095866  -0.000969  1.009607  -0.002
H  H25  1  0.36923505  0.17069772  0.52178357  1  0.088789  0.00094  0.944738  0.002  0.097819  0.000813  1.007763  0.001  0.100342  0.000608  1.005479  0.001  0.123881  0.095832  0.000969  1.009637  0.002
H  H26  1  0.42032702  0.94448704  0.37300897  1  0.114598  -0.000574  0.966583  0.0  0.121363  -0.000569  1.031431  0.0  0.126021  -0.000401  1.028857  0.0  0.110028  0.117954  -0.000706  1.033529  -0.001
H  H27  1  0.57968744  0.05552014  0.62700153  1  0.114632  0.000574  0.966557  0.0  0.121356  0.000569  1.031449  0.0  0.126021  0.000401  1.028848  0.0  0.110032  0.117941  0.000707  1.033558  0.001
H  H28  1  0.49992627  0.05274926  0.22033336  1  0.11903  -0.000129  0.914944  0.0  0.132388  3.5e-05  0.965705  0.0  0.136126  3.5e-05  0.96299  0.0  0.122303  0.129356  2.5e-05  0.968376  0.0
H  H29  1  0.50007324  0.94726261  0.77967919  1  0.119025  0.000128  0.914987  0.0  0.13234  -3.5e-05  0.965809  0.0  0.136076  -3.5e-05  0.963098  0.0  0.122315  0.129314  -2.5e-05  0.968474  0.0
C  C30  1  0.29865540  0.58571436  0.13435123  1  0.60143  4e-06  3.916571  0.0  0.53212  0.0  4.234197  0.0  0.565902  -0.0  4.222649  0.0  0.147782  0.510399  -2e-06  4.232501  0.0
C  C31  1  0.70134214  0.41427914  0.86564433  1  0.601459  -6e-06  3.916528  0.0  0.532172  2e-06  4.234143  0.0  0.565951  -2e-06  4.2226  0.0  0.14779  0.510446  2e-06  4.232453  0.0
C  C32  1  0.79881696  0.48656936  0.23421639  1  0.715029  0.001295  3.871284  0.001  0.662697  0.00107  4.177588  0.001  0.700395  0.000718  4.163375  0.001  0.234369  0.637578  0.001416  4.182969  0.001
C  C33  1  0.20117745  0.51342605  0.76578225  1  0.715343  -0.001295  3.871318  -0.001  0.663002  -0.001068  4.177709  -0.001  0.700702  -0.000715  4.163491  -0.001  0.234431  0.637879  -0.001416  4.183119  -0.001
C  C34  1  0.78509913  0.05691829  0.14467330  1  0.703068  -0.000803  3.89387  -0.001  0.648052  -0.000727  4.198573  -0.001  0.683356  -0.000448  4.187901  0.0  0.230523  0.623968  -0.001023  4.203515  -0.001
C  C35  1  0.21490606  0.94308491  0.85532879  1  0.702821  0.000805  3.894029  0.001  0.647888  0.000728  4.198613  0.001  0.683192  0.000448  4.187941  0.0  0.230417  0.623807  0.001022  4.203559  0.001
C  C36  1  0.06465677  0.35862236  0.38002873  1  0.655054  -0.004019  3.883697  -0.006  0.606837  0.000343  4.190332  -0.001  0.64479  0.00016  4.180064  -0.001  0.22263  0.580935  0.000496  4.194166  -0.002
C  C37  1  0.93533952  0.64137787  0.61997110  1  0.655225  0.004019  3.883416  0.006  0.607106  -0.00034  4.189864  0.001  0.645062  -0.000161  4.179585  0.001  0.222784  0.581206  -0.000495  4.1937  0.002
C  C38  1  0.88671843  0.36312152  0.39414466  1  0.065499  -0.004449  3.719073  -0.005  0.060078  -0.000313  3.966756  -0.001  0.06389  -0.001246  3.986422  -0.002  0.112113  0.057423  0.000357  3.954696  0.0
C  C39  1  0.11327635  0.63687485  0.60585422  1  0.06534  0.004452  3.719348  0.005  0.059988  0.000313  3.966989  0.001  0.063804  0.001244  3.986645  0.002  0.112182  0.05733  -0.000358  3.954933  0.0
C  C40  1  0.76713672  0.42082167  0.33013120  1  -0.07264  0.006091  3.649793  0.006  -0.059339  0.00241  3.886188  0.002  -0.06742  0.002414  3.90411  0.002  0.012405  -0.055069  0.002467  3.875549  0.002
C  C41  1  0.23285730  0.57917280  0.66986973  1  -0.072602  -0.006094  3.649382  -0.006  -0.059524  -0.002412  3.886138  -0.002  -0.06761  -0.002417  3.904055  -0.002  0.01234  -0.055253  -0.002467  3.875511  -0.002
C  C42  1  0.60768695  0.41664061  0.35591424  1  0.000999  -0.007942  3.613058  -0.007  -0.027467  -0.002606  3.859685  -0.002  -0.020994  -0.002897  3.871643  -0.003  -0.050003  -0.032041  -0.002354  3.852791  -0.002
C  C43  1  0.39230595  0.58335089  0.64407755  1  0.000959  0.007943  3.612654  0.007  -0.027456  0.002607  3.859384  0.002  -0.020991  0.002897  3.87137  0.003  -0.049989  -0.032026  0.002354  3.852481  0.002
C  C44  1  0.57273257  0.35721529  0.44358939  1  -0.086093  0.009986  3.668059  0.01  -0.098998  0.004296  3.918592  0.005  -0.104579  0.003884  3.934313  0.005  -0.068883  -0.095577  0.004602  3.908511  0.005
C  C45  1  0.42725850  0.64277813  0.55640320  1  -0.086165  -0.009984  3.668387  -0.01  -0.099072  -0.004296  3.918931  -0.005  -0.104659  -0.003882  3.934647  -0.005  -0.068887  -0.095649  -0.004601  3.908844  -0.005
C  C46  1  0.69898793  0.30335132  0.50499565  1  0.140194  -0.006126  3.671334  -0.007  0.107551  -0.000667  3.931984  -0.002  0.117633  -0.001799  3.949238  -0.003  0.053355  0.101009  0.00025  3.920906  -0.001
C  C47  1  0.30100776  0.69664413  0.49500663  1  0.140448  0.006126  3.671539  0.007  0.107702  0.000667  3.932231  0.002  0.117784  0.001797  3.949481  0.003  0.053424  0.101165  -0.00025  3.921135  0.001
C  C48  1  0.74636033  0.99972817  0.24384502  1  -0.057583  -0.004699  3.648836  -0.004  -0.047882  -0.00203  3.894013  -0.002  -0.053208  -0.002022  3.909615  -0.002  0.01504  -0.045419  -0.002105  3.885498  -0.002
C  C49  1  0.25364431  0.00027699  0.75616235  1  -0.057429  0.004679  3.648563  0.004  -0.047749  0.002029  3.893751  0.002  -0.053071  0.002024  3.909353  0.002  0.015077  -0.045292  0.002105  3.885238  0.002
C  C50  1  0.85744036  0.93799901  0.30945976  1  0.062096  0.002696  3.72276  0.003  0.054315  -0.000549  3.980159  0.0  0.058067  0.000291  3.99706  0.001  0.110086  0.051155  -0.001177  3.970741  0.0
C  C51  1  0.14255853  0.06200122  0.69053805  1  0.061962  -0.002677  3.722229  -0.003  0.054123  0.00055  3.979737  0.0  0.057871  -0.000293  3.996653  -0.001  0.110003  0.050965  0.001176  3.970324  0.0
C  C52  1  0.03694776  0.93275648  0.30045049  1  0.631381  0.003911  3.887035  0.006  0.579548  -0.000221  4.19362  0.002  0.614902  -7.2e-05  4.187437  0.001  0.220673  0.555294  -0.00036  4.197824  0.002
C  C53  1  0.96305113  0.06724375  0.69954732  1  0.631431  -0.003917  3.887092  -0.006  0.579618  0.000221  4.193646  -0.002  0.614952  7e-05  4.18749  -0.001  0.220685  0.555367  0.00036  4.197852  -0.002
C  C54  1  0.65812883  0.87971127  0.41198551  1  0.132275  0.005108  3.67669  0.006  0.100342  0.000525  3.937184  0.001  0.110057  0.001445  3.953669  0.002  0.051604  0.093948  -0.000257  3.926591  0.001
C  C55  1  0.34187713  0.12029383  0.58801284  1  0.132197  -0.005095  3.676541  -0.006  0.1003  -0.000525  3.937023  -0.001  0.110006  -0.001447  3.953494  -0.002  0.051592  0.093912  0.000255  3.926429  -0.001
C  C56  1  0.54452450  0.94444945  0.35423655  1  -0.092915  -0.007844  3.689324  -0.008  -0.108059  -0.003505  3.947115  -0.004  -0.113731  -0.003172  3.963764  -0.004  -0.070515  -0.104552  -0.00374  3.936516  -0.004
C  C57  1  0.45548754  0.05555481  0.64577044  1  -0.092928  0.007827  3.689197  0.008  -0.108013  0.003505  3.946915  0.004  -0.113681  0.003175  3.963577  0.004  -0.070479  -0.104502  0.003742  3.93632  0.004
C  C58  1  0.58826269  0.00386021  0.26877341  1  0.003566  0.006255  3.633518  0.006  -0.024796  0.001944  3.883637  0.002  -0.019323  0.002218  3.896792  0.002  -0.049802  -0.029  0.001655  3.876295  0.001
C  C59  1  0.41173846  0.99614584  0.73122920  1  0.003549  -0.006232  3.633569  -0.006  -0.024798  -0.001944  3.883715  -0.002  -0.01933  -0.002219  3.896875  -0.002  -0.049848  -0.028995  -0.001656  3.876365  -0.001
N  N60  1  0.84999919  0.30608079  0.47907564  1  -0.313035  0.082198  3.404864  0.1  -0.273841  0.055188  3.711244  0.072  -0.3045  0.046157  3.734427  0.063  -0.356936  -0.255839  0.059718  3.698199  0.075
N  N61  1  0.14999321  0.69391944  0.52092848  1  -0.313132  -0.082191  3.405118  -0.1  -0.273909  -0.055187  3.711427  -0.072  -0.304562  -0.046154  3.734631  -0.063  -0.357041  -0.255902  -0.059714  3.698388  -0.075
N  N62  1  0.81022705  0.87697870  0.38934506  1  -0.308606  -0.067554  3.38197  -0.082  -0.270409  -0.047104  3.688243  -0.061  -0.297861  -0.039531  3.707276  -0.054  -0.352203  -0.25419  -0.051129  3.677909  -0.064
N  N63  1  0.18978521  0.12302936  0.61065756  1  -0.308501  0.067542  3.381642  0.082  -0.270246  0.047107  3.687893  0.061  -0.297693  0.039537  3.706901  0.054  -0.352148  -0.254032  0.051132  3.67754  0.064
O  O64  1  0.79022227  0.15489818  0.91861128  1  -0.920824  -0.000187  1.886412  0.0  -0.880164  -0.00011  2.074668  0.0  -0.899175  -9.4e-05  2.042375  0.0  -0.660718  -0.858989  -0.000106  2.100091  0.0
O  O65  1  0.20978536  0.84510789  0.08138756  1  -0.920824  0.000188  1.886457  0.0  -0.880162  0.00011  2.07475  0.0  -0.89918  9.4e-05  2.042447  0.0  -0.660691  -0.858967  0.000106  2.100109  0.0
O  O66  1  0.34642029  0.48820334  0.15342263  1  -0.63942  6e-06  2.025264  0.0  -0.593322  -2.4e-05  2.263551  0.0  -0.616869  -2e-05  2.253278  0.0  -0.350743  -0.571993  -2e-05  2.270018  0.0
O  O67  1  0.65357481  0.51178728  0.84657619  1  -0.639447  -7e-06  2.025393  0.0  -0.593337  2.4e-05  2.263663  0.0  -0.616881  2.1e-05  2.25339  0.0  -0.350711  -0.572011  2e-05  2.270137  0.0
O  O68  1  0.19232798  0.18414047  0.12245507  1  -0.915088  -0.000277  1.800458  0.0  -0.873491  -0.000195  1.978684  0.0  -0.890563  -0.000112  1.947044  0.0  -0.645067  -0.853684  -0.000273  2.004801  0.0
O  O69  1  0.80767370  0.81586369  0.87755070  1  -0.914966  0.000279  1.800568  0.0  -0.873355  0.000195  1.978786  0.0  -0.890426  0.000114  1.947146  0.0  -0.645048  -0.853574  0.000273  2.004934  0.0
O  O70  1  0.13222040  0.58313027  0.09941844  1  -0.763031  6e-06  2.116359  0.0  -0.714411  2.2e-05  2.375804  0.0  -0.738385  1.6e-05  2.364466  0.0  -0.423865  -0.685198  3.5e-05  2.381306  0.0
O  O71  1  0.86778179  0.41686516  0.90057584  1  -0.76307  -3e-06  2.116181  0.0  -0.714439  -2.2e-05  2.375611  0.0  -0.738419  -1.6e-05  2.36428  0.0  -0.423875  -0.68522  -3.5e-05  2.381117  0.0
O  O72  1  0.17479041  0.29867698  0.92812615  1  -0.893619  -0.000211  1.835257  0.0  -0.850775  -0.0001  2.020497  0.0  -0.869131  -6.5e-05  1.992946  0.0  -0.628538  -0.830988  -0.000127  2.04241  0.0
O  O73  1  0.82520324  0.70131649  0.07187117  1  -0.893758  0.00021  1.835188  0.0  -0.850905  0.0001  2.020442  0.0  -0.869277  6.6e-05  1.99285  0.0  -0.628565  -0.83111  0.000127  2.042443  0.0
O  O74  1  0.78289423  0.41673962  0.13138722  1  -0.726439  0.001438  1.99232  0.002  -0.681972  0.000814  2.234631  0.001  -0.705531  0.000505  2.220231  0.001  -0.396273  -0.657128  0.001148  2.244779  0.001
O  O75  1  0.21710648  0.58325872  0.86861147  1  -0.726573  -0.001438  1.992412  -0.002  -0.682077  -0.000814  2.234727  -0.001  -0.70564  -0.000504  2.220325  -0.001  -0.396275  -0.657239  -0.001148  2.244881  -0.001
O  O76  1  0.12126887  0.41183650  0.30786814  1  -0.666121  0.015622  2.001197  0.019  -0.628545  0.008068  2.243384  0.011  -0.654213  0.004095  2.234701  0.006  -0.361088  -0.602512  0.012402  2.249687  0.016
O  O77  1  0.87872284  0.58816850  0.69213412  1  -0.666171  -0.015626  2.000966  -0.019  -0.628658  -0.008071  2.243148  -0.011  -0.654323  -0.004093  2.234451  -0.006  -0.361207  -0.60263  -0.012404  2.249454  -0.016
O  O78  1  0.86569589  0.17609047  0.17458286  1  -0.712525  -0.001321  2.066455  -0.001  -0.663354  -0.000716  2.311031  -0.001  -0.690799  -0.000441  2.303889  -0.001  -0.357646  -0.637252  -0.001062  2.316166  -0.001
O  O79  1  0.13430505  0.82391172  0.82541822  1  -0.712434  0.00132  2.066457  0.001  -0.663274  0.000716  2.310979  0.001  -0.69072  0.000441  2.303838  0.001  -0.357574  -0.63717  0.001062  2.316094  0.001
O  O80  1  0.15394048  0.30062034  0.44865289  1  -0.570439  0.09289  2.038788  0.121  -0.546674  0.062525  2.325228  0.089  -0.588334  0.048554  2.315822  0.073  -0.31051  -0.5194  0.071232  2.33218  0.098
O  O81  1  0.84605080  0.69937695  0.55134461  1  -0.570525  -0.092909  2.038711  -0.121  -0.546818  -0.06254  2.325122  -0.089  -0.588489  -0.048561  2.315749  -0.073  -0.310572  -0.519545  -0.071246  2.332112  -0.098
O  O82  1  0.82943299  0.60805267  0.26076153  1  -0.622863  0.002544  2.023225  0.002  -0.576567  0.001347  2.26989  0.001  -0.60818  0.001204  2.257085  0.001  -0.298931  -0.554758  0.001515  2.278541  0.001
O  O83  1  0.17055349  0.39194553  0.73923433  1  -0.622944  -0.002545  2.023326  -0.002  -0.576598  -0.001347  2.269994  -0.001  -0.608206  -0.001203  2.257168  -0.001  -0.298922  -0.554794  -0.001515  2.278633  -0.001
O  O84  1  0.72168544  0.98156482  0.03738470  1  -0.624482  -0.001391  1.96088  -0.002  -0.565778  -0.000707  2.172275  -0.001  -0.592117  -0.000403  2.160718  -0.001  -0.301797  -0.547329  -0.001081  2.179922  -0.001
O  O85  1  0.27831366  0.01843929  0.96261719  1  -0.624385  0.00139  1.960857  0.002  -0.565729  0.000707  2.172234  0.001  -0.592067  0.000403  2.160676  0.001  -0.301782  -0.547288  0.001081  2.179879  0.001
O  O86  1  0.10619895  0.99424088  0.23822962  1  -0.590385  -0.013902  2.002344  -0.017  -0.53304  -0.007609  2.216804  -0.01  -0.558906  -0.003824  2.207974  -0.005  -0.284804  -0.514713  -0.011597  2.222493  -0.015
O  O87  1  0.89379337  0.00576889  0.76176682  1  -0.590414  0.013905  2.0024  0.017  -0.533087  0.00761  2.21685  0.01  -0.558945  0.003827  2.208027  0.005  -0.284818  -0.514753  0.011596  2.22254  0.015
O  O88  1  0.11405688  0.86359642  0.36146406  1  -0.572875  -0.09098  2.047733  -0.118  -0.544765  -0.062309  2.329222  -0.089  -0.585832  -0.048559  2.321813  -0.073  -0.314764  -0.517578  -0.070868  2.334702  -0.097
O  O89  1  0.88595145  0.13640483  0.63853157  1  -0.572919  0.090991  2.047821  0.118  -0.544755  0.062309  2.329278  0.089  -0.585817  0.048562  2.321849  0.073  -0.314772  -0.51757  0.070864  2.334745  0.097
