# generated using pymatgen
data_CdH15C18N5O4
_symmetry_space_group_name_H-M   'P 1'
_cell_length_a   9.95524748
_cell_length_b   12.47125134
_cell_length_c   15.10735194
_cell_angle_alpha   97.60933262
_cell_angle_beta   90.00007223
_cell_angle_gamma   89.99997621
_symmetry_Int_Tables_number   1
_chemical_formula_structural   CdH15C18N5O4
_chemical_formula_sum   'Cd4 H60 C72 N20 O16'
_cell_volume   1859.12716681
_cell_formula_units_Z   4
loop_
 _symmetry_equiv_pos_site_id
 _symmetry_equiv_pos_as_xyz
  1  'x, y, z'
loop_
 _atom_site_type_symbol
 _atom_site_label
 _atom_site_symmetry_multiplicity
 _atom_site_fract_x
 _atom_site_fract_y
 _atom_site_fract_z
 _atom_site_occupancy
 _atom_site_pbe_bader_charge
 _atom_site_pbe_bader_spin_density
 _atom_site_pbe_cm5_charge
 _atom_site_pbe_ddec_charge
 _atom_site_pbe_ddec_spin_density
 _atom_site_pbe_ddec_sum_bond_order
 _atom_site_pbe_magmom
Cd  Cd0  1  0.24381327  0.13083055  0.18438776  1  1.255416  0  0.773567  0.872034  0  2.208503  0
Cd  Cd1  1  0.24381220  0.86916819  0.31560258  1  1.255188  0  0.773607  0.872169  0  2.208373  0
Cd  Cd2  1  0.75618668  0.86916954  0.81560610  1  1.255142  0  0.77361  0.872141  0  2.208462  0
Cd  Cd3  1  0.75618775  0.13083272  0.68438938  1  1.255213  0  0.77356  0.872059  0  2.208501  0
H  H4  1  0.41601797  0.44415016  0.31216255  1  0.465839  0  0.323777  0.326949  0  0.911238  0
H  H5  1  0.41601682  0.55584930  0.18783927  1  0.465854  0  0.32376  0.326931  0  0.911238  0
H  H6  1  0.58398098  0.55585071  0.68783802  1  0.465843  0  0.323743  0.326919  0  0.911248  0
H  H7  1  0.58398012  0.44414995  0.81216310  1  0.465819  0  0.323772  0.326946  0  0.911257  0
H  H8  1  0.40581024  0.32569207  0.23483014  1  0.531507  0  0.304909  0.334089  0  0.964472  0
H  H9  1  0.40580918  0.67430497  0.26517338  1  0.53151  0  0.30492  0.334134  0  0.964423  0
H  H10  1  0.59419071  0.67430638  0.76517082  1  0.531523  0  0.304904  0.334087  0  0.964477  0
H  H11  1  0.59418876  0.32569265  0.73483079  1  0.53149  0  0.304888  0.334089  0  0.964479  0
H  H12  1  0.51882672  0.28121871  0.94993232  1  0.044241  0  0.095025  0.108989  0  0.999163  0
H  H13  1  0.51882521  0.71878034  0.55006790  1  0.044226  0  0.095009  0.108961  0  0.999177  0
H  H14  1  0.48117725  0.71878540  0.05006662  1  0.044247  0  0.095015  0.108959  0  0.999204  0
H  H15  1  0.48117474  0.28121972  0.44993257  1  0.044237  0  0.095024  0.108977  0  0.999179  0
H  H16  1  0.38094162  0.20720791  0.89812060  1  0.051284  0  0.095849  0.110609  0  0.993187  0
H  H17  1  0.38093415  0.79279201  0.60187431  1  0.051273  0  0.095878  0.110604  0  0.993221  0
H  H18  1  0.61906637  0.79279379  0.10187608  1  0.051255  0  0.095858  0.110552  0  0.993209  0
H  H19  1  0.61905877  0.20720565  0.39812060  1  0.051283  0  0.095856  0.110624  0  0.993176  0
H  H20  1  0.85454652  0.39770133  0.32675120  1  0.118619  0  0.108049  0.127057  0  1.037618  0
H  H21  1  0.85454230  0.60229562  0.17325202  1  0.118572  0  0.108058  0.127095  0  1.037517  0
H  H22  1  0.14545443  0.60229550  0.67324825  1  0.118615  0  0.108038  0.127057  0  1.037566  0
H  H23  1  0.14545062  0.39770604  0.82675459  1  0.118681  0  0.108011  0.127042  0  1.037554  0
H  H24  1  0.74697609  0.27223054  0.26240617  1  0.099544  0  0.116243  0.127628  0  0.985137  0
H  H25  1  0.74697193  0.72776804  0.23759780  1  0.099555  0  0.116225  0.127626  0  0.985155  0
H  H26  1  0.25302989  0.72776789  0.73759809  1  0.099489  0  0.116233  0.127632  0  0.985187  0
H  H27  1  0.25302802  0.27223200  0.76240797  1  0.099437  0  0.1163  0.127666  0  0.985084  0
H  H28  1  0.62426690  0.11749721  0.18288604  1  0.14617  0  0.111464  0.12105  0  1.009191  0
H  H29  1  0.62426783  0.88250382  0.31712009  1  0.146109  0  0.1115  0.121127  0  1.009091  0
H  H30  1  0.37573306  0.88250445  0.81711924  1  0.146103  0  0.111487  0.12108  0  1.009144  0
H  H31  1  0.37573513  0.11749785  0.68288453  1  0.146148  0  0.111483  0.121092  0  1.009103  0
H  H32  1  0.75748478  0.96493820  0.09326674  1  0.149489  0  0.106643  0.117839  0  1.042306  0
H  H33  1  0.75748733  0.03506201  0.40673544  1  0.149489  0  0.106632  0.11782  0  1.042319  0
H  H34  1  0.24251216  0.03506348  0.90673590  1  0.149485  0  0.106622  0.11782  0  1.042279  0
H  H35  1  0.24251664  0.96493886  0.59326644  1  0.149477  0  0.106629  0.117809  0  1.042273  0
H  H36  1  0.00923116  0.97308117  0.10413799  1  0.08326  0  0.119588  0.093678  0  0.993877  0
H  H37  1  0.00923370  0.02691756  0.39586341  1  0.083221  0  0.119579  0.093649  0  0.993868  0
H  H38  1  0.99076578  0.02691321  0.89586714  1  0.083251  0  0.119585  0.093669  0  0.993821  0
H  H39  1  0.99076827  0.97308493  0.60413602  1  0.083243  0  0.119587  0.093682  0  0.993836  0
H  H40  1  0.18261350  0.64034403  0.44609084  1  0.126326  0  0.107415  0.118263  0  1.021571  0
H  H41  1  0.18261019  0.35965790  0.05391238  1  0.126355  0  0.107427  0.118265  0  1.021556  0
H  H42  1  0.81738846  0.35965683  0.55391171  1  0.12634  0  0.10743  0.118272  0  1.021543  0
H  H43  1  0.81738474  0.64034702  0.94608930  1  0.126289  0  0.107413  0.118257  0  1.021619  0
H  H44  1  0.08062914  0.80595011  0.53299755  1  0.084253  0  0.102117  0.09972  0  1.014852  0
H  H45  1  0.08063474  0.19404659  0.96700470  1  0.084225  0  0.1021  0.0997  0  1.0148  0
H  H46  1  0.91936579  0.19404590  0.46700247  1  0.084209  0  0.102091  0.099679  0  1.014794  0
H  H47  1  0.91936019  0.80595670  0.03299945  1  0.084088  0  0.102055  0.099675  0  1.01482  0
H  H48  1  0.82805908  0.81934697  0.54294517  1  0.110747  0  0.099279  0.111349  0  1.050106  0
H  H49  1  0.82806065  0.18065041  0.95705314  1  0.110964  0  0.099308  0.111405  0  1.050113  0
H  H50  1  0.17193886  0.18065149  0.45705181  1  0.110724  0  0.09931  0.111398  0  1.050097  0
H  H51  1  0.17193428  0.81935287  0.04295366  1  0.110681  0  0.099304  0.111379  0  1.050015  0
H  H52  1  0.69071138  0.66879252  0.46005425  1  0.078395  0  0.108047  0.07814  0  1.007897  0
H  H53  1  0.69071106  0.33120773  0.03994060  1  0.078391  0  0.108025  0.078059  0  1.007905  0
H  H54  1  0.30928757  0.33120919  0.53993913  1  0.078394  0  0.108076  0.078144  0  1.007895  0
H  H55  1  0.30928186  0.66879718  0.96006306  1  0.078468  0  0.108038  0.078073  0  1.007912  0
H  H56  1  0.61739793  0.09992326  0.98439048  1  0.04601  0  0.098059  0.111613  0  0.998278  0
H  H57  1  0.61739426  0.90007578  0.51560718  1  0.046036  0  0.098061  0.111586  0  0.998321  0
H  H58  1  0.38261408  0.90008490  0.01560892  1  0.046089  0  0.098037  0.111466  0  0.998464  0
H  H59  1  0.38260168  0.09992671  0.48439291  1  0.046109  0  0.098045  0.111635  0  0.998236  0
H  H60  1  0.48262173  0.03367732  0.92516572  1  0.063854  0  0.104899  0.119684  0  0.992523  0
H  H61  1  0.48261713  0.96632095  0.57482909  1  0.063719  0  0.104893  0.119696  0  0.992595  0
H  H62  1  0.51739128  0.96632760  0.07483397  1  0.063657  0  0.104848  0.119551  0  0.992686  0
H  H63  1  0.51737378  0.03367832  0.42516799  1  0.063919  0  0.10488  0.119656  0  0.992602  0
C  C64  1  0.45826270  0.20781437  0.95003519  1  -0.017167  0  -0.16637  -0.268901  0  3.924924  0
C  C65  1  0.45826116  0.79218308  0.54996281  1  -0.017507  0  -0.166403  -0.268888  0  3.924974  0
C  C66  1  0.54174328  0.79218733  0.04996083  1  -0.01711  0  -0.166351  -0.268747  0  3.925025  0
C  C67  1  0.54173679  0.20781456  0.45003606  1  -0.017154  0  -0.166385  -0.268934  0  3.924991  0
C  C68  1  0.39313838  0.20610867  0.04076146  1  1.531343  0  0.192486  0.617193  0  4.183508  0
C  C69  1  0.39314667  0.79388032  0.45922923  1  1.531694  0  0.192524  0.617328  0  4.183505  0
C  C70  1  0.60686459  0.79389060  0.95923363  1  1.531431  0  0.192455  0.617079  0  4.183798  0
C  C71  1  0.60686132  0.20610845  0.54076203  1  1.531349  0  0.192521  0.61726  0  4.183501  0
C  C72  1  0.23163783  0.37887297  0.29889384  1  1.594423  0  0.346868  0.583729  0  4.104946  0
C  C73  1  0.23163566  0.62112654  0.20110650  1  1.594426  0  0.346812  0.58364  0  4.104866  0
C  C74  1  0.76836313  0.62112792  0.70110342  1  1.594641  0  0.34693  0.583708  0  4.104869  0
C  C75  1  0.76836027  0.37887514  0.79889614  1  1.594399  0  0.346857  0.583738  0  4.10509  0
C  C76  1  0.04684486  0.47124517  0.35833115  1  0.521685  0  0.139444  0.245484  0  4.003358  0
C  C77  1  0.04684163  0.52875195  0.14166811  1  0.521421  0  0.139441  0.24544  0  4.003533  0
C  C78  1  0.95315509  0.52875248  0.64166574  1  0.521366  0  0.13944  0.245547  0  4.003342  0
C  C79  1  0.95315230  0.47124972  0.85833586  1  0.521621  0  0.139481  0.245591  0  4.003297  0
C  C80  1  0.96226157  0.38851631  0.31813657  1  0.012487  0  -0.096465  -0.279784  0  3.93666  0
C  C81  1  0.96225937  0.61148061  0.18186475  1  0.01271  0  -0.09652  -0.279824  0  3.936578  0
C  C82  1  0.03773738  0.61148051  0.68186421  1  0.012763  0  -0.096469  -0.279796  0  3.936506  0
C  C83  1  0.03773255  0.38852025  0.81813780  1  0.01252  0  -0.09646  -0.279816  0  3.936599  0
C  C84  1  0.02320001  0.29901742  0.26978589  1  0.474361  0  0.127772  0.221335  0  4.025431  0
C  C85  1  0.02319585  0.70097970  0.23021467  1  0.474125  0  0.127692  0.221106  0  4.02552  0
C  C86  1  0.97680195  0.70098102  0.73021440  1  0.474061  0  0.127742  0.221233  0  4.025541  0
C  C87  1  0.97679908  0.29901793  0.76978685  1  0.474352  0  0.127776  0.221235  0  4.025517  0
C  C88  1  0.94353371  0.20582199  0.22574187  1  0.533946  0  0.124656  0.166421  0  3.966909  0
C  C89  1  0.94353059  0.79417817  0.27426046  1  0.533962  0  0.124691  0.166498  0  3.967018  0
C  C90  1  0.05646925  0.79417726  0.77426050  1  0.533958  0  0.124662  0.166407  0  3.967095  0
C  C91  1  0.05647036  0.20582108  0.72574058  1  0.533983  0  0.12467  0.166483  0  3.967029  0
C  C92  1  0.80285916  0.20477481  0.22708200  1  -0.065374  0  -0.070294  -0.14191  0  3.916429  0
C  C93  1  0.80285704  0.79522376  0.27292201  1  -0.065626  0  -0.070273  -0.141855  0  3.916509  0
C  C94  1  0.19714380  0.79522443  0.77292036  1  -0.065574  0  -0.070286  -0.141857  0  3.91659  0
C  C95  1  0.19714391  0.20477467  0.72708225  1  -0.065015  0  -0.070366  -0.142007  0  3.916552  0
C  C96  1  0.73374082  0.11754225  0.18100330  1  -0.023891  0  -0.059614  -0.020683  0  3.934859  0
C  C97  1  0.73373874  0.88245633  0.31900132  1  -0.023359  0  -0.059633  -0.020799  0  3.934869  0
C  C98  1  0.26626114  0.88245618  0.81899964  1  -0.023382  0  -0.059652  -0.020805  0  3.934961  0
C  C99  1  0.26626121  0.11754292  0.68100171  1  -0.023942  0  -0.059605  -0.020694  0  3.934916  0
C  C100  1  0.80637485  0.03279247  0.13382019  1  -0.018683  0  -0.079267  -0.124889  0  3.951262  0
C  C101  1  0.80637282  0.96720610  0.36618251  1  -0.018763  0  -0.079313  -0.124869  0  3.951292  0
C  C102  1  0.19362811  0.96720679  0.86617954  1  -0.018965  0  -0.07927  -0.124832  0  3.951177  0
C  C103  1  0.19362813  0.03279477  0.63381871  1  -0.018772  0  -0.079342  -0.124939  0  3.951292  0
C  C104  1  0.94607806  0.03770418  0.13755935  1  0.467505  0  0.051181  0.097966  0  3.94542  0
C  C105  1  0.94607804  0.96229276  0.36244130  1  0.4678  0  0.05118  0.097969  0  3.945335  0
C  C106  1  0.05392189  0.96229184  0.86244199  1  0.467628  0  0.051201  0.097986  0  3.945257  0
C  C107  1  0.05392392  0.03770812  0.63755795  1  0.467848  0  0.051239  0.098052  0  3.945379  0
C  C108  1  0.98952964  0.56950089  0.41082680  1  0.519805  0  0.111617  0.154777  0  3.997973  0
C  C109  1  0.98952635  0.43049845  0.08917548  1  0.519745  0  0.111653  0.154765  0  3.99819  0
C  C110  1  0.01047132  0.43049837  0.58917226  1  0.519718  0  0.111644  0.154781  0  3.998061  0
C  C111  1  0.01046757  0.56950564  0.91082876  1  0.519769  0  0.11156  0.154782  0  3.997994  0
C  C112  1  0.07432288  0.65044012  0.45262322  1  -0.0283  0  -0.081025  -0.141197  0  3.91913  0
C  C113  1  0.07431955  0.34956022  0.04737907  1  -0.028243  0  -0.081015  -0.141165  0  3.919042  0
C  C114  1  0.92567808  0.34955995  0.54737725  1  -0.028297  0  -0.081056  -0.141232  0  3.919148  0
C  C115  1  0.92567437  0.65044468  0.95262460  1  -0.028149  0  -0.080972  -0.141159  0  3.919158  0
C  C116  1  0.01629521  0.74163727  0.50074021  1  -0.043884  0  -0.07906  -0.040131  0  3.988936  0
C  C117  1  0.01629481  0.25836107  0.99926216  1  -0.043693  0  -0.079007  -0.040026  0  3.988711  0
C  C118  1  0.98370474  0.25836280  0.49925894  1  -0.043845  0  -0.078988  -0.040035  0  3.988785  0
C  C119  1  0.98369811  0.74164140  0.00074322  1  -0.043818  0  -0.07899  -0.040054  0  3.98882  0
C  C120  1  0.87669171  0.74940045  0.50519846  1  -0.041701  0  -0.092235  -0.131465  0  3.950278  0
C  C121  1  0.87669030  0.25059610  0.99480245  1  -0.041975  0  -0.092282  -0.131635  0  3.950201  0
C  C122  1  0.12330925  0.25059962  0.49479871  1  -0.041729  0  -0.092299  -0.131584  0  3.950278  0
C  C123  1  0.12330564  0.74940556  0.00520416  1  -0.041844  0  -0.092338  -0.131648  0  3.950168  0
C  C124  1  0.80041432  0.66489014  0.46018347  1  0.480539  0  0.038981  0.095208  0  3.991453  0
C  C125  1  0.80041501  0.33511006  0.03981742  1  0.480481  0  0.039035  0.095383  0  3.99145  0
C  C126  1  0.19958663  0.33510832  0.53981285  1  0.480497  0  0.038929  0.095224  0  3.991499  0
C  C127  1  0.19957992  0.66489403  0.96018748  1  0.480605  0  0.039016  0.095324  0  3.991621  0
C  C128  1  0.62419220  0.10177489  0.84366584  1  1.556558  0  0.197383  0.622179  0  4.13772  0
C  C129  1  0.62418478  0.89822578  0.65633002  1  1.556745  0  0.1974  0.622371  0  4.137719  0
C  C130  1  0.37581880  0.89822923  0.15633244  1  1.556849  0  0.19748  0.622487  0  4.137875  0
C  C131  1  0.37580713  0.10177430  0.34366781  1  1.555899  0  0.197353  0.622073  0  4.137945  0
C  C132  1  0.54612893  0.10646668  0.92990281  1  -0.034119  0  -0.161531  -0.26917  0  3.912833  0
C  C133  1  0.54612235  0.89353157  0.57009337  1  -0.034045  0  -0.161464  -0.269155  0  3.91312  0
C  C134  1  0.45388207  0.89353825  0.07009490  1  -0.034072  0  -0.161428  -0.268939  0  3.913049  0
C  C135  1  0.45386856  0.10646850  0.42990446  1  -0.033885  0  -0.161516  -0.269168  0  3.912951  0
N  N136  1  0.15796611  0.29385678  0.26011714  1  -1.226369  0  -0.338942  -0.426513  0  3.379233  0
N  N137  1  0.15796197  0.70614274  0.23988248  1  -1.226331  0  -0.338804  -0.426265  0  3.379088  0
N  N138  1  0.84203585  0.70614410  0.73988012  1  -1.226504  0  -0.338937  -0.426479  0  3.379258  0
N  N139  1  0.84203296  0.29385813  0.76011941  1  -1.226243  0  -0.338984  -0.426511  0  3.379356  0
N  N140  1  0.36595994  0.37614536  0.28724195  1  -1.31051  0  -0.56602  -0.646497  0  3.291011  0
N  N141  1  0.36595981  0.62385493  0.21275859  1  -1.310762  0  -0.56604  -0.646569  0  3.290914  0
N  N142  1  0.63403901  0.62385552  0.71275729  1  -1.310488  0  -0.566012  -0.646481  0  3.29097  0
N  N143  1  0.63403713  0.37614594  0.78724264  1  -1.310792  0  -0.565925  -0.646452  0  3.291076  0
N  N144  1  0.18018760  0.46636758  0.34988363  1  -1.166892  0  -0.319837  -0.424886  0  3.224726  0
N  N145  1  0.18018438  0.53363194  0.15011469  1  -1.166558  0  -0.319844  -0.424859  0  3.22474  0
N  N146  1  0.81981336  0.53363250  0.65011288  1  -1.166564  0  -0.319863  -0.42488  0  3.224745  0
N  N147  1  0.81980955  0.46636974  0.84988596  1  -1.166964  0  -0.319898  -0.424975  0  3.224761  0
N  N148  1  0.01217061  0.12141997  0.18234188  1  -1.261252  0  -0.325948  -0.26694  0  3.514924  0
N  N149  1  0.01217155  0.87857715  0.31765736  1  -1.261053  0  -0.325935  -0.266974  0  3.514967  0
N  N150  1  0.98782934  0.87857604  0.81765815  1  -1.261036  0  -0.325959  -0.266962  0  3.515026  0
N  N151  1  0.98783142  0.12142130  0.68234227  1  -1.261081  0  -0.325926  -0.266943  0  3.515026  0
N  N152  1  0.85442301  0.57642285  0.41402401  1  -1.208383  0  -0.320121  -0.302242  0  3.308525  0
N  N153  1  0.85442072  0.42357330  0.08597449  1  -1.208516  0  -0.320177  -0.302271  0  3.308754  0
N  N154  1  0.14557695  0.42357400  0.58597147  1  -1.208325  0  -0.320093  -0.302211  0  3.308566  0
N  N155  1  0.14557320  0.57643079  0.91402975  1  -1.208332  0  -0.320049  -0.302164  0  3.308679  0
O  O156  1  0.29828792  0.13523572  0.04208736  1  -1.14776  0  -0.345744  -0.575918  0  2.241647  0
O  O157  1  0.29828713  0.86474603  0.45789715  1  -1.147443  0  -0.345795  -0.575996  0  2.241596  0
O  O158  1  0.70171806  0.86475871  0.95790521  1  -1.147756  0  -0.345699  -0.57586  0  2.241674  0
O  O159  1  0.70170981  0.13523466  0.54208924  1  -1.147786  0  -0.345764  -0.575953  0  2.241633  0
O  O160  1  0.43559142  0.26611353  0.10842061  1  -1.195664  0  -0.337869  -0.582611  0  2.112173  0
O  O161  1  0.43561668  0.73387462  0.39157598  1  -1.196058  0  -0.337867  -0.582724  0  2.112217  0
O  O162  1  0.56440853  0.73388331  0.89157620  1  -1.195821  0  -0.337907  -0.58264  0  2.112286  0
O  O163  1  0.56440838  0.26611332  0.60842115  1  -1.195683  0  -0.337868  -0.582628  0  2.112154  0
O  O164  1  0.56903026  0.13511955  0.77653964  1  -1.16481  0  -0.321423  -0.537869  0  2.219081  0
O  O165  1  0.56902600  0.86488031  0.72345873  1  -1.164537  0  -0.321426  -0.537936  0  2.218873  0
O  O166  1  0.43098074  0.86488618  0.22346081  1  -1.164613  0  -0.321483  -0.538053  0  2.218974  0
O  O167  1  0.43096692  0.13511814  0.27654024  1  -1.16456  0  -0.32143  -0.537798  0  2.21898  0
O  O168  1  0.74488433  0.06502759  0.84133064  1  -1.193261  0  -0.34355  -0.601376  0  2.268249  0
O  O169  1  0.74487690  0.93497466  0.65866682  1  -1.192855  0  -0.34362  -0.601509  0  2.268337  0
O  O170  1  0.25512566  0.93497410  0.15866736  1  -1.193086  0  -0.343631  -0.601546  0  2.268559  0
O  O171  1  0.25511401  0.06502540  0.34133300  1  -1.193076  0  -0.343484  -0.601298  0  2.268394  0
