# generated using pymatgen
data_Cd3H30C36(N6O7)2
_symmetry_space_group_name_H-M   'P 1'
_cell_length_a   8.88956177
_cell_length_b   9.98526768
_cell_length_c   13.07516762
_cell_angle_alpha   67.59157306
_cell_angle_beta   74.84355098
_cell_angle_gamma   89.02358414
_symmetry_Int_Tables_number   1
_chemical_formula_structural   Cd3H30C36(N6O7)2
_chemical_formula_sum   'Cd3 H30 C36 N12 O14'
_cell_volume   1031.20240028
_cell_formula_units_Z   1
loop_
 _symmetry_equiv_pos_site_id
 _symmetry_equiv_pos_as_xyz
  1  'x, y, z'
loop_
 _atom_site_type_symbol
 _atom_site_label
 _atom_site_symmetry_multiplicity
 _atom_site_fract_x
 _atom_site_fract_y
 _atom_site_fract_z
 _atom_site_occupancy
 _atom_site_hle17_bader_spin_density
 _atom_site_hle17_ddec_charge
 _atom_site_hle17_ddec_spin_density
 _atom_site_hle17_ddec_sum_bond_order
 _atom_site_hle17_magmom
 _atom_site_hse06_10hf_bader_spin_density
 _atom_site_hse06_10hf_ddec_charge
 _atom_site_hse06_10hf_ddec_spin_density
 _atom_site_hse06_10hf_ddec_sum_bond_order
 _atom_site_hse06_10hf_magmom
 _atom_site_hse06_bader_spin_density
 _atom_site_hse06_ddec_charge
 _atom_site_hse06_ddec_spin_density
 _atom_site_hse06_ddec_sum_bond_order
 _atom_site_hse06_magmom
 _atom_site_pbe_bader_spin_density
 _atom_site_pbe_cm5_charge
 _atom_site_pbe_ddec_charge
 _atom_site_pbe_ddec_spin_density
 _atom_site_pbe_ddec_sum_bond_order
 _atom_site_pbe_magmom
Cd  Cd0  1  0.50000041  0.99999950  0.49999991  1  0  1.303968  0  1.566911  0  0  1.133217  0  2.012168  0  0  1.190586  0  1.950974  0  0  0.789485  1.091866  0  2.054314  0
Cd  Cd1  1  0.63907244  0.65934047  0.62576577  1  0  1.194739  0  1.64295  0  0  1.007349  0  2.088668  0  0  1.066828  0  2.030089  0  0  0.771297  0.962397  0  2.131078  0
Cd  Cd2  1  0.36092792  0.34065891  0.37423414  1  0  1.194737  0  1.642945  0  0  1.007342  0  2.088662  0  0  1.066822  0  2.030084  0  0  0.771292  0.962391  0  2.131075  0
H  H3  1  0.61901664  0.11070438  0.65921569  1  0  0.095945  0  0.969253  0  0  0.104385  0  1.036452  0  0  0.108352  0  1.032584  0  0  0.104925  0.101617  0  1.039273  0
H  H4  1  0.38098479  0.88929390  0.34078510  1  0  0.09596  0  0.969252  0  0  0.104396  0  1.036458  0  0  0.108363  0  1.03259  0  0  0.104925  0.101629  0  1.039278  0
H  H5  1  0.29287990  0.80793576  0.96095968  1  0  0.093266  0  0.976957  0  0  0.099981  0  1.048352  0  0  0.103585  0  1.045157  0  0  0.104597  0.097363  0  1.050655  0
H  H6  1  0.70711941  0.19206471  0.03904087  1  0  0.093258  0  0.976948  0  0  0.099986  0  1.04833  0  0  0.103594  0  1.045134  0  0  0.104593  0.097369  0  1.050632  0
H  H7  1  0.32697074  0.26333162  0.90200084  1  0  0.105648  0  0.958566  0  0  0.113285  0  1.024469  0  0  0.117301  0  1.020956  0  0  0.105376  0.110344  0  1.026958  0
H  H8  1  0.67302973  0.73666885  0.09799874  1  0  0.105631  0  0.95858  0  0  0.113271  0  1.024484  0  0  0.117288  0  1.02097  0  0  0.105377  0.110328  0  1.026973  0
H  H9  1  0.10436217  0.21707089  0.01641990  1  0  0.09646  0  0.960591  0  0  0.106559  0  1.02291  0  0  0.109472  0  1.021966  0  0  0.100644  0.104617  0  1.023522  0
H  H10  1  0.89563819  0.78292850  0.98358000  1  0  0.09647  0  0.960566  0  0  0.106565  0  1.022895  0  0  0.109478  0  1.021952  0  0  0.100641  0.104625  0  1.023498  0
H  H11  1  0.21650573  0.77036725  0.12991054  1  0  0.086767  0  0.98889  0  0  0.09475  0  1.057181  0  0  0.096962  0  1.057333  0  0  0.096083  0.093438  0  1.056644  0
H  H12  1  0.78349464  0.22963212  0.87009013  1  0  0.086737  0  0.988834  0  0  0.094718  0  1.057137  0  0  0.096927  0  1.057291  0  0  0.096073  0.09339  0  1.056616  0
H  H13  1  0.00058044  0.70862229  0.30735448  1  0  0.096806  0  0.955025  0  0  0.108681  0  1.013427  0  0  0.111473  0  1.011842  0  0  0.102217  0.106673  0  1.014657  0
H  H14  1  0.99942003  0.29137818  0.69264509  1  0  0.096824  0  0.955009  0  0  0.108668  0  1.01344  0  0  0.111495  0  1.011813  0  0  0.102221  0.106663  0  1.014677  0
H  H15  1  0.89811640  0.15572860  0.20004522  1  0  0.100632  0  0.954588  0  0  0.108462  0  1.019363  0  0  0.111429  0  1.017674  0  0  0.101897  0.106532  0  1.020255  0
H  H16  1  0.10188396  0.84427077  0.79995545  1  0  0.10063  0  0.954565  0  0  0.108455  0  1.019347  0  0  0.111421  0  1.017657  0  0  0.1019  0.106524  0  1.020239  0
H  H17  1  0.30459401  0.68898219  0.61205751  1  0  0.409511  0  0.886105  0  0  0.368044  0  0.974906  0  0  0.380566  0  0.957256  0  0  0.280309  0.35916  0  0.987419  0
H  H18  1  0.69540531  0.31101827  0.38794304  1  0  0.409493  0  0.886134  0  0  0.368033  0  0.974925  0  0  0.380555  0  0.957276  0  0  0.280296  0.359149  0  0.987438  0
H  H19  1  0.40921272  0.69778128  0.49108312  1  0  0.421569  0  0.881617  0  0  0.390173  0  0.946778  0  0  0.40145  0  0.930479  0  0  0.286613  0.382148  0  0.958324  0
H  H20  1  0.59078775  0.30221919  0.50891646  1  0  0.421575  0  0.881606  0  0  0.390179  0  0.946769  0  0  0.401456  0  0.93047  0  0  0.286623  0.382153  0  0.958315  0
H  H21  1  0.64130832  0.41906163  0.98021428  1  0  0.349256  0  0.880607  0  0  0.333192  0  0.93838  0  0  0.341057  0  0.931484  0  0  0.312011  0.327534  0  0.943392  0
H  H22  1  0.35869227  0.58093993  0.01978573  1  0  0.349274  0  0.880575  0  0  0.333211  0  0.938346  0  0  0.341075  0  0.931451  0  0  0.312016  0.327553  0  0.943357  0
H  H23  1  0.58207990  0.46519643  0.85407498  1  0  0.347555  0  0.917084  0  0  0.327481  0  0.981465  0  0  0.33572  0  0.974186  0  0  0.305458  0.321665  0  0.986706  0
H  H24  1  0.41792175  0.53480403  0.14592515  1  0  0.347481  0  0.917193  0  0  0.327433  0  0.981535  0  0  0.335673  0  0.974255  0  0  0.305438  0.321629  0  0.986754  0
H  H25  1  0.14439673  0.52100984  0.96042335  1  0  0.320196  0  0.949967  0  0  0.293265  0  1.029477  0  0  0.302513  0  1.021462  0  0  0.289494  0.2866  0  1.035438  0
H  H26  1  0.85560502  0.47899171  0.03957568  1  0  0.320283  0  0.94993  0  0  0.293334  0  1.02946  0  0  0.302582  0  1.021444  0  0  0.289516  0.28667  0  1.035422  0
H  H27  1  0.29510733  0.57825268  0.82963969  1  0  0.345083  0  0.904484  0  0  0.326016  0  0.968111  0  0  0.333844  0  0.96144  0  0  0.304391  0.320206  0  0.97343  0
H  H28  1  0.70489081  0.42174780  0.17036031  1  0  0.345056  0  0.904553  0  0  0.326003  0  0.968158  0  0  0.33383  0  0.961487  0  0  0.304383  0.320192  0  0.973476  0
H  H29  1  0.15334507  0.65880361  0.49234022  1  0  0.349095  0  0.891318  0  0  0.332179  0  0.952236  0  0  0.339679  0  0.945969  0  0  0.310188  0.326811  0  0.956812  0
H  H30  1  0.84665542  0.34119685  0.50766012  1  0  0.349094  0  0.891223  0  0  0.332174  0  0.952162  0  0  0.339674  0  0.945893  0  0  0.310171  0.326806  0  0.956738  0
H  H31  1  0.95498310  0.67188871  0.49489973  1  0  0.336717  0  0.932777  0  0  0.314839  0  1.003121  0  0  0.322922  0  0.99622  0  0  0.298246  0.309122  0  1.008002  0
H  H32  1  0.04501737  0.32811176  0.50509984  1  0  0.33672  0  0.932769  0  0  0.314847  0  1.003103  0  0  0.322929  0  0.996205  0  0  0.298255  0.309131  0  1.007985  0
C  C33  1  0.81541223  0.51591334  0.82859554  1  0  0.694444  0  3.8737  0  0  0.639968  0  4.158773  0  0  0.670733  0  4.162226  0  0  0.344825  0.619465  0  4.155522  0
C  C34  1  0.18458719  0.48408822  0.17140392  1  0  0.694473  0  3.873675  0  0  0.640012  0  4.158747  0  0  0.67077  0  4.162208  0  0  0.344815  0.619504  0  4.155507  0
C  C35  1  0.07384727  0.54669678  0.81858142  1  0  0.692251  0  3.873821  0  0  0.638196  0  4.160598  0  0  0.668199  0  4.163833  0  0  0.347319  0.618297  0  4.157231  0
C  C36  1  0.92615124  0.45330695  0.18141912  1  0  0.692157  0  3.873902  0  0  0.638219  0  4.160547  0  0  0.668221  0  4.163783  0  0  0.347329  0.618319  0  4.15718  0
C  C37  1  0.00078907  0.60761877  0.65243788  1  0  0.704826  0  3.851212  0  0  0.6507  0  4.133599  0  0  0.681737  0  4.136747  0  0  0.349593  0.629725  0  4.131097  0
C  C38  1  0.99921151  0.39238278  0.34756137  1  0  0.704715  0  3.851185  0  0  0.650684  0  4.133457  0  0  0.681706  0  4.136625  0  0  0.349629  0.62971  0  4.130953  0
C  C39  1  0.47552193  0.20207236  0.77256311  1  0  -0.071475  0  3.782318  0  0  -0.045911  0  4.019974  0  0  -0.056044  0  4.044037  0  0  -0.020813  -0.039597  0  4.004198  0
C  C40  1  0.52447950  0.79792592  0.22743844  1  0  -0.071506  0  3.782285  0  0  -0.045945  0  4.019933  0  0  -0.056076  0  4.043994  0  0  -0.020814  -0.039632  0  4.004154  0
C  C41  1  0.52777485  0.08887650  0.73892189  1  0  -0.063331  0  3.716893  0  0  -0.101949  0  3.96559  0  0  -0.099172  0  3.985282  0  0  -0.078781  -0.103864  0  3.953205  0
C  C42  1  0.47222434  0.91112288  0.26107823  1  0  -0.063388  0  3.716905  0  0  -0.102033  0  3.965571  0  0  -0.099257  0  3.985261  0  0  -0.078801  -0.10395  0  3.953189  0
C  C43  1  0.46209733  0.94678406  0.80795599  1  0  -0.070491  0  3.78831  0  0  -0.045452  0  4.025546  0  0  -0.055387  0  4.049005  0  0  -0.019988  -0.038951  0  4.009697  0
C  C44  1  0.53790291  0.05321424  0.19204425  1  0  -0.070516  0  3.788383  0  0  -0.045381  0  4.025464  0  0  -0.055314  0  4.048924  0  0  -0.019977  -0.038881  0  4.009616  0
C  C45  1  0.34713262  0.91852937  0.91133066  1  0  -0.076473  0  3.671364  0  0  -0.112105  0  3.920478  0  0  -0.10973  0  3.938466  0  0  -0.069587  -0.112935  0  3.907849  0
C  C46  1  0.65286668  0.08147111  0.08866913  1  0  -0.076438  0  3.671336  0  0  -0.112101  0  3.92039  0  0  -0.109732  0  3.938381  0  0  -0.069573  -0.112931  0  3.907761  0
C  C47  1  0.29733099  0.03017100  0.94903060  1  0  0.045568  0  3.777513  0  0  0.064443  0  4.011149  0  0  0.061445  0  4.035174  0  0  -0.003089  0.065949  0  3.994868  0
C  C48  1  0.70266598  0.96982949  0.05096885  1  0  0.045568  0  3.777495  0  0  0.064455  0  4.011113  0  0  0.061457  0  4.035138  0  0  -0.003121  0.065961  0  3.994831  0
C  C49  1  0.36289106  0.17244699  0.87762424  1  0  -0.072859  0  3.647692  0  0  -0.108511  0  3.894017  0  0  -0.105881  0  3.911102  0  0  -0.069516  -0.109184  0  3.88176  0
C  C50  1  0.63710813  0.82755240  0.12237588  1  0  -0.072787  0  3.647714  0  0  -0.108451  0  3.894038  0  0  -0.10582  0  3.91112  0  0  -0.069488  -0.109123  0  3.881779  0
C  C51  1  0.08582396  0.10601878  0.08089410  1  0  -0.112178  0  3.717037  0  0  -0.129254  0  3.96341  0  0  -0.134237  0  3.984909  0  0  -0.087188  -0.126114  0  3.948569  0
C  C52  1  0.91417769  0.89398168  0.91910602  1  0  -0.112208  0  3.717063  0  0  -0.12929  0  3.963434  0  0  -0.134273  0  3.984933  0  0  -0.087212  -0.126148  0  3.948594  0
C  C53  1  0.17593087  0.99774394  0.05879724  1  0  0.067515  0  3.768087  0  0  0.079899  0  3.996787  0  0  0.081852  0  4.021387  0  0  0.001068  0.078811  0  3.980374  0
C  C54  1  0.82406960  0.00225653  0.94120233  1  0  0.06745  0  3.7681  0  0  0.079828  0  3.9968  0  0  0.081782  0  4.021397  0  0  0.001061  0.078742  0  3.980383  0
C  C55  1  0.14551345  0.85520226  0.14338205  1  0  -0.11232  0  3.734445  0  0  -0.13036  0  3.984928  0  0  -0.135823  0  4.008056  0  0  -0.092365  -0.126845  0  3.968821  0
C  C56  1  0.85448807  0.14479712  0.85661764  1  0  -0.11227  0  3.734404  0  0  -0.130307  0  3.984881  0  0  -0.135771  0  4.008021  0  0  -0.092352  -0.12678  0  3.968784  0
C  C57  1  0.02620191  0.82052408  0.24449557  1  0  -0.056519  0  3.73747  0  0  -0.080896  0  3.98286  0  0  -0.079464  0  4.003656  0  0  -0.0861  -0.081679  0  3.96854  0
C  C58  1  0.97379703  0.17947315  0.75550369  1  0  -0.056585  0  3.737479  0  0  -0.080948  0  3.982871  0  0  -0.079545  0  4.003656  0  0  -0.086098  -0.081734  0  3.968549  0
C  C59  1  0.93640687  0.92877824  0.26551906  1  0  -0.082762  0  3.76957  0  0  -0.057718  0  4.000403  0  0  -0.068287  0  4.024874  0  0  -0.022935  -0.050697  0  3.98401  0
C  C60  1  0.06359317  0.07121787  0.73448337  1  0  -0.082743  0  3.769651  0  0  -0.057677  0  4.000433  0  0  -0.068244  0  4.024911  0  0  -0.022995  -0.050658  0  3.984045  0
C  C61  1  0.96856670  0.07218486  0.18326038  1  0  -0.050392  0  3.731854  0  0  -0.074468  0  3.979455  0  0  -0.072908  0  3.999901  0  0  -0.083117  -0.075251  0  3.964943  0
C  C62  1  0.03143389  0.92781669  0.81673963  1  0  -0.050302  0  3.731964  0  0  -0.07437  0  3.979534  0  0  -0.07281  0  3.999978  0  0  -0.083039  -0.075152  0  3.965021  0
C  C63  1  0.53880168  0.35502836  0.69626009  1  0  0.658575  0  3.896354  0  0  0.606172  0  4.185051  0  0  0.64095  0  4.178641  0  0  0.209837  0.582659  0  4.188308  0
C  C64  1  0.46119972  0.64496993  0.30373993  1  0  0.658663  0  3.896253  0  0  0.606281  0  4.184919  0  0  0.641054  0  4.178514  0  0  0.2099  0.582771  0  4.18817  0
C  C65  1  0.50758232  0.82671311  0.76845261  1  0  0.669867  0  3.874646  0  0  0.617876  0  4.162195  0  0  0.653179  0  4.154927  0  0  0.208194  0.593901  0  4.166094  0
C  C66  1  0.49241560  0.17328519  0.23154806  1  0  0.66985  0  3.87482  0  0  0.617853  0  4.162339  0  0  0.653156  0  4.155071  0  0  0.208143  0.593878  0  4.166237  0
C  C67  1  0.80576075  0.89128873  0.37262983  1  0  0.681316  0  3.88505  0  0  0.626773  0  4.176104  0  0  0.66394  0  4.168081  0  0  0.218909  0.601324  0  4.1809  0
C  C68  1  0.19423961  0.10871065  0.62737008  1  0  0.681298  0  3.884991  0  0  0.626753  0  4.176032  0  0  0.663918  0  4.16801  0  0  0.218918  0.601305  0  4.180828  0
N  N69  1  0.84569373  0.57618498  0.71145204  1  0  -0.681416  0  3.016754  0  0  -0.606662  0  3.295954  0  0  -0.638551  0  3.300823  0  0  -0.372302  -0.584838  0  3.292147  0
N  N70  1  0.15430686  0.42381658  0.28854720  1  0  -0.681408  0  3.016762  0  0  -0.60667  0  3.295919  0  0  -0.63855  0  3.300792  0  0  -0.372303  -0.584843  0  3.292114  0
N  N71  1  0.92489700  0.50182896  0.88480785  1  0  -0.635499  0  2.981724  0  0  -0.578895  0  3.241974  0  0  -0.604817  0  3.247037  0  0  -0.35488  -0.561496  0  3.237536  0
N  N72  1  0.07510127  0.49817259  0.11519335  1  0  -0.635431  0  2.981775  0  0  -0.578909  0  3.242048  0  0  -0.604829  0  3.247114  0  0  -0.354853  -0.561508  0  3.237612  0
N  N73  1  0.11831642  0.59701159  0.70204686  1  0  -0.632918  0  2.953436  0  0  -0.56967  0  3.206838  0  0  -0.595688  0  3.209749  0  0  -0.348891  -0.552176  0  3.204621  0
N  N74  1  0.88168197  0.40299106  0.29795401  1  0  -0.632806  0  2.953351  0  0  -0.569667  0  3.206733  0  0  -0.595677  0  3.209647  0  0  -0.34894  -0.552173  0  3.204514  0
N  N75  1  0.66851243  0.46297923  0.89266183  1  0  -0.691551  0  3.078394  0  0  -0.652121  0  3.31452  0  0  -0.672936  0  3.306229  0  0  -0.573312  -0.6381  0  3.320169  0
N  N76  1  0.33148688  0.53702124  0.10733796  1  0  -0.691534  0  3.078418  0  0  -0.652124  0  3.314537  0  0  -0.672936  0  3.306247  0  0  -0.573309  -0.638113  0  3.320169  0
N  N77  1  0.18247634  0.53778139  0.87412820  1  0  -0.680881  0  3.085768  0  0  -0.643551  0  3.333297  0  0  -0.664833  0  3.32523  0  0  -0.56932  -0.629348  0  3.339391  0
N  N78  1  0.81752424  0.46222017  0.12587104  1  0  -0.6809  0  3.085912  0  0  -0.643587  0  3.333405  0  0  -0.664869  0  3.325336  0  0  -0.569299  -0.629384  0  3.339499  0
N  N79  1  0.03940670  0.65038040  0.53767276  1  0  -0.694285  0  3.067308  0  0  -0.654995  0  3.299217  0  0  -0.676433  0  3.292578  0  0  -0.571047  -0.640224  0  3.303758  0
N  N80  1  0.96059494  0.34962006  0.46232660  1  0  -0.694275  0  3.067195  0  0  -0.655013  0  3.299074  0  0  -0.676448  0  3.292447  0  0  -0.571069  -0.640244  0  3.303621  0
O  O81  1  0.40708115  0.73698757  0.55148238  1  0  -0.868016  0  1.918646  0  0  -0.795529  0  2.142689  0  0  -0.821207  0  2.10354  0  0  -0.574641  -0.777236  0  2.170123  0
O  O82  1  0.59291921  0.26301181  0.44851753  1  0  -0.868014  0  1.918671  0  0  -0.795524  0  2.142707  0  0  -0.821202  0  2.103557  0  0  -0.574634  -0.777231  0  2.170143  0
O  O83  1  0.62728462  0.38644766  0.59536448  1  0  -0.642322  0  1.946186  0  0  -0.584176  0  2.166861  0  0  -0.609251  0  2.155223  0  0  -0.319792  -0.566148  0  2.173805  0
O  O84  1  0.37271575  0.61355171  0.40463619  1  0  -0.642392  0  1.94612  0  0  -0.584253  0  2.166778  0  0  -0.609332  0  2.155156  0  0  -0.319852  -0.566227  0  2.173722  0
O  O85  1  0.49818248  0.45077966  0.73946178  1  0  -0.662281  0  2.092713  0  0  -0.584542  0  2.341358  0  0  -0.616013  0  2.331122  0  0  -0.326339  -0.562038  0  2.348577  0
O  O86  1  0.50181787  0.54921972  0.26053813  1  0  -0.662285  0  2.092743  0  0  -0.584558  0  2.341379  0  0  -0.616027  0  2.331144  0  0  -0.326348  -0.562059  0  2.348598  0
O  O87  1  0.46642631  0.69647725  0.83537266  1  0  -0.618789  0  1.971281  0  0  -0.562207  0  2.193241  0  0  -0.586418  0  2.184303  0  0  -0.305378  -0.544355  0  2.199437  0
O  O88  1  0.53357393  0.30352104  0.16462758  1  0  -0.618735  0  1.971303  0  0  -0.562211  0  2.193316  0  0  -0.586426  0  2.184388  0  0  -0.305357  -0.544358  0  2.199515  0
O  O89  1  0.59049317  0.86444737  0.66144697  1  0  -0.719267  0  2.078148  0  0  -0.631119  0  2.340239  0  0  -0.66562  0  2.325405  0  0  -0.347032  -0.606101  0  2.349355  0
O  O90  1  0.40950591  0.13555093  0.33855349  1  0  -0.719244  0  2.078197  0  0  -0.63109  0  2.340274  0  0  -0.665591  0  2.325442  0  0  -0.346999  -0.606072  0  2.34939  0
O  O91  1  0.78378911  0.75820951  0.44418719  1  0  -0.666929  0  2.072505  0  0  -0.588227  0  2.32442  0  0  -0.618703  0  2.310312  0  0  -0.328264  -0.566562  0  2.333328  0
O  O92  1  0.21621125  0.24178987  0.55581271  1  0  -0.666909  0  2.072502  0  0  -0.588202  0  2.324408  0  0  -0.61868  0  2.310305  0  0  -0.328244  -0.566537  0  2.333318  0
O  O93  1  0.72538743  0.99377780  0.38434356  1  0  -0.652665  0  2.058462  0  0  -0.580975  0  2.315663  0  0  -0.613091  0  2.304172  0  0  -0.323562  -0.558565  0  2.322867  0
O  O94  1  0.27461294  0.00622158  0.61565711  1  0  -0.652674  0  2.058471  0  0  -0.580984  0  2.315661  0  0  -0.6131  0  2.30417  0  0  -0.32357  -0.558574  0  2.322868  0
