# generated using pymatgen
data_CoBH16C15(N4O)2
_symmetry_space_group_name_H-M   'P 1'
_cell_length_a   13.61584210
_cell_length_b   14.74226136
_cell_length_c   15.75664964
_cell_angle_alpha   68.46455376
_cell_angle_beta   64.40353366
_cell_angle_gamma   62.49825832
_symmetry_Int_Tables_number   1
_chemical_formula_structural   CoBH16C15(N4O)2
_chemical_formula_sum   'Co4 B4 H64 C60 N32 O8'
_cell_volume   2473.93725411
_cell_formula_units_Z   4
loop_
 _symmetry_equiv_pos_site_id
 _symmetry_equiv_pos_as_xyz
  1  'x, y, z'
loop_
 _atom_site_type_symbol
 _atom_site_label
 _atom_site_symmetry_multiplicity
 _atom_site_fract_x
 _atom_site_fract_y
 _atom_site_fract_z
 _atom_site_occupancy
 _atom_site_pbe_bader_charge
 _atom_site_pbe_bader_spin_density
 _atom_site_pbe_cm5_charge
 _atom_site_pbe_ddec_charge
 _atom_site_pbe_ddec_spin_density
 _atom_site_pbe_ddec_sum_bond_order
 _atom_site_pbe_magmom
Co  Co0  1  0.89789776  0.94313612  0.81166796  1  1.223312  2.584652  0.660166  0.711183  2.804497  2.62267  2.561
Co  Co1  1  0.65270119  0.55685198  0.68833132  1  1.227133  2.584629  0.660583  0.711671  2.804225  2.622968  2.561
Co  Co2  1  0.10210196  0.05686376  0.18833168  1  1.223291  2.584654  0.660146  0.711097  2.804498  2.622722  2.561
Co  Co3  1  0.34729853  0.44314789  0.31166832  1  1.227135  2.584628  0.660571  0.711659  2.804224  2.623012  2.561
B  B4  1  0.74636864  0.25574563  0.01621687  1  2.214646  0.001479  0.109337  0.530797  0.001871  3.335261  0.003
B  B5  1  0.01833690  0.24424981  0.48378044  1  2.21167  0.001481  0.10851  0.529067  0.001871  3.336656  0.003
B  B6  1  0.25363189  0.74425424  0.98378246  1  2.214798  0.001479  0.109345  0.530799  0.001871  3.335305  0.003
B  B7  1  0.98166363  0.75575006  0.51621954  1  2.211671  0.001481  0.10854  0.529121  0.001871  3.336484  0.003
H  H8  1  0.52611500  0.02586331  0.83378672  1  0.057544  0.001947  0.092095  0.106288  0.000813  0.979815  0.001
H  H9  1  0.38574530  0.47413227  0.66621193  1  0.052636  0.001946  0.09214  0.106227  0.000812  0.97947  0.001
H  H10  1  0.47388390  0.97413657  0.16621323  1  0.057547  0.001947  0.092102  0.106309  0.000813  0.979812  0.001
H  H11  1  0.61425442  0.52586760  0.33378834  1  0.052642  0.001946  0.092148  0.106232  0.000812  0.979457  0.001
H  H12  1  0.57645864  0.88723914  0.85917100  1  0.020541  -0.000121  0.090748  0.097021  -0.000213  1.003388  0.0
H  H13  1  0.32286617  0.61276010  0.64082253  1  0.031798  -0.000122  0.091088  0.097464  -0.000212  1.002423  0.0
H  H14  1  0.42354220  0.11275995  0.14082849  1  0.020536  -0.000121  0.09075  0.097016  -0.000213  1.003404  0.0
H  H15  1  0.67713242  0.38724056  0.35917790  1  0.03174  -0.000122  0.091075  0.097452  -0.000212  1.002493  0.0
H  H16  1  0.42478023  0.94519763  0.00475305  1  0.026054  0.000184  0.08285  0.078032  -4.5e-05  1.013442  0.0
H  H17  1  0.37473274  0.55478934  0.49523506  1  0.01686  0.000186  0.082925  0.077743  -4.5e-05  1.012522  0.0
H  H18  1  0.57521981  0.05480146  0.99524738  1  0.026061  0.000184  0.082869  0.078051  -4.5e-05  1.013424  0.0
H  H19  1  0.62526698  0.44521053  0.50476459  1  0.016872  0.000186  0.082934  0.07776  -4.5e-05  1.012504  0.0
H  H20  1  0.56158453  0.88076524  0.02544618  1  0.019921  0.000533  0.087108  0.083521  0.000262  0.984664  0.0
H  H21  1  0.46778010  0.61921029  0.47457390  1  0.037103  0.000528  0.086355  0.082355  0.000262  0.984068  0.0
H  H22  1  0.43841568  0.11923541  0.97455301  1  0.019822  0.000533  0.087077  0.083463  0.000262  0.984599  0.0
H  H23  1  0.53221962  0.38078959  0.52542638  1  0.037102  0.000528  0.086347  0.082346  0.000262  0.984053  0.0
H  H24  1  0.53240051  0.26591649  0.01237332  1  0.1191  0.000888  0.128347  0.126411  0.000345  0.992656  0.0
H  H25  1  0.81067819  0.23407270  0.48765750  1  0.114524  0.000886  0.128097  0.125916  0.000345  0.992474  0.0
H  H26  1  0.46760034  0.73408260  0.98762680  1  0.119099  0.000888  0.128335  0.126412  0.000345  0.992593  0.0
H  H27  1  0.18932122  0.76592796  0.51234263  1  0.114505  0.000886  0.128094  0.125932  0.000345  0.992449  0.0
H  H28  1  0.83854879  0.17347636  0.84521396  1  0.132768  0.000448  0.131045  0.091519  -5.5e-05  1.02898  0.0
H  H29  1  0.85726241  0.32650291  0.65478851  1  0.101882  0.000436  0.131354  0.092187  -5.5e-05  1.02847  0.0
H  H30  1  0.16145175  0.82652351  0.15478601  1  0.132774  0.000448  0.131045  0.091524  -5.5e-05  1.028985  0.0
H  H31  1  0.14273844  0.67349618  0.34521161  1  0.101873  0.000436  0.131357  0.092186  -5.5e-05  1.028493  0.0
H  H32  1  0.71350184  0.06495052  0.14539174  1  0.101894  0.000947  0.123065  0.118382  0.000379  0.995358  0.0
H  H33  1  0.92384621  0.43504420  0.35459131  1  0.096705  0.000948  0.123516  0.118315  0.000379  0.995361  0.0
H  H34  1  0.28649869  0.93504935  0.85460824  1  0.101903  0.000947  0.123073  0.118394  0.000379  0.99534  0.0
H  H35  1  0.07615351  0.56495568  0.64540833  1  0.096709  0.000948  0.123507  0.118319  0.000379  0.995378  0.0
H  H36  1  0.63033069  0.34772662  0.18723095  1  0.118022  0.000394  0.13289  0.093388  -0.00012  1.023985  0.0
H  H37  1  0.16527994  0.15228393  0.31276345  1  0.123112  0.000397  0.132667  0.092273  -0.000121  1.023879  0.0
H  H38  1  0.36966952  0.65227404  0.81276887  1  0.11803  0.000394  0.132907  0.093406  -0.00012  1.023972  0.0
H  H39  1  0.83472141  0.84771594  0.68723622  1  0.123128  0.000397  0.132657  0.092289  -0.000121  1.023891  0.0
H  H40  1  0.92707884  0.07758303  0.08503919  1  0.099325  0.000295  0.128499  0.082001  -0.000246  1.041432  0.0
H  H41  1  0.08967864  0.42243792  0.41495702  1  0.120086  0.00031  0.128248  0.082374  -0.000245  1.040512  0.0
H  H42  1  0.07292137  0.92241763  0.91496063  1  0.099319  0.000295  0.128493  0.082003  -0.000246  1.041413  0.0
H  H43  1  0.91032189  0.57756195  0.58504232  1  0.120085  0.00031  0.128221  0.082394  -0.000245  1.040462  0.0
H  H44  1  0.78708647  0.90678095  0.05003384  1  0.108202  0.000785  0.123743  0.123111  0.000148  0.984008  0.0
H  H45  1  0.74390897  0.59320413  0.44998021  1  0.100751  0.000784  0.123517  0.123107  0.000147  0.984325  0.0
H  H46  1  0.21291406  0.09321892  0.94996613  1  0.108201  0.000785  0.123745  0.123116  0.000148  0.984001  0.0
H  H47  1  0.25609044  0.40679652  0.55001992  1  0.100821  0.000784  0.12352  0.123106  0.000147  0.984335  0.0
H  H48  1  0.33544586  0.35432920  0.15638816  1  0.088891  0.000822  0.118539  0.11497  0.000157  0.993393  0.0
H  H49  1  0.84616992  0.14567901  0.34362035  1  0.111952  0.000823  0.118375  0.114053  0.000157  0.994428  0.0
H  H50  1  0.66455499  0.64566989  0.84361196  1  0.088881  0.000822  0.118551  0.115015  0.000157  0.99335  0.0
H  H51  1  0.15383111  0.85432164  0.65637980  1  0.111911  0.000823  0.11839  0.11405  0.000157  0.994427  0.0
H  H52  1  0.60126379  0.41115059  0.89434353  1  0.15486  0.000406  0.139235  0.102623  -9.1e-05  0.999329  0.0
H  H53  1  0.90676809  0.08884670  0.60566788  1  0.134382  0.000407  0.139248  0.101511  -9.1e-05  0.998342  0.0
H  H54  1  0.39873706  0.58884851  0.10565659  1  0.154855  0.000406  0.139242  0.10262  -9.1e-05  0.999318  0.0
H  H55  1  0.09323213  0.91115395  0.39433194  1  0.134379  0.000407  0.139236  0.10152  -9.1e-05  0.998338  0.0
H  H56  1  0.78797448  0.40431347  0.06406761  1  0.128192  0.001135  0.127996  0.123956  0.000478  0.989468  0.001
H  H57  1  0.25636706  0.09569753  0.43593658  1  0.119221  0.001133  0.128084  0.12443  0.000478  0.988228  0.001
H  H58  1  0.21202605  0.59568640  0.93593236  1  0.128191  0.001135  0.128006  0.12398  0.000478  0.989415  0.001
H  H59  1  0.74363234  0.90430312  0.56406291  1  0.119224  0.001133  0.128088  0.124455  0.000478  0.98822  0.001
H  H60  1  0.92645969  0.43651015  0.71338135  1  0.089921  0.000586  0.110324  0.094871  6.7e-05  1.03775  0.0
H  H61  1  0.07637505  0.06347912  0.78662985  1  0.077448  0.000585  0.110101  0.094872  6.7e-05  1.038731  0.0
H  H62  1  0.07354003  0.56348972  0.28661893  1  0.089921  0.000586  0.110326  0.094871  6.7e-05  1.037747  0.0
H  H63  1  0.92362548  0.93652075  0.21337013  1  0.077442  0.000585  0.110094  0.094852  6.7e-05  1.038749  0.0
H  H64  1  0.95414374  0.29404748  0.88241402  1  0.088998  0.00075  0.12393  0.120977  0.000259  1.001723  0.0
H  H65  1  0.13063486  0.20597140  0.61757709  1  0.095397  0.000743  0.123487  0.119809  0.000259  1.002341  0.0
H  H66  1  0.04585680  0.70595239  0.11758596  1  0.089008  0.00075  0.123932  0.120973  0.000259  1.001728  0.0
H  H67  1  0.86936567  0.79402848  0.38242224  1  0.095406  0.000743  0.123504  0.119809  0.000259  1.002374  0.0
H  H68  1  0.96300976  0.31144263  0.14895887  1  0.085411  0.000634  0.120885  0.115973  0.000137  0.988449  0.0
H  H69  1  0.42340861  0.18857116  0.35104582  1  0.088641  0.00063  0.122141  0.117543  0.000136  0.98781  0.0
H  H70  1  0.03699077  0.68855725  0.85104110  1  0.085397  0.000634  0.120884  0.115961  0.000137  0.988479  0.0
H  H71  1  0.57659192  0.81142871  0.64895288  1  0.088641  0.00063  0.122136  0.117555  0.000136  0.987852  0.0
C  C72  1  0.57285752  0.95451742  0.87722148  1  -0.026095  0.00286  -0.166857  -0.286156  0.00178  3.943716  0.002
C  C73  1  0.40458478  0.54546915  0.62276967  1  -0.039247  0.002864  -0.167932  -0.28744  0.00178  3.940543  0.002
C  C74  1  0.42714188  0.04548324  0.12277864  1  -0.0261  0.00286  -0.16687  -0.286192  0.00178  3.943753  0.002
C  C75  1  0.59541575  0.45453072  0.37723030  1  -0.039213  0.002864  -0.167936  -0.287426  0.00178  3.940564  0.002
C  C76  1  0.50961584  0.95174900  0.98524561  1  -0.020522  0.000684  -0.16708  -0.123305  0.000273  3.932378  0.0
C  C77  1  0.44660577  0.54822332  0.51475716  1  -0.023816  0.000691  -0.166606  -0.121515  0.000273  3.929288  0.0
C  C78  1  0.49038388  0.04825087  0.01475467  1  0.00102  0.000683  -0.167064  -0.12323  0.000273  3.932304  0.0
C  C79  1  0.55339476  0.45177656  0.48524218  1  -0.007294  0.00069  -0.166588  -0.121514  0.000273  3.92926  0.0
C  C80  1  0.52303376  0.29724323  0.06898606  1  0.301124  0.002926  -0.000176  -0.077236  0.001628  3.964901  0.002
C  C81  1  0.88926055  0.20276920  0.43102959  1  0.274419  0.002948  -0.000417  -0.077545  0.001628  3.965493  0.002
C  C82  1  0.47696709  0.70275586  0.93101343  1  0.300699  0.002926  -0.000181  -0.077283  0.001628  3.96496  0.002
C  C83  1  0.11073999  0.79723068  0.56897102  1  0.274474  0.002948  -0.000509  -0.077724  0.001629  3.965377  0.002
C  C84  1  0.81622340  0.12115472  0.91353142  1  0.962031  -0.004179  0.141503  0.133486  -0.004948  3.933828  -0.002
C  C85  1  0.85099725  0.37883605  0.58645642  1  0.999337  -0.004156  0.141491  0.132452  -0.004938  3.934863  -0.002
C  C86  1  0.18377714  0.87884515  0.08646855  1  0.961685  -0.004179  0.14149  0.13346  -0.004948  3.933841  -0.002
C  C87  1  0.14900329  0.62116382  0.41354355  1  0.999345  -0.004156  0.141496  0.132459  -0.004938  3.934881  -0.002
C  C88  1  0.75226026  0.06276106  0.06955377  1  0.248055  0.002902  -0.003815  -0.086278  0.00147  3.976171  0.002
C  C89  1  0.88454295  0.43722349  0.43042811  1  0.307266  0.002871  -0.003624  -0.084813  0.001471  3.978183  0.002
C  C90  1  0.24773946  0.93723882  0.93044714  1  0.248058  0.002902  -0.003813  -0.086284  0.00147  3.976178  0.002
C  C91  1  0.11545758  0.56277638  0.56957186  1  0.30726  0.002871  -0.003607  -0.084801  0.001471  3.978203  0.002
C  C92  1  0.57638133  0.33837180  0.15921767  1  0.988744  -0.000673  0.143889  0.14248  -0.001492  3.923419  0.0
C  C93  1  0.07396995  0.16163992  0.34076834  1  0.978505  -0.000689  0.145091  0.144892  -0.001491  3.919824  0.0
C  C94  1  0.42361920  0.66162808  0.84078230  1  0.988743  -0.000673  0.14387  0.142445  -0.001492  3.92344  0.0
C  C95  1  0.92603059  0.83835995  0.65923163  1  0.978496  -0.000688  0.145081  0.144847  -0.00149  3.919868  0.0
C  C96  1  0.91246303  0.15305036  0.09311241  1  0.986498  -0.007327  0.13886  0.125055  -0.008885  3.94981  -0.004
C  C97  1  0.15861738  0.34698042  0.40687970  1  0.954998  -0.007369  0.138908  0.12451  -0.008896  3.946468  -0.004
C  C98  1  0.08753669  0.84694952  0.90688787  1  0.986504  -0.007327  0.138868  0.125059  -0.008884  3.94979  -0.004
C  C99  1  0.84138202  0.65302023  0.59311916  1  0.955014  -0.007369  0.13898  0.124543  -0.008895  3.946426  -0.004
C  C100  1  0.78867392  0.98533526  0.02199510  1  0.428415  -0.001449  -0.001904  -0.035498  -0.00227  4.009255  -0.001
C  C101  1  0.79603713  0.51465497  0.47800151  1  0.378524  -0.001396  -0.002403  -0.037639  -0.002268  4.012747  -0.001
C  C102  1  0.21132661  0.01466462  0.97800424  1  0.428396  -0.001449  -0.001917  -0.035512  -0.00227  4.009305  -0.001
C  C103  1  0.20396259  0.48534491  0.52199877  1  0.37845  -0.001396  -0.002422  -0.037652  -0.002268  4.01278  -0.001
C  C104  1  0.42644271  0.34029145  0.14084832  1  0.37877  -0.000508  -0.008639  -0.047501  -0.001338  4.034013  0.0
C  C105  1  0.90759178  0.15972504  0.35915094  1  0.390022  -0.000521  -0.008223  -0.045594  -0.001336  4.035414  0.0
C  C106  1  0.57355814  0.65970765  0.85915117  1  0.379224  -0.000508  -0.008661  -0.04754  -0.001338  4.034075  0.0
C  C107  1  0.09240794  0.84027483  0.64085188  1  0.389857  -0.000521  -0.008114  -0.045366  -0.001336  4.035186  0.0
C  C108  1  0.69345053  0.39873009  0.86767942  1  0.959493  0.004901  0.152628  0.151844  0.002548  3.897993  0.004
C  C109  1  0.95987245  0.10129028  0.63231575  1  0.991887  0.004905  0.151896  0.1517  0.002548  3.893874  0.004
C  C110  1  0.30654919  0.60126978  0.13232085  1  0.959561  0.004901  0.15261  0.151838  0.002548  3.898038  0.004
C  C111  1  0.04012696  0.89871037  0.36768437  1  0.991896  0.004904  0.151879  0.15157  0.002548  3.893902  0.004
C  C112  1  0.84139011  0.32295072  0.08258129  1  0.334418  0.003525  -6.4e-05  -0.081907  0.001641  3.973185  0.002
C  C113  1  0.24690196  0.17707080  0.41744253  1  0.343675  0.003527  5.5e-05  -0.081668  0.001641  3.975112  0.002
C  C114  1  0.15860961  0.67704915  0.91741835  1  0.334419  0.003525  -0.000104  -0.081963  0.001641  3.97318  0.002
C  C115  1  0.75309663  0.82292986  0.58255853  1  0.343597  0.003527  6.9e-05  -0.081658  0.001641  3.97507  0.002
C  C116  1  0.86238329  0.41009373  0.77614070  1  0.35143  0.001393  -0.013273  -0.056145  0.000439  4.053282  0.001
C  C117  1  0.04872853  0.08983929  0.72382899  1  0.371404  0.00145  -0.01269  -0.056098  0.000439  4.05396  0.001
C  C118  1  0.13761725  0.58990615  0.22385927  1  0.351504  0.001393  -0.013259  -0.056135  0.000439  4.053249  0.001
C  C119  1  0.95127087  0.91016137  0.27617051  1  0.37147  0.00145  -0.012676  -0.056063  0.000439  4.054013  0.001
C  C120  1  0.87750210  0.33910920  0.85936491  1  0.356423  0.003507  -0.002319  -0.080207  0.001951  3.979672  0.002
C  C121  1  0.07605421  0.16086483  0.64061863  1  0.325928  0.003522  -0.002572  -0.079878  0.001952  3.978144  0.002
C  C122  1  0.12249843  0.66089068  0.14063507  1  0.356365  0.003507  -0.002288  -0.080123  0.001951  3.979635  0.002
C  C123  1  0.92394551  0.83913505  0.35938101  1  0.325855  0.003521  -0.002595  -0.079938  0.001952  3.978213  0.002
C  C124  1  0.92851510  0.27652665  0.12386071  1  0.379972  -0.000402  -0.000437  -0.029593  -0.001327  4.000844  0.001
C  C125  1  0.32889907  0.22347982  0.37615748  1  0.374153  -0.000395  -0.001516  -0.032053  -0.001331  4.003317  0.001
C  C126  1  0.07148512  0.72347400  0.87613847  1  0.379982  -0.000402  -0.000422  -0.029567  -0.001327  4.000922  0.001
C  C127  1  0.67110064  0.77652005  0.62384216  1  0.374201  -0.000395  -0.001531  -0.032122  -0.001331  4.003447  0.001
C  C128  1  0.69744120  0.94797130  0.84777759  1  1.506337  -0.005474  0.185076  0.604679  -0.007915  4.143264  -0.007
C  C129  1  0.49320016  0.55198807  0.65221985  1  1.518754  -0.005451  0.184774  0.60402  -0.00792  4.139897  -0.007
C  C130  1  0.30255820  0.05202935  0.15222190  1  1.506349  -0.005475  0.185134  0.604725  -0.007915  4.143173  -0.007
C  C131  1  0.50680069  0.44801103  0.34778027  1  1.518817  -0.005451  0.184811  0.604083  -0.00792  4.139838  -0.007
N  N132  1  0.46109681  0.36574639  0.19689772  1  -1.204726  0.054639  -0.352793  -0.29807  0.029146  3.619795  0.046
N  N133  1  0.02373111  0.13426712  0.30309271  1  -1.201996  0.054606  -0.353492  -0.299205  0.029129  3.61711  0.046
N  N134  1  0.53890291  0.63425349  0.80310192  1  -1.20475  0.054638  -0.352773  -0.29804  0.029146  3.61983  0.046
N  N135  1  0.97626780  0.86573276  0.69690850  1  -1.201857  0.054606  -0.35353  -0.299324  0.02913  3.617243  0.046
N  N136  1  0.82862936  0.02303994  0.92406814  1  -1.203709  0.053842  -0.350492  -0.293205  0.028848  3.589923  0.045
N  N137  1  0.77578085  0.47693702  0.57592732  1  -1.208464  0.053777  -0.350413  -0.292217  0.028864  3.591936  0.045
N  N138  1  0.17137086  0.97696071  0.07593105  1  -1.20333  0.053843  -0.350478  -0.29319  0.028849  3.589942  0.045
N  N139  1  0.22421887  0.52306285  0.42407296  1  -1.20846  0.053776  -0.350407  -0.292215  0.028864  3.591934  0.045
N  N140  1  0.77058534  0.14933013  0.99974712  1  -1.456794  0.001757  -0.234974  -0.219821  0.000248  3.744033  0.001
N  N141  1  0.91968091  0.35066552  0.50023292  1  -1.457032  0.001757  -0.235187  -0.219555  0.000249  3.745952  0.001
N  N142  1  0.22941438  0.85066974  0.00025316  1  -1.456824  0.001757  -0.234972  -0.219783  0.000248  3.743996  0.001
N  N143  1  0.08031881  0.64933435  0.49976736  1  -1.457031  0.001757  -0.235192  -0.219578  0.000249  3.745943  0.001
N  N144  1  0.97234361  0.16995511  0.12996086  1  -1.22945  0.059922  -0.35415  -0.283715  0.03245  3.60561  0.045
N  N145  1  0.27225667  0.33006144  0.37003719  1  -1.215132  0.059885  -0.354212  -0.282993  0.032481  3.603231  0.045
N  N146  1  0.02765611  0.83004477  0.87003942  1  -1.22949  0.059921  -0.35415  -0.283729  0.03245  3.605643  0.045
N  N147  1  0.72774304  0.66993843  0.62996245  1  -1.215145  0.059885  -0.354251  -0.283009  0.032481  3.603246  0.045
N  N148  1  0.61879540  0.29646410  0.08078315  1  -1.468912  0.003425  -0.233844  -0.217598  0.0014  3.729284  0.002
N  N149  1  0.99605310  0.20352887  0.41922033  1  -1.464563  0.003424  -0.233592  -0.217743  0.001401  3.727434  0.002
N  N150  1  0.38120513  0.70353578  0.91921682  1  -1.468915  0.003425  -0.23384  -0.217578  0.0014  3.729322  0.002
N  N151  1  0.00394711  0.79647179  0.58078012  1  -1.464537  0.003425  -0.233592  -0.217709  0.001401  3.727407  0.002
N  N152  1  0.74647014  0.44709228  0.78209460  1  -1.218673  0.054505  -0.353247  -0.295363  0.029424  3.589511  0.041
N  N153  1  0.97569143  0.05290676  0.71789620  1  -1.199995  0.054324  -0.353165  -0.295378  0.029406  3.588025  0.041
N  N154  1  0.25353040  0.55290759  0.21790537  1  -1.218753  0.054506  -0.35326  -0.295379  0.029424  3.589541  0.041
N  N155  1  0.02430829  0.94709312  0.28210408  1  -1.200013  0.054325  -0.353194  -0.295349  0.029406  3.588129  0.041
N  N156  1  0.76920736  0.33236548  0.91767516  1  -1.461251  0.0053  -0.230799  -0.212894  0.002327  3.722738  0.003
N  N157  1  0.01927847  0.16763848  0.58232373  1  -1.473118  0.005297  -0.229917  -0.210488  0.002325  3.720802  0.003
N  N158  1  0.23079318  0.66763440  0.08232481  1  -1.461402  0.0053  -0.230821  -0.212966  0.002327  3.722822  0.003
N  N159  1  0.98072156  0.83236061  0.41767607  1  -1.473099  0.005297  -0.229866  -0.210329  0.002325  3.720656  0.003
N  N160  1  0.83066493  0.24352427  0.06396914  1  -1.46753  0.000692  -0.235051  -0.217889  -0.000692  3.745499  0.0
N  N161  1  0.13814877  0.25650021  0.43602944  1  -1.468313  0.000688  -0.234503  -0.217385  -0.000695  3.747393  0.0
N  N162  1  0.16933478  0.75647561  0.93603050  1  -1.467514  0.000693  -0.235035  -0.217865  -0.000692  3.745476  0.0
N  N163  1  0.86185095  0.74349967  0.56397083  1  -1.468284  0.000688  -0.234525  -0.217446  -0.000695  3.747356  0.0
O  O164  1  0.76491461  0.87496344  0.89477061  1  -1.150288  0.083678  -0.33905  -0.558985  0.04258  2.148436  0.072
O  O165  1  0.53461009  0.62502654  0.60522201  1  -1.161125  0.083582  -0.338149  -0.557774  0.042502  2.14861  0.072
O  O166  1  0.23508479  0.12503722  0.10522952  1  -1.150309  0.083675  -0.339074  -0.55901  0.042578  2.148443  0.072
O  O167  1  0.46538931  0.37497412  0.39477812  1  -1.161126  0.083581  -0.338159  -0.557799  0.042501  2.148612  0.072
O  O168  1  0.73513156  0.01480164  0.77734215  1  -1.16377  0.082937  -0.343899  -0.571204  0.042236  2.138453  0.072
O  O169  1  0.52727257  0.48518896  0.72267152  1  -1.163941  0.082981  -0.343929  -0.571484  0.042252  2.136093  0.072
O  O170  1  0.26486734  0.98519823  0.22265843  1  -1.163754  0.08294  -0.343912  -0.57119  0.042237  2.138414  0.072
O  O171  1  0.47272715  0.51481092  0.27732876  1  -1.163989  0.082982  -0.343949  -0.571522  0.042252  2.136041  0.072
