# generated using pymatgen
data_Cu2H32C23(N4Cl)2
_symmetry_space_group_name_H-M   'P 1'
_cell_length_a   10.26456323
_cell_length_b   10.28726190
_cell_length_c   15.03700000
_cell_angle_alpha   102.00106469
_cell_angle_beta   102.02799979
_cell_angle_gamma   99.06399678
_symmetry_Int_Tables_number   1
_chemical_formula_structural   Cu2H32C23(N4Cl)2
_chemical_formula_sum   'Cu4 H64 C46 N16 Cl4'
_cell_volume   1485.15867589
_cell_formula_units_Z   2
loop_
 _symmetry_equiv_pos_site_id
 _symmetry_equiv_pos_as_xyz
  1  'x, y, z'
loop_
 _atom_site_type_symbol
 _atom_site_label
 _atom_site_symmetry_multiplicity
 _atom_site_fract_x
 _atom_site_fract_y
 _atom_site_fract_z
 _atom_site_occupancy
 _atom_site_hle17_bader_spin_density
 _atom_site_hle17_ddec_charge
 _atom_site_hle17_ddec_spin_density
 _atom_site_hle17_ddec_sum_bond_order
 _atom_site_hle17_magmom
 _atom_site_hse06_10hf_bader_spin_density
 _atom_site_hse06_10hf_ddec_charge
 _atom_site_hse06_10hf_ddec_spin_density
 _atom_site_hse06_10hf_ddec_sum_bond_order
 _atom_site_hse06_10hf_magmom
 _atom_site_hse06_bader_spin_density
 _atom_site_hse06_ddec_charge
 _atom_site_hse06_ddec_spin_density
 _atom_site_hse06_ddec_sum_bond_order
 _atom_site_hse06_magmom
 _atom_site_pbe_bader_charge
 _atom_site_pbe_bader_spin_density
 _atom_site_pbe_cm5_charge
 _atom_site_pbe_ddec_charge
 _atom_site_pbe_ddec_spin_density
 _atom_site_pbe_ddec_sum_bond_order
 _atom_site_pbe_magmom
Cu  Cu0  1  0.04067737  0.63808251  0.53109710  1  0  0.381652  0  2.039647  0  0  0.275403  0  2.548155  0  0  0.279593  0  2.499022  0  0.632087  0  0.399984  0.275774  0  2.579001  0
Cu  Cu1  1  0.36212197  0.95940114  0.96919174  1  0  0.38109  0  2.042242  0  0  0.274888  0  2.551074  0  0  0.27912  0  2.501698  0  0.631756  0  0.400011  0.275086  0  2.582107  0
Cu  Cu2  1  0.95932439  0.36191074  0.46890139  1  0  0.381718  0  2.039662  0  0  0.275365  0  2.548149  0  0  0.279537  0  2.499044  0  0.632359  0  0.39996  0.275737  0  2.578986  0
Cu  Cu3  1  0.63787439  0.04060432  0.03081104  1  0  0.381107  0  2.042195  0  0  0.274906  0  2.551026  0  0  0.279125  0  2.501637  0  0.631716  0  0.400003  0.275096  0  2.582069  0
H  H4  1  0.97353886  0.22535615  0.63944013  1  0  0.138601  0  0.951306  0  0  0.159241  0  1.008233  0  0  0.161561  0  1.007231  0  0.088136  0  0.094405  0.157768  0  1.008156  0
H  H5  1  0.77364686  0.02590740  0.86013033  1  0  0.138731  0  0.951601  0  0  0.159071  0  1.00882  0  0  0.161373  0  1.007831  0  0.087138  0  0.094138  0.15762  0  1.008717  0
H  H6  1  0.02645095  0.77463711  0.36056199  1  0  0.138652  0  0.951272  0  0  0.159315  0  1.00817  0  0  0.161624  0  1.007183  0  0.0882  0  0.094436  0.157843  0  1.008091  0
H  H7  1  0.22634899  0.97409094  0.13987470  1  0  0.138799  0  0.951591  0  0  0.159157  0  1.008783  0  0  0.161458  0  1.007794  0  0.08721  0  0.094196  0.157705  0  1.008682  0
H  H8  1  0.13273472  0.18332473  0.64014832  1  0  0.119357  0  0.945636  0  0  0.138792  0  1.00851  0  0  0.140603  0  1.008114  0  0.04747  0  0.093639  0.137345  0  1.008862  0
H  H9  1  0.81589430  0.86718430  0.85964580  1  0  0.119028  0  0.946109  0  0  0.13872  0  1.008579  0  0  0.140477  0  1.008241  0  0.04592  0  0.093533  0.137295  0  1.008905  0
H  H10  1  0.86725901  0.81667768  0.35985698  1  0  0.119385  0  0.945672  0  0  0.138878  0  1.00847  0  0  0.140688  0  1.00807  0  0.047311  0  0.093652  0.137431  0  1.008823  0
H  H11  1  0.18411195  0.13281608  0.14036033  1  0  0.119004  0  0.946143  0  0  0.138697  0  1.008606  0  0  0.140454  0  1.008271  0  0.046019  0  0.093536  0.137281  0  1.008924  0
H  H12  1  0.06583944  0.18544709  0.74057054  1  0  0.118036  0  0.948321  0  0  0.136488  0  1.011683  0  0  0.138386  0  1.011384  0  0.03138  0  0.092371  0.135043  0  1.011659  0
H  H13  1  0.81362847  0.93369093  0.75909270  1  0  0.117805  0  0.948437  0  0  0.136184  0  1.011876  0  0  0.138073  0  1.011588  0  0.027022  0  0.092191  0.134739  0  1.011845  0
H  H14  1  0.93414958  0.81454719  0.25943227  1  0  0.11811  0  0.948281  0  0  0.136554  0  1.011645  0  0  0.138444  0  1.011351  0  0.031595  0  0.09242  0.135109  0  1.011622  0
H  H15  1  0.18636212  0.06630131  0.24090872  1  0  0.117799  0  0.948391  0  0  0.136184  0  1.011845  0  0  0.138073  0  1.011556  0  0.026975  0  0.092199  0.134741  0  1.011813  0
H  H16  1  0.76017258  0.00994194  0.54545370  1  0  0.126719  0  0.997532  0  0  0.13337  0  1.065472  0  0  0.13622  0  1.066073  0  0.091187  0  0.0982  0.131636  0  1.064754  0
H  H17  1  0.98931065  0.23901425  0.95393114  1  0  0.126954  0  0.99789  0  0  0.133349  0  1.06599  0  0  0.13619  0  1.066599  0  0.085101  0  0.098221  0.131621  0  1.065274  0
H  H18  1  0.23982058  0.99004826  0.45454446  1  0  0.126717  0  0.997471  0  0  0.13335  0  1.065446  0  0  0.136195  0  1.066044  0  0.091548  0  0.098167  0.131616  0  1.064732  0
H  H19  1  0.01068201  0.76099730  0.04605935  1  0  0.126966  0  0.998048  0  0  0.133368  0  1.066134  0  0  0.136212  0  1.066741  0  0.08509  0  0.098181  0.131639  0  1.06542  0
H  H20  1  0.74012670  0.61196572  0.46463024  1  0  0.129741  0  0.967937  0  0  0.144389  0  1.036404  0  0  0.147947  0  1.033552  0  0.108614  0  0.088645  0.141505  0  1.038896  0
H  H21  1  0.38820829  0.25917970  0.03508357  1  0  0.129813  0  0.967239  0  0  0.144201  0  1.036101  0  0  0.147735  0  1.033263  0  0.077532  0  0.088728  0.14133  0  1.038571  0
H  H22  1  0.25987854  0.38802042  0.53537439  1  0  0.129721  0  0.967981  0  0  0.144391  0  1.036409  0  0  0.147947  0  1.033559  0  0.108744  0  0.088662  0.141508  0  1.0389  0
H  H23  1  0.61178665  0.74082372  0.96491606  1  0  0.129807  0  0.96717  0  0  0.144206  0  1.036025  0  0  0.147739  0  1.033188  0  0.077422  0  0.08873  0.141335  0  1.038499  0
H  H24  1  0.64091478  0.73506043  0.44352137  1  0  0.10649  0  0.958564  0  0  0.129185  0  1.017608  0  0  0.130183  0  1.017979  0  0.029876  0  0.090197  0.128374  0  1.017406  0
H  H25  1  0.26479552  0.35813665  0.05611292  1  0  0.106575  0  0.957158  0  0  0.129122  0  1.016427  0  0  0.130127  0  1.016776  0  0.03762  0  0.090117  0.128299  0  1.016244  0
H  H26  1  0.35908328  0.26492470  0.55648076  1  0  0.106561  0  0.95869  0  0  0.129258  0  1.017713  0  0  0.130252  0  1.018088  0  0.030056  0  0.090277  0.128444  0  1.017514  0
H  H27  1  0.73519785  0.64186881  0.94388745  1  0  0.106603  0  0.957168  0  0  0.129145  0  1.016429  0  0  0.13015  0  1.016778  0  0.037605  0  0.090135  0.128328  0  1.01624  0
H  H28  1  0.64482620  0.67333926  0.54531184  1  0  0.111932  0  0.936728  0  0  0.133923  0  0.993222  0  0  0.13548  0  0.993074  0  0.040236  0  0.093094  0.132772  0  0.99342  0
H  H29  1  0.32669670  0.35423143  0.95433830  1  0  0.111277  0  0.936006  0  0  0.133388  0  0.992441  0  0  0.134952  0  0.992281  0  0.042118  0  0.093155  0.132237  0  0.992642  0
H  H30  1  0.35517627  0.32664790  0.45469453  1  0  0.111978  0  0.936694  0  0  0.133928  0  0.993237  0  0  0.135484  0  0.993089  0  0.039739  0  0.093062  0.132784  0  0.993427  0
H  H31  1  0.67330450  0.64577809  0.04566243  1  0  0.111319  0  0.935978  0  0  0.133408  0  0.992446  0  0  0.134972  0  0.992286  0  0.041689  0  0.093163  0.132256  0  0.992647  0
H  H32  1  0.46365355  0.08247819  0.76501175  1  0  0.132507  0  0.973084  0  0  0.149261  0  1.039053  0  0  0.151568  0  1.03869  0  0.094677  0  0.089944  0.147312  0  1.039641  0
H  H33  1  0.91765297  0.53736405  0.73487555  1  0  0.132678  0  0.973291  0  0  0.14933  0  1.039258  0  0  0.15173  0  1.038781  0  0.092259  0  0.089711  0.147337  0  1.039884  0
H  H34  1  0.53635390  0.91750897  0.23499068  1  0  0.132473  0  0.973017  0  0  0.149232  0  1.038999  0  0  0.151541  0  1.038635  0  0.094508  0  0.089912  0.14728  0  1.039588  0
H  H35  1  0.08233990  0.46263429  0.26512507  1  0  0.132737  0  0.9733  0  0  0.149424  0  1.039212  0  0  0.151824  0  1.038736  0  0.092269  0  0.08974  0.147433  0  1.039837  0
H  H36  1  0.37946389  0.16928952  0.68647266  1  0  0.113594  0  0.945088  0  0  0.133808  0  1.006671  0  0  0.135812  0  1.005597  0  0.037111  0  0.09586  0.132099  0  1.007892  0
H  H37  1  0.83031813  0.62120530  0.81320215  1  0  0.112985  0  0.946019  0  0  0.133043  0  1.007659  0  0  0.135049  0  1.006592  0  0.036975  0  0.095422  0.131332  0  1.008876  0
H  H38  1  0.62054812  0.83070983  0.31353547  1  0  0.113649  0  0.94497  0  0  0.133884  0  1.006521  0  0  0.135894  0  1.005441  0  0.037064  0  0.095881  0.132174  0  1.007742  0
H  H39  1  0.16967858  0.37879711  0.18680158  1  0  0.112996  0  0.946124  0  0  0.133094  0  1.007717  0  0  0.135105  0  1.006645  0  0.037112  0  0.095434  0.131383  0  1.008933  0
H  H40  1  0.54168598  0.13404294  0.67959658  1  0  0.119949  0  0.939203  0  0  0.146332  0  0.990024  0  0  0.147581  0  0.989891  0  0.031865  0  0.099635  0.14546  0  0.989995  0
H  H41  1  0.86546214  0.45924137  0.82004716  1  0  0.119734  0  0.939285  0  0  0.145771  0  0.990434  0  0  0.147076  0  0.990233  0  0.037864  0  0.099419  0.144868  0  0.990441  0
H  H42  1  0.45831970  0.86594524  0.32040507  1  0  0.119949  0  0.93922  0  0  0.146327  0  0.990042  0  0  0.147575  0  0.989908  0  0.032374  0  0.099615  0.145444  0  0.990025  0
H  H43  1  0.13453878  0.54076205  0.17996063  1  0  0.119792  0  0.939343  0  0  0.145842  0  0.990474  0  0  0.147149  0  0.990273  0  0.037805  0  0.09945  0.144938  0  0.990482  0
H  H44  1  0.52503803  0.90966499  0.53931777  1  0  0.130709  0  0.983778  0  0  0.141938  0  1.044669  0  0  0.14448  0  1.045455  0  0.086126  0  0.103055  0.140295  0  1.043945  0
H  H45  1  0.09040900  0.47574859  0.96071008  1  0  0.130937  0  0.982704  0  0  0.142529  0  1.043029  0  0  0.145097  0  1.043789  0  0.090793  0  0.103285  0.140881  0  1.042313  0
H  H46  1  0.47496445  0.09033640  0.46067932  1  0  0.130747  0  0.983897  0  0  0.141981  0  1.044758  0  0  0.14452  0  1.045545  0  0.086181  0  0.103067  0.140338  0  1.044035  0
H  H47  1  0.90959198  0.52424568  0.03928512  1  0  0.13085  0  0.982786  0  0  0.14245  0  1.043112  0  0  0.145018  0  1.043871  0  0.090798  0  0.103242  0.140803  0  1.042394  0
H  H48  1  0.40231009  0.59403038  0.45132813  1  0  0.11349  0  0.94349  0  0  0.135834  0  0.999682  0  0  0.136982  0  1.000015  0  0.046793  0  0.094725  0.134908  0  0.999549  0
H  H49  1  0.40632599  0.59808502  0.04885910  1  0  0.11359  0  0.943025  0  0  0.135798  0  0.999299  0  0  0.136957  0  0.99962  0  0.046633  0  0.094741  0.134864  0  0.999177  0
H  H50  1  0.59769203  0.40597406  0.54866934  1  0  0.113511  0  0.943524  0  0  0.135867  0  0.999706  0  0  0.137015  0  1.000038  0  0.04672  0  0.094747  0.134941  0  0.999572  0
H  H51  1  0.59367620  0.40191027  0.95113243  1  0  0.113574  0  0.943024  0  0  0.135821  0  0.999266  0  0  0.13698  0  0.999587  0  0.046616  0  0.09476  0.134886  0  0.999143  0
H  H52  1  0.33084511  0.68194253  0.37031004  1  0  0.106476  0  0.942123  0  0  0.127166  0  1.000767  0  0  0.128629  0  1.000526  0  0.046853  0  0.090543  0.126111  0  1.000975  0
H  H53  1  0.31843256  0.66963530  0.12990662  1  0  0.106909  0  0.941828  0  0  0.127562  0  1.000412  0  0  0.129026  0  1.000179  0  0.047122  0  0.090597  0.1265  0  1.000619  0
H  H54  1  0.66915666  0.31806495  0.62968582  1  0  0.106466  0  0.942163  0  0  0.127152  0  1.000812  0  0  0.128616  0  1.00057  0  0.047009  0  0.090519  0.126097  0  1.001021  0
H  H55  1  0.68157305  0.33036202  0.87009034  1  0  0.106948  0  0.941784  0  0  0.127589  0  1.000397  0  0  0.129053  0  1.000164  0  0.046999  0  0.090615  0.126528  0  1.000601  0
H  H56  1  0.22173350  0.57587548  0.41660230  1  0  0.122525  0  0.969356  0  0  0.135744  0  1.042709  0  0  0.139839  0  1.038637  0  0.105301  0  0.091402  0.132248  0  1.046356  0
H  H57  1  0.42489248  0.77830041  0.08355952  1  0  0.122882  0  0.968976  0  0  0.136268  0  1.042057  0  0  0.14033  0  1.038027  0  0.103996  0  0.091718  0.132789  0  1.045688  0
H  H58  1  0.77826478  0.42412489  0.58339006  1  0  0.122474  0  0.96942  0  0  0.135746  0  1.042727  0  0  0.139842  0  1.038655  0  0.105396  0  0.091452  0.132251  0  1.04637  0
H  H59  1  0.57511434  0.22169793  0.91643510  1  0  0.122873  0  0.969068  0  0  0.136265  0  1.042147  0  0  0.140321  0  1.03812  0  0.10406  0  0.091688  0.132784  0  1.045779  0
H  H60  1  0.20884872  0.02062082  0.72619419  1  0  0.070236  0  0.915795  0  0  0.083716  0  0.976959  0  0  0.083658  0  0.977214  0  0.121719  0  0.141471  0.083713  0  0.976674  0
H  H61  1  0.97891702  0.79121752  0.77387571  1  0  0.06944  0  0.916719  0  0  0.083154  0  0.977466  0  0  0.083091  0  0.977726  0  0.120076  0  0.141203  0.083142  0  0.977226  0
H  H62  1  0.79114934  0.97937854  0.27380531  1  0  0.070227  0  0.915821  0  0  0.083706  0  0.976982  0  0  0.083648  0  0.977238  0  0.121657  0  0.141478  0.083699  0  0.976712  0
H  H63  1  0.02108211  0.20878692  0.22612533  1  0  0.069508  0  0.91673  0  0  0.083225  0  0.977508  0  0  0.083162  0  0.977767  0  0.120046  0  0.141215  0.083214  0  0.977268  0
H  H64  1  0.15660859  0.71367930  0.70838871  1  0  0.119327  0  0.976682  0  0  0.129315  0  1.046913  0  0  0.132615  0  1.044335  0  0.137429  0  0.093381  0.126927  0  1.048548  0
H  H65  1  0.28650858  0.84312278  0.79160832  1  0  0.119667  0  0.977017  0  0  0.12986  0  1.046716  0  0  0.133131  0  1.044206  0  0.136865  0  0.093359  0.127516  0  1.048283  0
H  H66  1  0.84339068  0.28632107  0.29161443  1  0  0.119314  0  0.976693  0  0  0.129297  0  1.04691  0  0  0.132593  0  1.044344  0  0.137409  0  0.09336  0.126917  0  1.048535  0
H  H67  1  0.71349233  0.15688064  0.20839483  1  0  0.119717  0  0.977061  0  0  0.1299  0  1.04675  0  0  0.133171  0  1.044237  0  0.136895  0  0.093382  0.127556  0  1.048315  0
C  C68  1  0.03902351  0.15869501  0.66326100  1  0  -0.364873  0  3.736039  0  0  -0.441092  0  3.974538  0  0  -0.444473  0  3.979776  0  -0.023474  0  -0.240141  -0.438121  0  3.96982  0
C  C69  1  0.84049534  0.96059039  0.83640318  1  0  -0.363999  0  3.735934  0  0  -0.440137  0  3.974423  0  0  -0.443457  0  3.979757  0  -0.019043  0  -0.23979  -0.437201  0  3.969638  0
C  C70  1  0.96096751  0.84129926  0.33674076  1  0  -0.36515  0  3.735826  0  0  -0.441426  0  3.974413  0  0  -0.444786  0  3.97967  0  -0.023727  0  -0.240262  -0.438449  0  3.969686  0
C  C71  1  0.15950151  0.03940795  0.16359933  1  0  -0.364021  0  3.735988  0  0  -0.440207  0  3.974503  0  0  -0.443525  0  3.979836  0  -0.019164  0  -0.23982  -0.437281  0  3.969714  0
C  C72  1  0.96909926  0.01405960  0.62291716  1  0  0.244288  0  3.736531  0  0  0.229298  0  4.011225  0  0  0.241701  0  4.028045  0  0.389394  0  0.09782  0.220939  0  3.999951  0
C  C73  1  0.98539000  0.03048653  0.87673933  1  0  0.244559  0  3.737359  0  0  0.229955  0  4.011613  0  0  0.242354  0  4.028415  0  0.344137  0  0.097849  0.221607  0  4.000326  0
C  C74  1  0.03090272  0.98593467  0.37708483  1  0  0.24451  0  3.736108  0  0  0.229422  0  4.010974  0  0  0.241823  0  4.027789  0  0.390095  0  0.097876  0.221064  0  3.9997  0
C  C75  1  0.01461312  0.96951791  0.12326161  1  0  0.244604  0  3.737159  0  0  0.230077  0  4.01131  0  0  0.242481  0  4.028108  0  0.344039  0  0.097802  0.221729  0  4.000028  0
C  C76  1  0.83759653  0.95538309  0.56896225  1  0  -0.339746  0  3.72251  0  0  -0.365102  0  3.981247  0  0  -0.376437  0  3.999681  0  -0.025348  0  -0.129219  -0.358078  0  3.968896  0
C  C77  1  0.04405889  0.16176267  0.93057114  1  0  -0.340137  0  3.724784  0  0  -0.365416  0  3.983398  0  0  -0.37674  0  4.001832  0  0.023217  0  -0.128741  -0.358406  0  3.97105  0
C  C78  1  0.16239605  0.04460915  0.43103745  1  0  -0.339832  0  3.722582  0  0  -0.365143  0  3.981353  0  0  -0.376468  0  3.999781  0  -0.026397  0  -0.129172  -0.358122  0  3.969003  0
C  C79  1  0.95593640  0.83823770  0.06942146  1  0  -0.340213  0  3.724739  0  0  -0.365539  0  3.983322  0  0  -0.376868  0  4.001754  0  0.023188  0  -0.128724  -0.358527  0  3.970977  0
C  C80  1  0.82654040  0.81311703  0.55082562  1  0  0.268071  0  3.771488  0  0  0.270906  0  4.036775  0  0  0.281671  0  4.05299  0  0.430225  0  0.092288  0.263686  0  4.026052  0
C  C81  1  0.18665968  0.17289489  0.94883405  1  0  0.268321  0  3.77187  0  0  0.271338  0  4.036881  0  0  0.282118  0  4.053082  0  0.432051  0  0.092187  0.264117  0  4.026137  0
C  C82  1  0.17346349  0.18687215  0.44917593  1  0  0.26811  0  3.771628  0  0  0.270989  0  4.036809  0  0  0.281755  0  4.053017  0  0.429913  0  0.092324  0.26377  0  4.026085  0
C  C83  1  0.81333370  0.82711057  0.05116033  1  0  0.268323  0  3.771956  0  0  0.271394  0  4.036918  0  0  0.282174  0  4.05312  0  0.432037  0  0.09226  0.264172  0  4.026178  0
C  C84  1  0.70679760  0.70202870  0.49807477  1  0  -0.35987  0  3.73406  0  0  -0.435908  0  3.966707  0  0  -0.439352  0  3.972817  0  -0.09091  0  -0.238455  -0.433147  0  3.962585  0
C  C85  1  0.29793144  0.29242590  0.00158951  1  0  -0.359358  0  3.732019  0  0  -0.435183  0  3.96475  0  0  -0.438652  0  3.970903  0  -0.062406  0  -0.238679  -0.432388  0  3.960569  0
C  C86  1  0.29320608  0.29795948  0.50193059  1  0  -0.360037  0  3.734318  0  0  -0.436076  0  3.966957  0  0  -0.439512  0  3.973067  0  -0.090639  0  -0.238612  -0.433319  0  3.96283  0
C  C87  1  0.70206592  0.70757956  0.99840943  1  0  -0.359436  0  3.732068  0  0  -0.435249  0  3.964804  0  0  -0.438717  0  3.970956  0  -0.061662  0  -0.238731  -0.432457  0  3.960622  0
C  C88  1  0.44382228  0.09389907  0.69252720  1  0  -0.362627  0  3.737301  0  0  -0.440523  0  3.973893  0  0  -0.443978  0  3.980423  0  -0.055853  0  -0.23583  -0.437683  0  3.969415  0
C  C89  1  0.90586321  0.55695926  0.80727603  1  0  -0.361859  0  3.738962  0  0  -0.43911  0  3.975653  0  0  -0.442672  0  3.982078  0  -0.027799  0  -0.234682  -0.4362  0  3.971235  0
C  C90  1  0.55618368  0.90609520  0.30747802  1  0  -0.36261  0  3.73715  0  0  -0.440518  0  3.973728  0  0  -0.44398  0  3.980253  0  -0.05594  0  -0.235768  -0.437667  0  3.969264  0
C  C91  1  0.09413649  0.44304314  0.19272480  1  0  -0.362057  0  3.739167  0  0  -0.439365  0  3.975862  0  0  -0.442936  0  3.982282  0  -0.027913  0  -0.234779  -0.436456  0  3.971447  0
C  C92  1  0.38035865  0.96059954  0.62420552  1  0  0.237985  0  3.738267  0  0  0.224834  0  4.010418  0  0  0.236504  0  4.027933  0  0.356158  0  0.098612  0.217105  0  3.998449  0
C  C93  1  0.03930233  0.62020816  0.87583508  1  0  0.237948  0  3.740579  0  0  0.224385  0  4.013356  0  0  0.236043  0  4.03094  0  0.346042  0  0.098291  0.216654  0  4.001363  0
C  C94  1  0.61964112  0.03939372  0.37579202  1  0  0.238013  0  3.738166  0  0  0.224824  0  4.010353  0  0  0.236494  0  4.027871  0  0.356085  0  0.098568  0.217095  0  3.998378  0
C  C95  1  0.96070086  0.37980136  0.12416726  1  0  0.23808  0  3.740293  0  0  0.224454  0  4.013168  0  0  0.236123  0  4.030743  0  0.345898  0  0.098386  0.21672  0  4.001177  0
C  C96  1  0.42790372  0.88295967  0.55559718  1  0  -0.350367  0  3.742975  0  0  -0.375384  0  3.997092  0  0  -0.38673  0  4.016385  0  -0.022278  0  -0.128229  -0.368068  0  3.984236  0
C  C97  1  0.11707590  0.57276106  0.94447771  1  0  -0.350919  0  3.74372  0  0  -0.37626  0  3.997629  0  0  -0.387628  0  4.016908  0  -0.057913  0  -0.128347  -0.368939  0  3.98479  0
C  C98  1  0.57209136  0.11703968  0.44440056  1  0  -0.350512  0  3.742947  0  0  -0.375505  0  3.997075  0  0  -0.386847  0  4.016365  0  -0.022493  0  -0.128239  -0.368187  0  3.984218  0
C  C99  1  0.88292658  0.42724032  0.05551739  1  0  -0.350895  0  3.743727  0  0  -0.37623  0  3.997642  0  0  -0.387601  0  4.016918  0  -0.058073  0  -0.128374  -0.368908  0  3.984804  0
C  C100  1  0.32519252  0.76448476  0.51254514  1  0  0.26571  0  3.771383  0  0  0.267603  0  4.035238  0  0  0.276988  0  4.053088  0  0.483734  0  0.094428  0.261279  0  4.023265  0
C  C101  1  0.23573716  0.67530712  0.98763384  1  0  0.265439  0  3.772806  0  0  0.268035  0  4.035783  0  0  0.277435  0  4.05363  0  0.488184  0  0.094275  0.261702  0  4.0238  0
C  C102  1  0.67480285  0.23552069  0.48745218  1  0  0.265713  0  3.771435  0  0  0.267585  0  4.035347  0  0  0.276972  0  4.053195  0  0.483494  0  0.094305  0.261261  0  4.023373  0
C  C103  1  0.76426333  0.32469427  0.01236097  1  0  0.265477  0  3.772761  0  0  0.268076  0  4.035739  0  0  0.277476  0  4.053584  0  0.488468  0  0.09432  0.261742  0  4.023757  0
C  C104  1  0.31985502  0.64765955  0.43346025  1  0  -0.350338  0  3.725699  0  0  -0.424087  0  3.956832  0  0  -0.427493  0  3.963465  0  -0.107745  0  -0.234321  -0.421304  0  3.952643  0
C  C105  1  0.35278748  0.68051035  0.06674430  1  0  -0.350806  0  3.725747  0  0  -0.424795  0  3.956795  0  0  -0.428187  0  3.963463  0  -0.096968  0  -0.234122  -0.42199  0  3.952562  0
C  C106  1  0.68014092  0.35234387  0.56653820  1  0  -0.35023  0  3.725813  0  0  -0.424035  0  3.956969  0  0  -0.427441  0  3.963599  0  -0.107765  0  -0.234291  -0.421252  0  3.952777  0
C  C107  1  0.64721457  0.31948900  0.93325045  1  0  -0.350853  0  3.725768  0  0  -0.42488  0  3.956844  0  0  -0.428267  0  3.963514  0  -0.097094  0  -0.234174  -0.422084  0  3.952636  0
C  C108  1  0.16909993  0.91524126  0.68498286  1  0  0.223841  0  3.616435  0  0  0.169646  0  3.874543  0  0  0.179338  0  3.885955  0  0.683557  0  0.135345  0.163153  0  3.866784  0
C  C109  1  0.08455684  0.83095073  0.81506000  1  0  0.223373  0  3.6176  0  0  0.169823  0  3.874724  0  0  0.179503  0  3.88615  0  0.684195  0  0.135632  0.163328  0  3.866948  0
C  C110  1  0.83089813  0.08475809  0.31501664  1  0  0.223753  0  3.616317  0  0  0.169562  0  3.874412  0  0  0.179252  0  3.885824  0  0.683635  0  0.135313  0.163064  0  3.866657  0
C  C111  1  0.91544073  0.16905574  0.18494376  1  0  0.223339  0  3.617448  0  0  0.169675  0  3.87471  0  0  0.179361  0  3.886133  0  0.683981  0  0.135698  0.163178  0  3.866936  0
C  C112  1  0.18031811  0.81960913  0.75001020  1  0  -0.266274  0  3.6268  0  0  -0.320551  0  3.88097  0  0  -0.323888  0  3.8877  0  -0.104435  0  -0.164813  -0.318624  0  3.876776  0
C  C113  1  0.81968017  0.18039124  0.24999147  1  0  -0.266252  0  3.626899  0  0  -0.320481  0  3.881099  0  0  -0.32382  0  3.887833  0  -0.104542  0  -0.164766  -0.318558  0  3.8769  0
N  N114  1  0.22018689  0.76798543  0.55301983  1  0  -0.27095  0  3.164337  0  0  -0.237678  0  3.47589  0  0  -0.243521  0  3.480301  0  -0.735611  0  -0.271486  -0.234546  0  3.473458  0
N  N115  1  0.23217079  0.78017272  0.94722299  1  0  -0.271433  0  3.165677  0  0  -0.238411  0  3.47705  0  0  -0.24427  0  3.481466  0  -0.735399  0  -0.271788  -0.235243  0  3.474568  0
N  N116  1  0.77980719  0.23201393  0.44697777  1  0  -0.271002  0  3.164381  0  0  -0.237686  0  3.475868  0  0  -0.243529  0  3.480281  0  -0.735452  0  -0.271425  -0.234552  0  3.473431  0
N  N117  1  0.76782778  0.21983375  0.05277560  1  0  -0.271463  0  3.165442  0  0  -0.238422  0  3.476761  0  0  -0.244275  0  3.481166  0  -0.73549  0  -0.271776  -0.235252  0  3.47428  0
N  N118  1  0.25464872  0.88814054  0.61983437  1  0  -0.045292  0  3.47713  0  0  0.032868  0  3.7019  0  0  0.019721  0  3.726902  0  -0.770404  0  -0.150948  0.041384  0  3.685279  0
N  N119  1  0.11178518  0.74574540  0.88033403  1  0  -0.043792  0  3.478376  0  0  0.034282  0  3.702913  0  0  0.021138  0  3.727932  0  -0.774592  0  -0.150658  0.042793  0  3.686283  0
N  N120  1  0.74534892  0.11185678  0.38016545  1  0  -0.045296  0  3.477162  0  0  0.032884  0  3.701908  0  0  0.019741  0  3.726908  0  -0.770454  0  -0.150946  0.041401  0  3.685286  0
N  N121  1  0.88821503  0.25426412  0.11966789  1  0  -0.043761  0  3.477967  0  0  0.034361  0  3.702553  0  0  0.021209  0  3.72757  0  -0.774113  0  -0.150702  0.042874  0  3.685922  0
N  N122  1  0.94535317  0.78414401  0.59065469  1  0  -0.29797  0  3.103639  0  0  -0.269287  0  3.416891  0  0  -0.275452  0  3.420781  0  -0.731107  0  -0.279367  -0.266275  0  3.414769  0
N  N123  1  0.21583668  0.05433662  0.90922049  1  0  -0.2988  0  3.103573  0  0  -0.270098  0  3.416885  0  0  -0.27627  0  3.420739  0  -0.736606  0  -0.279794  -0.26706  0  3.414734  0
N  N124  1  0.05465080  0.21585026  0.40934891  1  0  -0.298089  0  3.103514  0  0  -0.269359  0  3.416697  0  0  -0.27552  0  3.420585  0  -0.730781  0  -0.279329  -0.266345  0  3.41457  0
N  N125  1  0.78416203  0.94566578  0.09077687  1  0  -0.298626  0  3.103542  0  0  -0.269993  0  3.416883  0  0  -0.27616  0  3.420731  0  -0.73671  0  -0.279803  -0.266956  0  3.414736  0
N  N126  1  0.03010399  0.90795226  0.63537072  1  0  -0.063586  0  3.511002  0  0  0.013688  0  3.74192  0  0  0.000684  0  3.766355  0  -0.839098  0  -0.159711  0.022037  0  3.725483  0
N  N127  1  0.09180776  0.96966631  0.86449716  1  0  -0.063299  0  3.51048  0  0  0.013334  0  3.741624  0  0  0.00035  0  3.766027  0  -0.838275  0  -0.160083  0.021691  0  3.725181  0
N  N128  1  0.96989677  0.09204099  0.36462896  1  0  -0.063335  0  3.510384  0  0  0.013923  0  3.741358  0  0  0.000922  0  3.765791  0  -0.839037  0  -0.159733  0.022272  0  3.724922  0
N  N129  1  0.90819337  0.03033812  0.13550017  1  0  -0.063588  0  3.510342  0  0  0.013076  0  3.741504  0  0  8.8e-05  0  3.765907  0  -0.8381  0  -0.160187  0.021436  0  3.725062  0
Cl  Cl130  1  0.07193551  0.47463659  0.62105630  1  0  -0.562752  0  1.261647  0  0  -0.493885  0  1.594524  0  0  -0.508868  0  1.563631  0  -0.664979  0  -0.319228  -0.482804  0  1.613823  0
Cl  Cl131  1  0.52527169  0.92801810  0.87872973  1  0  -0.561953  0  1.264628  0  0  -0.493237  0  1.597739  0  0  -0.508155  0  1.566776  0  -0.664459  0  -0.318374  -0.482143  0  1.617032  0
Cl  Cl132  1  0.92806313  0.52536073  0.37894299  1  0  -0.56273  0  1.261656  0  0  -0.493859  0  1.59454  0  0  -0.508839  0  1.563645  0  -0.664857  0  -0.319214  -0.482779  0  1.61384  0
Cl  Cl133  1  0.47472637  0.07198126  0.12127243  1  0  -0.561956  0  1.264653  0  0  -0.493236  0  1.597772  0  0  -0.508157  0  1.566807  0  -0.664467  0  -0.318383  -0.482144  0  1.617063  0
