# generated using pymatgen
data_MnH10C6O5
_symmetry_space_group_name_H-M   'P 1'
_cell_length_a   4.66176568
_cell_length_b   7.99455158
_cell_length_c   10.36611982
_cell_angle_alpha   108.11483692
_cell_angle_beta   90.00002667
_cell_angle_gamma   89.99996724
_symmetry_Int_Tables_number   1
_chemical_formula_structural   MnH10C6O5
_chemical_formula_sum   'Mn2 H20 C12 O10'
_cell_volume   367.18362761
_cell_formula_units_Z   2
loop_
 _symmetry_equiv_pos_site_id
 _symmetry_equiv_pos_as_xyz
  1  'x, y, z'
loop_
 _atom_site_type_symbol
 _atom_site_label
 _atom_site_symmetry_multiplicity
 _atom_site_fract_x
 _atom_site_fract_y
 _atom_site_fract_z
 _atom_site_occupancy
 _atom_site_hle17_ddec_charge
 _atom_site_hle17_ddec_spin_density
 _atom_site_hle17_ddec_sum_bond_order
 _atom_site_hle17_magmom
 _atom_site_hse06_10hf_ddec_charge
 _atom_site_hse06_10hf_ddec_spin_density
 _atom_site_hse06_10hf_ddec_sum_bond_order
 _atom_site_hse06_10hf_magmom
 _atom_site_hse06_ddec_charge
 _atom_site_hse06_ddec_spin_density
 _atom_site_hse06_ddec_sum_bond_order
 _atom_site_hse06_magmom
 _atom_site_pbe_cm5_charge
 _atom_site_pbe_ddec_charge
 _atom_site_pbe_ddec_spin_density
 _atom_site_pbe_ddec_sum_bond_order
 _atom_site_pbe_magmom
Mn  Mn0  1  0.82981882  0.20036495  0.57016559  1  1.284357  4.794817  1.650532  4.691  1.128712  4.721519  2.139904  4.557  1.18446  4.762492  2.067982  4.616  0.610217  1.084985  4.679022  2.192368  4.498
Mn  Mn1  1  0.32981263  0.79962955  0.42983173  1  1.284416  4.794791  1.650482  4.691  1.128742  4.721498  2.139873  4.557  1.1845  4.762468  2.067944  4.616  0.610237  1.085016  4.679001  2.192335  4.498
H  H2  1  0.00271573  0.22077967  0.25711623  1  0.121109  2.8e-05  0.936905  0.001  0.134821  0.00048  0.997639  0.001  0.137824  0.000162  0.996094  0.001  0.107758  0.132536  0.000851  0.998981  0.002
H  H3  1  0.50271939  0.77922151  0.74288455  1  0.121132  3.3e-05  0.93694  0.001  0.134812  0.00048  0.997713  0.001  0.137815  0.000162  0.996166  0.001  0.107759  0.132537  0.000851  0.999041  0.002
H  H4  1  0.16056156  0.02018885  0.16719079  1  0.105982  0.000242  0.946746  0.001  0.124529  0.000607  1.004704  0.001  0.125666  0.000348  1.005541  0.001  0.104822  0.123541  0.000977  1.004321  0.001
H  H5  1  0.66055653  0.97981491  0.83281064  1  0.105961  0.000249  0.946753  0.001  0.124513  0.000607  1.00472  0.001  0.125651  0.000348  1.00555  0.001  0.1048  0.123525  0.000977  1.004333  0.001
H  H6  1  0.61159657  0.19215733  0.13677211  1  0.056054  -8.8e-05  0.96115  0.0  0.074204  -5e-05  1.026351  0.0  0.07498  -6.7e-05  1.02643  0.0  0.085832  0.073645  -5e-06  1.026287  0.0
H  H7  1  0.11159296  0.80784513  0.86322899  1  0.056043  -5.9e-05  0.961199  0.0  0.074225  -5e-05  1.026359  0.0  0.075006  -6.7e-05  1.026429  0.0  0.08583  0.07366  -5e-06  1.026292  0.0
H  H8  1  0.41106305  0.38728128  0.20277048  1  0.070639  -0.000517  0.948965  0.0  0.088875  -0.000524  1.010667  0.0  0.09036  -0.000542  1.010242  0.0  0.091985  0.087704  -0.000487  1.01105  0.0
H  H9  1  0.91106263  0.61272109  0.79723067  1  0.070601  -0.000492  0.948962  0.0  0.088786  -0.000524  1.010719  0.0  0.090268  -0.000542  1.010297  0.0  0.091971  0.087613  -0.000487  1.011097  0.0
H  H10  1  0.23615346  0.08021640  0.95359476  1  0.059391  -5.6e-05  0.949945  0.0  0.081278  1.2e-05  1.008986  0.0  0.081374  -9e-06  1.010418  0.0  0.088908  0.081151  3.4e-05  1.008022  0.0
H  H11  1  0.73614983  0.91978340  0.04640670  1  0.059382  -3.5e-05  0.949942  0.0  0.081298  1.2e-05  1.008967  0.0  0.081394  -9e-06  1.010397  0.0  0.0889  0.081171  3.4e-05  1.008004  0.0
H  H12  1  0.04587520  0.27745291  0.01973380  1  0.057631  -5.2e-05  0.957722  0.0  0.077429  -1.4e-05  1.01968  0.0  0.07804  -3.2e-05  1.019937  0.0  0.087391  0.076971  2.5e-05  1.019442  0.0
H  H13  1  0.54587486  0.72254825  0.98026602  1  0.057546  -4.5e-05  0.957687  0.0  0.077385  -1.4e-05  1.019633  0.0  0.077996  -3.2e-05  1.01989  0.0  0.08736  0.076926  2.5e-05  1.019395  0.0
H  H14  1  0.46551488  0.44803164  0.97367286  1  0.105826  0.000228  0.936501  0.0  0.12522  0.000525  0.993094  0.001  0.126407  0.000353  0.993951  0.0  0.104165  0.124293  0.000766  0.992652  0.001
H  H15  1  0.96551159  0.55196809  0.02632670  1  0.105848  0.000232  0.936553  0.0  0.125247  0.000525  0.993133  0.001  0.126435  0.000353  0.99399  0.0  0.104172  0.12432  0.000766  0.992691  0.001
H  H16  1  0.66570304  0.25558340  0.91043759  1  0.102744  -4.2e-05  0.964637  0.0  0.114742  0.000155  1.033724  0.001  0.117379  1.1e-05  1.032146  0.0  0.100818  0.112912  0.000326  1.03485  0.001
H  H17  1  0.16570299  0.74441510  0.08956065  1  0.102764  -4.3e-05  0.964618  0.0  0.114758  0.000155  1.033718  0.001  0.117395  1e-05  1.032141  0.0  0.10082  0.112928  0.000326  1.034845  0.001
H  H18  1  0.26052372  0.40872289  0.60738981  1  0.411493  -0.00061  0.901522  0.0  0.380458  0.000141  0.969269  0.001  0.391428  -0.00013  0.953501  0.001  0.29669  0.372696  0.000396  0.980356  0.001
H  H19  1  0.76052076  0.59127558  0.39261038  1  0.411517  -0.000611  0.901506  0.0  0.380466  0.000141  0.969262  0.001  0.391437  -0.00013  0.953492  0.001  0.296696  0.372705  0.000396  0.980348  0.001
H  H20  1  0.04902008  0.54927740  0.57677230  1  0.429692  0.000275  0.863689  0.002  0.400849  0.001202  0.928171  0.003  0.410727  0.000746  0.913876  0.003  0.304764  0.393766  0.001647  0.938406  0.003
H  H21  1  0.54901944  0.45072113  0.42322882  1  0.429666  0.000273  0.8637  0.002  0.400829  0.001202  0.928189  0.003  0.410703  0.000746  0.913901  0.003  0.304764  0.393746  0.001647  0.938424  0.003
C  C22  1  0.34148446  0.14065678  0.35843913  1  0.761454  0.0179  3.750997  0.018  0.702711  0.028836  4.05283  0.026  0.740892  0.021143  4.04211  0.02  0.241551  0.674776  0.037477  4.060482  0.033
C  C23  1  0.84148364  0.85934299  0.64156042  1  0.761475  0.017915  3.751087  0.018  0.702694  0.02884  4.052979  0.026  0.74089  0.021145  4.042234  0.02  0.24156  0.674754  0.037482  4.060623  0.033
C  C24  1  0.21184681  0.15553517  0.22931491  1  -0.278871  0.000126  3.665935  0.0  -0.317626  0.001135  3.91829  0.001  -0.324466  0.000414  3.926431  0.001  -0.164038  -0.312744  0.001902  3.913292  0.001
C  C25  1  0.71184614  0.84446726  0.77068428  1  -0.27891  0.000121  3.66601  0.0  -0.317665  0.001134  3.918395  0.001  -0.324501  0.000414  3.926524  0.001  -0.164053  -0.312785  0.001902  3.913377  0.001
C  C26  1  0.39253792  0.24592137  0.14793610  1  -0.085227  7.8e-05  3.691762  0.0  -0.129315  0.000282  3.95444  0.0  -0.129349  0.000111  3.967365  0.0  -0.170989  -0.129006  0.000483  3.945247  0.001
C  C27  1  0.89253957  0.75408101  0.85206409  1  -0.085158  -2e-05  3.691756  0.0  -0.129197  0.000284  3.954412  0.0  -0.129228  0.00011  3.96733  0.0  -0.170962  -0.128871  0.000483  3.945198  0.001
C  C28  1  0.26336148  0.22135146  0.00798665  1  -0.077846  0.000156  3.701734  0.0  -0.121688  0.000431  3.966206  0.0  -0.121519  0.000271  3.979988  0.0  -0.168385  -0.121513  0.000619  3.956312  0.001
C  C29  1  0.76336754  0.77864701  0.99201450  1  -0.07775  0.00012  3.701687  0.0  -0.121678  0.00043  3.966238  0.0  -0.121508  0.000271  3.980024  0.0  -0.168361  -0.121507  0.000619  3.956339  0.001
C  C30  1  0.44390509  0.30542370  0.92246772  1  -0.281612  0.000664  3.685737  0.001  -0.323998  0.001258  3.944915  0.001  -0.330245  0.000756  3.952975  0.001  -0.165956  -0.319621  0.001817  3.939489  0.001
C  C31  1  0.94390600  0.69457472  0.07753152  1  -0.281628  0.000678  3.685895  0.001  -0.324072  0.001257  3.945074  0.001  -0.33032  0.000759  3.95314  0.001  -0.165979  -0.319696  0.001817  3.93965  0.001
C  C32  1  0.33058959  0.28478393  0.78156201  1  0.73548  0.010206  3.776523  0.011  0.68283  0.016866  4.077267  0.016  0.718236  0.012614  4.069499  0.013  0.233712  0.657865  0.02132  4.081868  0.019
C  C33  1  0.83058634  0.71521320  0.21843690  1  0.735258  0.010213  3.776849  0.011  0.682779  0.016867  4.077325  0.016  0.718187  0.012612  4.069555  0.013  0.233719  0.657815  0.021321  4.081926  0.019
O  O34  1  0.58271708  0.21275182  0.39839985  1  -0.660017  0.035544  2.066108  0.023  -0.582569  0.04545  2.322985  0.03  -0.613495  0.039788  2.309379  0.025  -0.290563  -0.560398  0.051222  2.332345  0.035
O  O35  1  0.08271751  0.78724538  0.60159806  1  -0.660073  0.035552  2.066196  0.023  -0.582537  0.045455  2.322978  0.03  -0.613514  0.03979  2.309431  0.025  -0.290571  -0.56036  0.051225  2.332339  0.035
O  O36  1  0.19906425  0.05408889  0.42373289  1  -0.723562  0.048857  2.075482  0.021  -0.652741  0.064783  2.380818  0.03  -0.684644  0.058306  2.359367  0.025  -0.310106  -0.628256  0.071168  2.394379  0.034
O  O37  1  0.69906114  0.94591090  0.57626471  1  -0.723527  0.048847  2.075439  0.021  -0.652681  0.064778  2.380742  0.03  -0.684598  0.058301  2.35933  0.025  -0.310096  -0.628273  0.071167  2.394465  0.034
O  O38  1  0.49024577  0.34322663  0.70309547  1  -0.697867  0.028082  2.03269  0.015  -0.624771  0.036388  2.290904  0.02  -0.654779  0.031996  2.274987  0.016  -0.319637  -0.602483  0.040843  2.301103  0.024
O  O39  1  0.99024694  0.65677046  0.29690250  1  -0.697789  0.02807  2.032827  0.015  -0.624744  0.036392  2.290965  0.02  -0.654758  0.031998  2.275051  0.016  -0.319612  -0.602464  0.040847  2.301178  0.024
O  O40  1  0.08489515  0.21777577  0.74843415  1  -0.646606  0.03348  2.027168  0.024  -0.577189  0.040659  2.289119  0.028  -0.608124  0.035881  2.277929  0.024  -0.296586  -0.554481  0.045531  2.296083  0.033
O  O41  1  0.58489615  0.78222406  0.25156440  1  -0.646537  0.033483  2.027274  0.024  -0.577156  0.040658  2.289109  0.028  -0.608088  0.035879  2.277913  0.024  -0.296608  -0.554452  0.04553  2.296072  0.033
O  O42  1  0.08557924  0.42207292  0.55470673  1  -0.850236  0.030703  1.926267  0.019  -0.786779  0.039863  2.142667  0.025  -0.811154  0.0354  2.108231  0.021  -0.572342  -0.768321  0.044069  2.166601  0.028
O  O43  1  0.58557850  0.57792560  0.44529343  1  -0.850244  0.030707  1.926282  0.019  -0.786787  0.039864  2.142697  0.025  -0.81116  0.0354  2.108266  0.021  -0.572359  -0.768325  0.04407  2.166631  0.028
