# generated using pymatgen
data_SrH17C16(NO5)2
_symmetry_space_group_name_H-M   'P 1'
_cell_length_a   8.58346172
_cell_length_b   10.30192143
_cell_length_c   11.46320389
_cell_angle_alpha   87.35260707
_cell_angle_beta   88.87115180
_cell_angle_gamma   75.66992345
_symmetry_Int_Tables_number   1
_chemical_formula_structural   SrH17C16(NO5)2
_chemical_formula_sum   'Sr2 H34 C32 N4 O20'
_cell_volume   981.02429190
_cell_formula_units_Z   2
loop_
 _symmetry_equiv_pos_site_id
 _symmetry_equiv_pos_as_xyz
  1  'x, y, z'
loop_
 _atom_site_type_symbol
 _atom_site_label
 _atom_site_symmetry_multiplicity
 _atom_site_fract_x
 _atom_site_fract_y
 _atom_site_fract_z
 _atom_site_occupancy
 _atom_site_hle17_bader_spin_density
 _atom_site_hle17_ddec_charge
 _atom_site_hle17_ddec_spin_density
 _atom_site_hle17_ddec_sum_bond_order
 _atom_site_hle17_magmom
 _atom_site_hse06_10hf_bader_spin_density
 _atom_site_hse06_10hf_ddec_charge
 _atom_site_hse06_10hf_ddec_spin_density
 _atom_site_hse06_10hf_ddec_sum_bond_order
 _atom_site_hse06_10hf_magmom
 _atom_site_hse06_bader_spin_density
 _atom_site_hse06_ddec_charge
 _atom_site_hse06_ddec_spin_density
 _atom_site_hse06_ddec_sum_bond_order
 _atom_site_hse06_magmom
 _atom_site_pbe_bader_spin_density
 _atom_site_pbe_cm5_charge
 _atom_site_pbe_ddec_charge
 _atom_site_pbe_ddec_spin_density
 _atom_site_pbe_ddec_sum_bond_order
 _atom_site_pbe_magmom
Sr  Sr0  1  0.30289946  0.47594389  0.96359326  1  0  1.6105  0  1.121539  0  0  1.47714  0  1.48119  0  0  1.513151  0  1.438346  0  0  0.950229  1.449015  0  1.513091  0
Sr  Sr1  1  0.69710607  0.52406318  0.03640558  1  0  1.610515  0  1.121481  0  0  1.477158  0  1.481111  0  0  1.513175  0  1.43826  0  0  0.950207  1.449033  0  1.513008  0
H  H2  1  0.48384469  0.95824574  0.79083584  1  0  0.384361  0  0.926193  0  0  0.351029  0  1.009045  0  0  0.364027  0  0.994491  0  0  0.293307  0.341692  0  1.017811  0
H  H3  1  0.51615048  0.04176587  0.20916229  1  0  0.384269  0  0.926252  0  0  0.350961  0  1.009074  0  0  0.363961  0  0.994577  0  0  0.293311  0.341626  0  1.017831  0
H  H4  1  0.37937232  0.68406777  0.16012940  1  0  0.418462  0  0.861609  0  0  0.386162  0  0.940033  0  0  0.39603  0  0.925195  0  0  0.310008  0.378912  0  0.950944  0
H  H5  1  0.62063639  0.31593021  0.83987055  1  0  0.418461  0  0.86159  0  0  0.386162  0  0.94003  0  0  0.396031  0  0.925191  0  0  0.310016  0.378904  0  0.950941  0
H  H6  1  0.48553792  0.56004536  0.23091422  1  0  0.440153  0  0.844091  0  0  0.4159  0  0.894734  0  0  0.426086  0  0.87958  0  0  0.312672  0.408545  0  0.905709  0
H  H7  1  0.51446853  0.43994592  0.76907905  1  0  0.440149  0  0.844084  0  0  0.415898  0  0.894726  0  0  0.426086  0  0.879567  0  0  0.3127  0.408542  0  0.905701  0
H  H8  1  0.10561367  0.40114608  0.16855870  1  0  0.427638  0  0.87846  0  0  0.395161  0  0.944983  0  0  0.405672  0  0.929829  0  0  0.300386  0.387697  0  0.955736  0
H  H9  1  0.89438366  0.59885960  0.83142998  1  0  0.427694  0  0.878385  0  0  0.395195  0  0.944941  0  0  0.405707  0  0.929788  0  0  0.300363  0.387725  0  0.955704  0
H  H10  1  0.12876426  0.74032145  0.05750263  1  0  0.392005  0  0.92957  0  0  0.352482  0  1.010249  0  0  0.362924  0  0.995411  0  0  0.286005  0.345046  0  1.020788  0
H  H11  1  0.87123319  0.25968510  0.94249562  1  0  0.392045  0  0.929529  0  0  0.352508  0  1.010231  0  0  0.362948  0  0.995395  0  0  0.286007  0.34507  0  1.020773  0
H  H12  1  0.02089568  0.64022346  0.10595124  1  0  0.427681  0  0.865976  0  0  0.399111  0  0.925964  0  0  0.40923  0  0.911102  0  0  0.305992  0.39183  0  0.936644  0
H  H13  1  0.97910705  0.35978077  0.89405041  1  0  0.427699  0  0.86595  0  0  0.399125  0  0.92594  0  0  0.409243  0  0.911082  0  0  0.306005  0.39184  0  0.936631  0
H  H14  1  0.17804441  0.18980793  0.06039461  1  0  0.326115  0  0.90229  0  0  0.302742  0  0.970798  0  0  0.312332  0  0.962116  0  0  0.318082  0.295831  0  0.97716  0
H  H15  1  0.82195351  0.81019072  0.93960129  1  0  0.326138  0  0.902191  0  0  0.30272  0  0.970776  0  0  0.312308  0  0.962099  0  0  0.31803  0.295809  0  0.977148  0
H  H16  1  0.76381689  0.24433544  0.33629519  1  0  0.125895  0  0.945402  0  0  0.133807  0  1.007254  0  0  0.137691  0  1.005262  0  0  0.109737  0.131088  0  1.008808  0
H  H17  1  0.23618643  0.75566176  0.66371367  1  0  0.125909  0  0.94534  0  0  0.133809  0  1.007218  0  0  0.13769  0  1.005229  0  0  0.109748  0.131088  0  1.008778  0
H  H18  1  0.95729555  0.22042764  0.17106238  1  0  0.100494  0  0.962829  0  0  0.112293  0  1.024056  0  0  0.115164  0  1.022211  0  0  0.110003  0.110197  0  1.025513  0
H  H19  1  0.04269710  0.77957514  0.82894313  1  0  0.100444  0  0.962795  0  0  0.112288  0  1.023984  0  0  0.115159  0  1.022138  0  0  0.109994  0.110192  0  1.025444  0
H  H20  1  0.12273812  0.79741031  0.26004122  1  0  0.089039  0  0.960355  0  0  0.10112  0  1.02111  0  0  0.104004  0  1.018604  0  0  0.104456  0.099045  0  1.022941  0
H  H21  1  0.87726466  0.20259390  0.73996218  1  0  0.088982  0  0.960368  0  0  0.101094  0  1.021101  0  0  0.103978  0  1.018593  0  0  0.104439  0.099013  0  1.022936  0
H  H22  1  0.92917083  0.82002129  0.42262566  1  0  0.103983  0  0.976522  0  0  0.11326  0  1.040531  0  0  0.115502  0  1.041517  0  0  0.101945  0.111804  0  1.039607  0
H  H23  1  0.07083737  0.17997964  0.57737856  1  0  0.103998  0  0.976526  0  0  0.11328  0  1.040522  0  0  0.115522  0  1.041507  0  0  0.101952  0.111825  0  1.039602  0
H  H24  1  0.66818727  0.86697516  0.49359969  1  0  0.08717  0  0.924671  0  0  0.105166  0  0.985678  0  0  0.105816  0  0.984687  0  0  0.100723  0.104558  0  0.986555  0
H  H25  1  0.33181113  0.13301964  0.50638499  1  0  0.087279  0  0.924605  0  0  0.105291  0  0.985599  0  0  0.105942  0  0.984607  0  0  0.100792  0.104685  0  0.986474  0
H  H26  1  0.60289694  0.98219956  0.60769364  1  0  0.110032  0  0.946392  0  0  0.127919  0  1.006718  0  0  0.129055  0  1.005619  0  0  0.108069  0.126992  0  1.007655  0
H  H27  1  0.39708728  0.01778610  0.39229705  1  0  0.109952  0  0.946518  0  0  0.127934  0  1.006754  0  0  0.12907  0  1.005665  0  0  0.108096  0.127009  0  1.007687  0
H  H28  1  0.81159586  0.89792211  0.59510420  1  0  0.076762  0  0.961915  0  0  0.093182  0  1.030921  0  0  0.092239  0  1.033133  0  0  0.092884  0.093911  0  1.029143  0
H  H29  1  0.18839171  0.10206525  0.40489330  1  0  0.076832  0  0.961854  0  0  0.093278  0  1.030837  0  0  0.092335  0  1.033049  0  0  0.092897  0.094004  0  1.029065  0
H  H30  1  0.26666952  0.55362609  0.50996384  1  0  0.110136  0  0.929428  0  0  0.120044  0  0.985362  0  0  0.124416  0  0.982154  0  0  0.110295  0.116855  0  0.987829  0
H  H31  1  0.73335045  0.44636922  0.49004108  1  0  0.110279  0  0.929393  0  0  0.120132  0  0.985376  0  0  0.124506  0  0.982168  0  0  0.110361  0.116944  0  0.987844  0
H  H32  1  0.86549519  0.44318297  0.68281135  1  0  0.096833  0  0.964797  0  0  0.105178  0  1.030017  0  0  0.109079  0  1.026949  0  0  0.10477  0.102229  0  1.032518  0
H  H33  1  0.13451753  0.55681280  0.31718941  1  0  0.096871  0  0.964676  0  0  0.105254  0  1.029867  0  0  0.109152  0  1.026805  0  0  0.104819  0.102305  0  1.032365  0
H  H34  1  0.28807545  0.30424543  0.18555933  1  0  0.432649  0  0.847592  0  0  0.404124  0  0.911141  0  0  0.415148  0  0.894916  0  0  0.310563  0.396211  0  0.922794  0
H  H35  1  0.71192113  0.69576420  0.81443273  1  0  0.432763  0  0.847428  0  0  0.404175  0  0.911066  0  0  0.415197  0  0.894843  0  0  0.310547  0.396266  0  0.92271  0
C  C36  1  0.83180114  0.03419036  0.38940943  1  0  0.28696  0  3.806101  0  0  0.274217  0  4.067886  0  0  0.288235  0  4.082754  0  0  0.090658  0.264828  0  4.057195  0
C  C37  1  0.16820059  0.96580798  0.61059421  1  0  0.286954  0  3.80621  0  0  0.274074  0  4.06816  0  0  0.288092  0  4.083027  0  0  0.090649  0.264675  0  4.057477  0
C  C38  1  0.84414310  0.14705808  0.31927067  1  0  -0.183604  0  3.733757  0  0  -0.207174  0  3.998814  0  0  -0.213985  0  4.017861  0  0  -0.10216  -0.202831  0  3.985653  0
C  C39  1  0.15585580  0.85294240  0.68073211  1  0  -0.183667  0  3.733754  0  0  -0.207193  0  3.998901  0  0  -0.214002  0  4.017944  0  0  -0.102188  -0.202843  0  3.985741  0
C  C40  1  0.95291676  0.13286245  0.22694276  1  0  -0.078465  0  3.756888  0  0  -0.104412  0  4.014832  0  0  -0.102726  0  4.034578  0  0  -0.090384  -0.105281  0  4.001185  0
C  C41  1  0.04708432  0.86713889  0.77306080  1  0  -0.078341  0  3.756858  0  0  -0.104353  0  4.0148  0  0  -0.102664  0  4.034543  0  0  -0.090337  -0.105219  0  4.00115  0
C  C42  1  0.05307560  0.00623660  0.20221369  1  0  -0.055469  0  3.835622  0  0  -0.039924  0  4.081951  0  0  -0.046443  0  4.106296  0  0  -0.027653  -0.035829  0  4.065357  0
C  C43  1  0.94691471  0.99376630  0.79779276  1  0  -0.055567  0  3.835541  0  0  -0.039937  0  4.08183  0  0  -0.046459  0  4.106172  0  0  -0.027699  -0.035846  0  4.065236  0
C  C44  1  0.04278118  0.89530834  0.27520881  1  0  -0.047211  0  3.74106  0  0  -0.070407  0  3.989463  0  0  -0.067624  0  4.007943  0  0  -0.083138  -0.071983  0  3.976468  0
C  C45  1  0.95722143  0.10469096  0.72479215  1  0  -0.047208  0  3.741094  0  0  -0.070448  0  3.989475  0  0  -0.067665  0  4.007958  0  0  -0.083164  -0.07202  0  3.976477  0
C  C46  1  0.93372691  0.90804981  0.36778940  1  0  -0.203974  0  3.760298  0  0  -0.22331  0  4.013719  0  0  -0.230667  0  4.034895  0  0  -0.109645  -0.218108  0  3.998303  0
C  C47  1  0.06627812  0.09194934  0.63221324  1  0  -0.203986  0  3.760289  0  0  -0.223283  0  4.013758  0  0  -0.230642  0  4.034936  0  0  -0.10968  -0.21808  0  3.998344  0
C  C48  1  0.16152322  0.98824923  0.10214213  1  0  0.36409  0  3.720734  0  0  0.32495  0  3.994217  0  0  0.341832  0  4.006156  0  0  0.230249  0.314078  0  3.985601  0
C  C49  1  0.83846804  0.01175370  0.89785731  1  0  0.36419  0  3.720553  0  0  0.324959  0  3.994114  0  0  0.341846  0  4.006046  0  0  0.23023  0.314096  0  3.985489  0
C  C50  1  0.32084635  0.89726408  0.96153777  1  0  8.8e-05  0  3.771574  0  0  -0.009464  0  4.038029  0  0  -0.010579  0  4.058041  0  0  0.085823  -0.008614  0  4.024344  0
C  C51  1  0.67915103  0.10274249  0.03845873  1  0  3e-05  0  3.771639  0  0  -0.009428  0  4.037997  0  0  -0.010538  0  4.058015  0  0  0.085789  -0.008575  0  4.024305  0
C  C52  1  0.30454705  0.03578109  0.94973492  1  0  -0.018417  0  3.730905  0  0  -0.034585  0  3.994375  0  0  -0.037929  0  4.01566  0  0  0.084124  -0.03234  0  3.979812  0
C  C53  1  0.69544710  0.96422961  0.05026154  1  0  -0.018231  0  3.730669  0  0  -0.034499  0  3.994234  0  0  -0.037855  0  4.015543  0  0  0.084217  -0.032261  0  3.979673  0
C  C54  1  0.37429309  0.12221443  0.86969944  1  0  0.650389  0  3.893428  0  0  0.601829  0  4.196544  0  0  0.63593  0  4.186419  0  0  0.23226  0.578487  0  4.202918  0
C  C55  1  0.62570015  0.87779035  0.13030162  1  0  0.650215  0  3.893499  0  0  0.601715  0  4.196595  0  0  0.635813  0  4.186488  0  0  0.23224  0.578374  0  4.202974  0
C  C56  1  0.42501375  0.78886503  0.89428905  1  0  0.670392  0  3.898961  0  0  0.615777  0  4.202203  0  0  0.650067  0  4.192799  0  0  0.233866  0.59236  0  4.207816  0
C  C57  1  0.57498042  0.21114567  0.10570828  1  0  0.670448  0  3.899003  0  0  0.615779  0  4.202275  0  0  0.650069  0  4.192873  0  0  0.233944  0.592361  0  4.207887  0
C  C58  1  0.70046613  0.94267374  0.54664379  1  0  -0.078483  0  3.619904  0  0  -0.174479  0  3.881373  0  0  -0.167206  0  3.885562  0  0  -0.140921  -0.179246  0  3.878287  0
C  C59  1  0.29952421  0.05731647  0.45335003  1  0  -0.07859  0  3.619754  0  0  -0.174739  0  3.881278  0  0  -0.167461  0  3.885442  0  0  -0.14102  -0.179506  0  3.878194  0
C  C60  1  0.15010407  0.52998558  0.50454019  1  0  -0.065233  0  3.726492  0  0  -0.087309  0  3.972505  0  0  -0.088223  0  3.992285  0  0  -0.078882  -0.086769  0  3.959272  0
C  C61  1  0.84990389  0.47000641  0.49546872  1  0  -0.065285  0  3.726722  0  0  -0.087348  0  3.972687  0  0  -0.088265  0  3.992471  0  0  -0.078947  -0.086813  0  3.959459  0
C  C62  1  0.07477242  0.49796039  0.60773072  1  0  -0.062102  0  3.756794  0  0  -0.041658  0  3.991894  0  0  -0.048055  0  4.014759  0  0  -0.015506  -0.037442  0  3.976498  0
C  C63  1  0.92522761  0.50203011  0.39227588  1  0  -0.062312  0  3.756793  0  0  -0.041771  0  3.991827  0  0  -0.048171  0  4.014694  0  0  -0.015481  -0.037554  0  3.976429  0
C  C64  1  0.92405466  0.46814588  0.60254829  1  0  -0.077967  0  3.736502  0  0  -0.098218  0  3.982076  0  0  -0.099411  0  4.002436  0  0  -0.083975  -0.097271  0  3.968294  0
C  C65  1  0.07594525  0.53184964  0.39745202  1  0  -0.077939  0  3.736084  0  0  -0.098257  0  3.981688  0  0  -0.09945  0  4.002048  0  0  -0.084032  -0.097311  0  3.9679  0
C  C66  1  0.15442178  0.49727110  0.72277796  1  0  0.654374  0  3.916668  0  0  0.602807  0  4.212952  0  0  0.636131  0  4.205259  0  0  0.210375  0.580269  0  4.217223  0
C  C67  1  0.84558098  0.50272814  0.27722736  1  0  0.654441  0  3.916816  0  0  0.60281  0  4.213165  0  0  0.636136  0  4.20547  0  0  0.210349  0.580276  0  4.217434  0
N  N68  1  0.20401303  0.08971174  0.03926958  1  0  -0.324737  0  3.391871  0  0  -0.263956  0  3.623726  0  0  -0.280072  0  3.637103  0  0  -0.360929  -0.253125  0  3.614626  0
N  N69  1  0.79598117  0.91028899  0.96073421  1  0  -0.324679  0  3.391594  0  0  -0.263878  0  3.623601  0  0  -0.279996  0  3.636993  0  0  -0.360854  -0.25305  0  3.614504  0
N  N70  1  0.23166918  0.86973333  0.05611564  1  0  -0.430892  0  3.062132  0  0  -0.379152  0  3.318606  0  0  -0.394928  0  3.331029  0  0  -0.316269  -0.368442  0  3.310129  0
N  N71  1  0.76832838  0.13027814  0.94388329  1  0  -0.431009  0  3.06207  0  0  -0.379212  0  3.318514  0  0  -0.394973  0  3.330897  0  0  -0.316263  -0.368514  0  3.310052  0
O  O72  1  0.71807857  0.05633704  0.47490019  1  0  -0.245915  0  2.323574  0  0  -0.17176  0  2.558497  0  0  -0.190544  0  2.560793  0  0  -0.183798  -0.158537  0  2.55624  0
O  O73  1  0.28191863  0.94365560  0.52510554  1  0  -0.24585  0  2.323485  0  0  -0.171633  0  2.558489  0  0  -0.190417  0  2.560784  0  0  -0.183751  -0.158411  0  2.556235  0
O  O74  1  0.50720972  0.82095811  0.80773059  1  0  -0.591963  0  1.998055  0  0  -0.53304  0  2.211834  0  0  -0.557355  0  2.200216  0  0  -0.298029  -0.516086  0  2.219196  0
O  O75  1  0.49278759  0.17904940  0.19227024  1  0  -0.591938  0  1.998058  0  0  -0.533033  0  2.211863  0  0  -0.557353  0  2.200266  0  0  -0.298082  -0.516077  0  2.219227  0
O  O76  1  0.46753676  0.06589468  0.78445487  1  0  -0.535738  0  2.076063  0  0  -0.48899  0  2.294517  0  0  -0.510701  0  2.279888  0  0  -0.322651  -0.473874  0  2.303371  0
O  O77  1  0.53245680  0.93411403  0.21554604  1  0  -0.535702  0  2.076052  0  0  -0.489006  0  2.2945  0  0  -0.510715  0  2.279918  0  0  -0.322716  -0.47389  0  2.30335  0
O  O78  1  0.34621759  0.24470075  0.88457333  1  0  -0.63315  0  2.010758  0  0  -0.584369  0  2.253581  0  0  -0.606293  0  2.242962  0  0  -0.348308  -0.568796  0  2.260884  0
O  O79  1  0.65378010  0.75530073  0.11543469  1  0  -0.633078  0  2.010851  0  0  -0.584281  0  2.253638  0  0  -0.606204  0  2.243022  0  0  -0.348272  -0.568705  0  2.260939  0
O  O80  1  0.43435626  0.66854320  0.92839118  1  0  -0.734343  0  2.0528  0  0  -0.668954  0  2.303656  0  0  -0.695221  0  2.293524  0  0  -0.400937  -0.649826  0  2.310221  0
O  O81  1  0.56564934  0.33145795  0.07160613  1  0  -0.734328  0  2.052987  0  0  -0.668924  0  2.303844  0  0  -0.695203  0  2.293743  0  0  -0.400941  -0.649802  0  2.310415  0
O  O82  1  0.07102170  0.48594967  0.81635810  1  0  -0.731032  0  2.03901  0  0  -0.657521  0  2.263837  0  0  -0.684596  0  2.253456  0  0  -0.361466  -0.638112  0  2.27043  0
O  O83  1  0.92898234  0.51404856  0.18364373  1  0  -0.731068  0  2.038904  0  0  -0.657576  0  2.2638  0  0  -0.68464  0  2.253386  0  0  -0.361502  -0.638176  0  2.270395  0
O  O84  1  0.29660452  0.51054537  0.72641214  1  0  -0.657544  0  1.949335  0  0  -0.605125  0  2.170564  0  0  -0.628784  0  2.159273  0  0  -0.335357  -0.588629  0  2.177994  0
O  O85  1  0.70340969  0.48944432  0.27359403  1  0  -0.657466  0  1.949585  0  0  -0.605041  0  2.170847  0  0  -0.628698  0  2.159557  0  0  -0.335272  -0.588545  0  2.178269  0
O  O86  1  0.40074154  0.58650987  0.17172514  1  0  -0.883106  0  1.826371  0  0  -0.834598  0  2.001449  0  0  -0.851666  0  1.969688  0  0  -0.590807  -0.822288  0  2.02427  0
O  O87  1  0.59926690  0.41348822  0.82826696  1  0  -0.88309  0  1.826284  0  0  -0.834586  0  2.001371  0  0  -0.85166  0  1.969603  0  0  -0.590835  -0.822259  0  2.024231  0
O  O88  1  0.19997356  0.34060497  0.13023641  1  0  -0.878165  0  1.887344  0  0  -0.822497  0  2.07645  0  0  -0.84289  0  2.044731  0  0  -0.613649  -0.807679  0  2.098939  0
O  O89  1  0.80002324  0.65940366  0.86975568  1  0  -0.878333  0  1.887186  0  0  -0.822571  0  2.07639  0  0  -0.842964  0  2.044671  0  0  -0.613564  -0.807753  0  2.098882  0
O  O90  1  0.07858497  0.66631570  0.03731705  1  0  -0.868767  0  1.839066  0  0  -0.814533  0  2.026779  0  0  -0.833901  0  1.996407  0  0  -0.63305  -0.800406  0  2.048473  0
O  O91  1  0.92141198  0.33368790  0.96268219  1  0  -0.868817  0  1.839043  0  0  -0.814567  0  2.026775  0  0  -0.833935  0  1.996405  0  0  -0.633069  -0.800421  0  2.048444  0
