# generated using pymatgen
data_SmH10(CO)10
_symmetry_space_group_name_H-M   'P 1'
_cell_length_a   8.82747886
_cell_length_b   9.31352572
_cell_length_c   9.62289562
_cell_angle_alpha   84.40801891
_cell_angle_beta   66.50517173
_cell_angle_gamma   64.18323153
_symmetry_Int_Tables_number   1
_chemical_formula_structural   SmH10(CO)10
_chemical_formula_sum   'Sm2 H20 C20 O20'
_cell_volume   650.35375671
_cell_formula_units_Z   2
loop_
 _symmetry_equiv_pos_site_id
 _symmetry_equiv_pos_as_xyz
  1  'x, y, z'
loop_
 _atom_site_type_symbol
 _atom_site_label
 _atom_site_symmetry_multiplicity
 _atom_site_fract_x
 _atom_site_fract_y
 _atom_site_fract_z
 _atom_site_occupancy
 _atom_site_hle17_bader_spin_density
 _atom_site_hle17_ddec_charge
 _atom_site_hle17_ddec_spin_density
 _atom_site_hle17_ddec_sum_bond_order
 _atom_site_hle17_magmom
 _atom_site_hse06_10hf_bader_spin_density
 _atom_site_hse06_10hf_ddec_charge
 _atom_site_hse06_10hf_ddec_spin_density
 _atom_site_hse06_10hf_ddec_sum_bond_order
 _atom_site_hse06_10hf_magmom
 _atom_site_hse06_bader_spin_density
 _atom_site_hse06_ddec_charge
 _atom_site_hse06_ddec_spin_density
 _atom_site_hse06_ddec_sum_bond_order
 _atom_site_hse06_magmom
 _atom_site_pbe_bader_spin_density
 _atom_site_pbe_cm5_charge
 _atom_site_pbe_ddec_charge
 _atom_site_pbe_ddec_spin_density
 _atom_site_pbe_ddec_sum_bond_order
 _atom_site_pbe_magmom
Sm  Sm0  1  0.23314810  0.50611838  0.54547551  1  0  2.297124  0  1.550228  0  0  2.138558  0  2.006224  0  0  2.252923  0  1.837369  0  0  1.468316  2.103385  0  2.038014  0
Sm  Sm1  1  0.76685181  0.49388315  0.45452127  1  0  2.297115  0  1.550223  0  0  2.13853  0  2.006257  0  0  2.252918  0  1.837365  0  0  1.468298  2.10337  0  2.03803  0
H  H2  1  0.93758018  0.41593314  0.73671739  1  0  0.425478  0  0.884218  0  0  0.395745  0  0.947258  0  0  0.405657  0  0.933047  0  0  0.300986  0.388541  0  0.957815  0
H  H3  1  0.06242335  0.58406360  0.26327746  1  0  0.425502  0  0.884186  0  0  0.395769  0  0.947227  0  0  0.40568  0  0.933017  0  0  0.301007  0.388566  0  0.957784  0
H  H4  1  0.05120249  0.38324568  0.83500242  1  0  0.436113  0  0.851228  0  0  0.412517  0  0.902645  0  0  0.42148  0  0.889675  0  0  0.309454  0.406138  0  0.912021  0
H  H5  1  0.94880047  0.61675466  0.16499229  1  0  0.436135  0  0.851197  0  0  0.412541  0  0.902614  0  0  0.421503  0  0.889645  0  0  0.309473  0.406167  0  0.91198  0
H  H6  1  0.33127235  0.60121594  0.77476899  1  0  0.439421  0  0.8646  0  0  0.407983  0  0.929263  0  0  0.418718  0  0.913817  0  0  0.300986  0.400294  0  0.940563  0
H  H7  1  0.66873243  0.39878081  0.22522643  1  0  0.439407  0  0.864616  0  0  0.408005  0  0.929207  0  0  0.418735  0  0.91377  0  0  0.301035  0.400318  0  0.940505  0
H  H8  1  0.11417772  0.65817027  0.86295405  1  0  0.445969  0  0.840093  0  0  0.419615  0  0.895393  0  0  0.429423  0  0.88104  0  0  0.308113  0.412748  0  0.905599  0
H  H9  1  0.88582402  0.34183007  0.13704217  1  0  0.445906  0  0.840178  0  0  0.419547  0  0.895486  0  0  0.429355  0  0.881132  0  0  0.308075  0.412684  0  0.905686  0
H  H10  1  0.32183965  0.65221413  0.01895459  1  0  0.126791  0  0.935337  0  0  0.133389  0  0.997958  0  0  0.138021  0  0.994498  0  0  0.114589  0.130212  0  0.999881  0
H  H11  1  0.67817062  0.34777905  0.98103808  1  0  0.12684  0  0.935458  0  0  0.133431  0  0.998084  0  0  0.138064  0  0.994627  0  0  0.114628  0.130254  0  1.000007  0
H  H12  1  0.17479941  0.90705200  0.42490181  1  0  0.134779  0  0.946499  0  0  0.139798  0  1.01153  0  0  0.144608  0  1.008255  0  0  0.113521  0.13622  0  1.014222  0
H  H13  1  0.82520113  0.09294832  0.57509693  1  0  0.134826  0  0.946506  0  0  0.139848  0  1.011529  0  0  0.144658  0  1.008256  0  0  0.11353  0.136267  0  1.014225  0
H  H14  1  0.41672498  0.07503504  0.40395901  1  0  0.129514  0  0.944834  0  0  0.134376  0  1.009206  0  0  0.138541  0  1.00679  0  0  0.114019  0.131342  0  1.010908  0
H  H15  1  0.58327078  0.92497005  0.59604730  1  0  0.12955  0  0.944828  0  0  0.134377  0  1.009243  0  0  0.138546  0  1.006812  0  0  0.114052  0.131342  0  1.010939  0
H  H16  1  0.11383398  0.01140590  0.79362267  1  0  0.42142  0  0.768098  0  0  0.405293  0  0.819121  0  0  0.414502  0  0.809913  0  0  0.35794  0.39869  0  0.825841  0
H  H17  1  0.88616105  0.98858596  0.20638728  1  0  0.421408  0  0.768065  0  0  0.40533  0  0.819033  0  0  0.41454  0  0.809821  0  0  0.357969  0.398725  0  0.825757  0
H  H18  1  0.24792119  0.27789593  0.06202436  1  0  0.115271  0  0.944787  0  0  0.12166  0  1.008651  0  0  0.125563  0  1.006145  0  0  0.112434  0.118846  0  1.01047  0
H  H19  1  0.75207392  0.72210555  0.93798255  1  0  0.115288  0  0.944852  0  0  0.121674  0  1.008706  0  0  0.12558  0  1.006201  0  0  0.112413  0.118858  0  1.010532  0
H  H20  1  0.50878828  0.20684825  0.13768817  1  0  0.112128  0  0.985905  0  0  0.117175  0  1.053217  0  0  0.120377  0  1.052145  0  0  0.109005  0.115188  0  1.05325  0
H  H21  1  0.49120619  0.79315202  0.86231909  1  0  0.112132  0  0.985965  0  0  0.117183  0  1.053257  0  0  0.120384  0  1.052186  0  0  0.109033  0.115197  0  1.053284  0
C  C22  1  0.36083959  0.53039171  0.21662864  1  0  0.683466  0  3.892792  0  0  0.640548  0  4.175225  0  0  0.673735  0  4.171776  0  0  0.208529  0.617124  0  4.18123  0
C  C23  1  0.63916153  0.46960742  0.78336896  1  0  0.683456  0  3.892782  0  0  0.640572  0  4.175162  0  0  0.67376  0  4.171714  0  0  0.20857  0.617155  0  4.18115  0
C  C24  1  0.41926449  0.55043803  0.05203289  1  0  -0.139633  0  3.613365  0  0  -0.15841  0  3.865555  0  0  -0.16293  0  3.878044  0  0  -0.068224  -0.154256  0  3.85353  0
C  C25  1  0.58074342  0.44955753  0.94796563  1  0  -0.139616  0  3.613405  0  0  -0.158387  0  3.865568  0  0  -0.162908  0  3.878055  0  0  -0.068243  -0.154229  0  3.853538  0
C  C26  1  0.45338439  0.77468854  0.42024460  1  0  0.715641  0  3.881838  0  0  0.677595  0  4.1636  0  0  0.712335  0  4.159665  0  0  0.210484  0.654094  0  4.16995  0
C  C27  1  0.54661494  0.22531418  0.57975436  1  0  0.715695  0  3.881882  0  0  0.677639  0  4.163656  0  0  0.712381  0  4.15972  0  0  0.210524  0.654142  0  4.169993  0
C  C28  1  0.29532285  0.92074800  0.41440887  1  0  -0.160532  0  3.612769  0  0  -0.18093  0  3.86466  0  0  -0.186581  0  3.876664  0  0  -0.077642  -0.176767  0  3.85564  0
C  C29  1  0.70467837  0.07925352  0.58559262  1  0  -0.16069  0  3.612699  0  0  -0.18109  0  3.864601  0  0  -0.186742  0  3.876607  0  0  -0.07768  -0.176924  0  3.855584  0
C  C30  1  0.29782357  0.06433903  0.40583270  1  0  -0.147012  0  3.635381  0  0  -0.164827  0  3.888951  0  0  -0.16879  0  3.901667  0  0  -0.071542  -0.161691  0  3.878989  0
C  C31  1  0.70217398  0.93566247  0.59417225  1  0  -0.146948  0  3.635341  0  0  -0.164764  0  3.888903  0  0  -0.168724  0  3.901622  0  0  -0.07158  -0.161634  0  3.878944  0
C  C32  1  0.13973383  0.21648604  0.40943291  1  0  0.721666  0  3.881471  0  0  0.682481  0  4.164704  0  0  0.717154  0  4.159633  0  0  0.213196  0.658849  0  4.171589  0
C  C33  1  0.86026429  0.78351667  0.59056755  1  0  0.721547  0  3.881675  0  0  0.682439  0  4.164792  0  0  0.717113  0  4.159724  0  0  0.213147  0.658806  0  4.17168  0
C  C34  1  0.19763148  0.08332850  0.91409354  1  0  0.674304  0  3.773972  0  0  0.61769  0  4.082681  0  0  0.652707  0  4.070257  0  0  0.251577  0.593712  0  4.09078  0
C  C35  1  0.80236539  0.91667180  0.08590866  1  0  0.674247  0  3.773922  0  0  0.617653  0  4.082619  0  0  0.652669  0  4.070195  0  0  0.251531  0.593668  0  4.090725  0
C  C36  1  0.35346855  0.03909679  0.95844530  1  0  -0.067664  0  3.752478  0  0  -0.047419  0  3.987479  0  0  -0.055915  0  4.011944  0  0  -0.007132  -0.041212  0  3.970915  0
C  C37  1  0.64652834  0.96090351  0.04155793  1  0  -0.067691  0  3.752575  0  0  -0.047434  0  3.987542  0  0  -0.05593  0  4.012008  0  0  -0.007138  -0.041233  0  3.970996  0
C  C38  1  0.35859152  0.15684253  0.03446305  1  0  -0.0415  0  3.671529  0  0  -0.066026  0  3.92154  0  0  -0.067246  0  3.942966  0  0  -0.06802  -0.065844  0  3.906348  0
C  C39  1  0.64140480  0.84315896  0.96554236  1  0  -0.041518  0  3.671614  0  0  -0.066044  0  3.92161  0  0  -0.067267  0  3.943039  0  0  -0.067983  -0.065863  0  3.906422  0
C  C40  1  0.50488592  0.11733631  0.07608387  1  0  -0.064244  0  3.696486  0  0  -0.087906  0  3.947608  0  0  -0.09016  0  3.970922  0  0  -0.074945  -0.085945  0  3.929836  0
C  C41  1  0.49511223  0.88266399  0.92392097  1  0  -0.06434  0  3.696535  0  0  -0.088001  0  3.947652  0  0  -0.090254  0  3.970969  0  0  -0.075031  -0.086037  0  3.929876  0
O  O42  1  0.46251350  0.41287380  0.26757362  1  0  -0.682657  0  2.046909  0  0  -0.623752  0  2.274262  0  0  -0.654466  0  2.264797  0  0  -0.339252  -0.606671  0  2.281203  0
O  O43  1  0.53748638  0.58712291  0.73242572  1  0  -0.682639  0  2.046944  0  0  -0.623742  0  2.2743  0  0  -0.65446  0  2.264834  0  0  -0.339248  -0.606667  0  2.281237  0
O  O44  1  0.20322902  0.63264858  0.30673562  1  0  -0.690479  0  2.011124  0  0  -0.635395  0  2.236959  0  0  -0.6655  0  2.226204  0  0  -0.355769  -0.618217  0  2.244112  0
O  O45  1  0.79677516  0.36734937  0.69325991  1  0  -0.690504  0  2.011093  0  0  -0.635425  0  2.236912  0  0  -0.665534  0  2.226158  0  0  -0.355812  -0.618252  0  2.244061  0
O  O46  1  0.42919021  0.64894026  0.46761222  1  0  -0.804597  0  2.102314  0  0  -0.744521  0  2.35332  0  0  -0.784618  0  2.342401  0  0  -0.415687  -0.726269  0  2.359145  0
O  O47  1  0.57081340  0.35106129  0.53238421  1  0  -0.804591  0  2.102251  0  0  -0.74453  0  2.35329  0  0  -0.784628  0  2.342373  0  0  -0.415703  -0.726287  0  2.359119  0
O  O48  1  0.61000365  0.77200816  0.38216450  1  0  -0.694093  0  1.945706  0  0  -0.647915  0  2.180963  0  0  -0.679349  0  2.171413  0  0  -0.364099  -0.630591  0  2.185945  0
O  O49  1  0.38999631  0.22799577  0.61783411  1  0  -0.694093  0  1.945838  0  0  -0.64789  0  2.181064  0  0  -0.679321  0  2.171514  0  0  -0.364102  -0.630568  0  2.186039  0
O  O50  1  0.01073373  0.21595704  0.38141174  1  0  -0.7024  0  1.937787  0  0  -0.656074  0  2.173809  0  0  -0.687515  0  2.161813  0  0  -0.378913  -0.639192  0  2.180144  0
O  O51  1  0.98926557  0.78404328  0.61858644  1  0  -0.702347  0  1.937811  0  0  -0.656054  0  2.173806  0  0  -0.687491  0  2.16181  0  0  -0.378913  -0.639172  0  2.180139  0
O  O52  1  0.13726963  0.34755643  0.44307010  1  0  -0.790496  0  2.085908  0  0  -0.734229  0  2.340953  0  0  -0.772706  0  2.329978  0  0  -0.401019  -0.716365  0  2.347892  0
O  O53  1  0.86272786  0.65244749  0.55692840  1  0  -0.790473  0  2.086004  0  0  -0.734219  0  2.340995  0  0  -0.7727  0  2.330022  0  0  -0.400977  -0.716349  0  2.347915  0
O  O54  1  0.00221392  0.46132027  0.76991909  1  0  -0.882652  0  1.8815  0  0  -0.834286  0  2.061929  0  0  -0.86066  0  2.029353  0  0  -0.636501  -0.820669  0  2.081775  0
O  O55  1  0.99778659  0.53868006  0.23007759  1  0  -0.882699  0  1.881474  0  0  -0.834326  0  2.061924  0  0  -0.860703  0  2.029346  0  0  -0.636538  -0.820712  0  2.081766  0
O  O56  1  0.22594213  0.58101970  0.78358729  1  0  -0.914186  0  1.844949  0  0  -0.865555  0  2.031087  0  0  -0.892182  0  1.99558  0  0  -0.652676  -0.852244  0  2.052458  0
O  O57  1  0.77405836  0.41898063  0.21640836  1  0  -0.914113  0  1.845034  0  0  -0.865488  0  2.031165  0  0  -0.892118  0  1.995663  0  0  -0.652682  -0.852177  0  2.05253  0
O  O58  1  0.05699642  0.21153868  0.95697506  1  0  -0.587696  0  1.999742  0  0  -0.538178  0  2.221198  0  0  -0.558257  0  2.207211  0  0  -0.276207  -0.524101  0  2.230448  0
O  O59  1  0.94300286  0.78845924  0.04302439  1  0  -0.587692  0  1.999643  0  0  -0.538187  0  2.221091  0  0  -0.558266  0  2.207108  0  0  -0.276221  -0.524104  0  2.230341  0
O  O60  1  0.21964433  0.96978785  0.82185401  1  0  -0.509205  0  2.051138  0  0  -0.458982  0  2.257069  0  0  -0.478857  0  2.242022  0  0  -0.30549  -0.445333  0  2.267165  0
O  O61  1  0.78035074  0.03020882  0.17815442  1  0  -0.509139  0  2.051085  0  0  -0.458977  0  2.256964  0  0  -0.478851  0  2.241918  0  0  -0.305469  -0.445325  0  2.26706  0
