# generated using pymatgen
data_NaH10C5N7O2
_symmetry_space_group_name_H-M   'P 1'
_cell_length_a   6.98378920
_cell_length_b   8.25344289
_cell_length_c   8.43209437
_cell_angle_alpha   92.45003737
_cell_angle_beta   91.26306413
_cell_angle_gamma   105.22225926
_symmetry_Int_Tables_number   1
_chemical_formula_structural   NaH10C5N7O2
_chemical_formula_sum   'Na2 H20 C10 N14 O4'
_cell_volume   468.26821138
_cell_formula_units_Z   2
loop_
 _symmetry_equiv_pos_site_id
 _symmetry_equiv_pos_as_xyz
  1  'x, y, z'
loop_
 _atom_site_type_symbol
 _atom_site_label
 _atom_site_symmetry_multiplicity
 _atom_site_fract_x
 _atom_site_fract_y
 _atom_site_fract_z
 _atom_site_occupancy
 _atom_site_hle17_bader_spin_density
 _atom_site_hle17_ddec_charge
 _atom_site_hle17_ddec_spin_density
 _atom_site_hle17_ddec_sum_bond_order
 _atom_site_hle17_magmom
 _atom_site_hse06_10hf_bader_spin_density
 _atom_site_hse06_10hf_ddec_charge
 _atom_site_hse06_10hf_ddec_spin_density
 _atom_site_hse06_10hf_ddec_sum_bond_order
 _atom_site_hse06_10hf_magmom
 _atom_site_hse06_bader_spin_density
 _atom_site_hse06_ddec_charge
 _atom_site_hse06_ddec_spin_density
 _atom_site_hse06_ddec_sum_bond_order
 _atom_site_hse06_magmom
 _atom_site_pbe_bader_spin_density
 _atom_site_pbe_cm5_charge
 _atom_site_pbe_ddec_charge
 _atom_site_pbe_ddec_spin_density
 _atom_site_pbe_ddec_sum_bond_order
 _atom_site_pbe_magmom
Na  Na0  1  0.36382862  0.91398272  0.82927677  1  0  0.872003  0  0.410865  0  0  0.809967  0  0.585509  0  0  0.821854  0  0.562051  0  0  0.663523  0.801434  0  0.602044  0
Na  Na1  1  0.63617362  0.08601880  0.17072430  1  0  0.871996  0  0.410882  0  0  0.809952  0  0.585536  0  0  0.82184  0  0.562077  0  0  0.663526  0.80142  0  0.602073  0
H  H2  1  0.51722225  0.81751781  0.51556235  1  0  0.380123  0  0.947005  0  0  0.341231  0  1.025906  0  0  0.352294  0  1.009721  0  0  0.27302  0.333458  0  1.037251  0
H  H3  1  0.48277778  0.18248120  0.48443860  1  0  0.380071  0  0.94708  0  0  0.341179  0  1.025975  0  0  0.352243  0  1.009788  0  0  0.273  0.333405  0  1.03732  0
H  H4  1  0.28943872  0.81765196  0.49679127  1  0  0.381788  0  0.941843  0  0  0.343439  0  1.020903  0  0  0.354129  0  1.00524  0  0  0.27399  0.335921  0  1.031896  0
H  H5  1  0.71056209  0.18234954  0.50320859  1  0  0.381806  0  0.941812  0  0  0.343463  0  1.020864  0  0  0.354153  0  1.005201  0  0  0.273995  0.335945  0  1.031857  0
H  H6  1  0.81497735  0.00193124  0.86204104  1  0  0.386087  0  0.933208  0  0  0.345438  0  1.013916  0  0  0.356417  0  0.997782  0  0  0.281619  0.337729  0  1.02521  0
H  H7  1  0.18502306  0.99806902  0.13795996  1  0  0.386079  0  0.933221  0  0  0.34543  0  1.013928  0  0  0.356409  0  0.997796  0  0  0.281609  0.337722  0  1.025223  0
H  H8  1  0.71448228  0.83580496  0.94842185  1  0  0.392427  0  0.925074  0  0  0.351309  0  1.007868  0  0  0.362317  0  0.991816  0  0  0.281834  0.343635  0  1.01905  0
H  H9  1  0.28551956  0.16419528  0.05157799  1  0  0.392424  0  0.925088  0  0  0.351312  0  1.007874  0  0  0.362319  0  0.991822  0  0  0.281827  0.343636  0  1.019057  0
H  H10  1  0.28408981  0.74905283  0.20224822  1  0  0.104071  0  0.954722  0  0  0.112588  0  1.01994  0  0  0.11542  0  1.015988  0  0  0.148186  0.110516  0  1.022649  0
H  H11  1  0.71591021  0.25094616  0.79775154  1  0  0.104083  0  0.954823  0  0  0.112594  0  1.02003  0  0  0.115427  0  1.016077  0  0  0.148204  0.110521  0  1.02274  0
H  H12  1  0.23746729  0.43682338  0.78903791  1  0  0.085224  0  0.947656  0  0  0.092797  0  1.015353  0  0  0.09424  0  1.014265  0  0  0.132695  0.091682  0  1.016192  0
H  H13  1  0.76253313  0.56317685  0.21096071  1  0  0.085224  0  0.947606  0  0  0.092791  0  1.015324  0  0  0.094234  0  1.014237  0  0  0.132686  0.091677  0  1.016161  0
H  H14  1  0.41433244  0.36559453  0.32284312  1  0  0.098806  0  0.93427  0  0  0.115156  0  0.996443  0  0  0.116309  0  0.995352  0  0  0.122632  0.114181  0  0.997383  0
H  H15  1  0.58566798  0.63440571  0.67715550  1  0  0.098826  0  0.934263  0  0  0.115166  0  0.996446  0  0  0.116321  0  0.995356  0  0  0.122637  0.114189  0  0.997389  0
H  H16  1  0.34788811  0.54622335  0.40199185  1  0  0.087626  0  0.943922  0  0  0.101788  0  1.01254  0  0  0.103155  0  1.011318  0  0  0.115174  0.100672  0  1.013517  0
H  H17  1  0.65211048  0.45377563  0.59800669  1  0  0.087602  0  0.94395  0  0  0.101761  0  1.012562  0  0  0.103128  0  1.011343  0  0  0.115157  0.100645  0  1.013539  0
H  H18  1  0.04606158  0.22522475  0.27005502  1  0  0.095706  0  0.942494  0  0  0.106596  0  1.012239  0  0  0.108317  0  1.010966  0  0  0.112818  0.105342  0  1.013206  0
H  H19  1  0.95393741  0.77477551  0.72994595  1  0  0.095711  0  0.942481  0  0  0.106604  0  1.01221  0  0  0.108328  0  1.010936  0  0  0.112813  0.10535  0  1.01318  0
H  H20  1  0.98834976  0.39635268  0.37213155  1  0  0.103372  0  0.922569  0  0  0.121336  0  0.978899  0  0  0.122535  0  0.978852  0  0  0.108935  0.120426  0  0.979024  0
H  H21  1  0.01165105  0.60364882  0.62786831  1  0  0.103383  0  0.92256  0  0  0.12135  0  0.978875  0  0  0.122551  0  0.978825  0  0  0.108918  0.12044  0  0.978999  0
C  C22  1  0.27831696  0.64527141  0.11748585  1  0  0.170362  0  3.667786  0  0  0.096647  0  3.941835  0  0  0.109984  0  3.953245  0  0  0.163589  0.088281  0  3.933709  0
C  C23  1  0.72168124  0.35472632  0.88251384  1  0  0.170329  0  3.667807  0  0  0.096699  0  3.941859  0  0  0.110035  0  3.953271  0  0  0.1636  0.088331  0  3.933733  0
C  C24  1  0.25161032  0.48325422  0.91224769  1  0  0.211174  0  3.725332  0  0  0.151359  0  4.033184  0  0  0.163342  0  4.045361  0  0  0.142804  0.143674  0  4.024648  0
C  C25  1  0.74838723  0.51674602  0.08775088  1  0  0.211194  0  3.725301  0  0  0.151374  0  4.033146  0  0  0.163358  0  4.045323  0  0  0.142813  0.143689  0  4.024611  0
C  C26  1  0.29939209  0.43415340  0.32125132  1  0  -0.008616  0  3.60815  0  0  -0.085249  0  3.864036  0  0  -0.081326  0  3.874005  0  0  -0.046007  -0.08761  0  3.857217  0
C  C27  1  0.70060936  0.56584556  0.67874610  1  0  -0.00863  0  3.608153  0  0  -0.0852  0  3.864039  0  0  -0.081282  0  3.87402  0  0  -0.045945  -0.087561  0  3.85722  0
C  C28  1  0.09835835  0.32270941  0.36596266  1  0  -0.201485  0  3.690507  0  0  -0.245149  0  3.945787  0  0  -0.247263  0  3.956222  0  0  -0.143304  -0.243594  0  3.938601  0
C  C29  1  0.90164167  0.67728959  0.63403829  1  0  -0.20153  0  3.690537  0  0  -0.245174  0  3.945734  0  0  -0.247287  0  3.95617  0  0  -0.143288  -0.243618  0  3.93855  0
C  C30  1  0.10319134  0.23737383  0.51766581  1  0  0.313584  0  3.753618  0  0  0.295328  0  4.028918  0  0  0.304516  0  4.047352  0  0  0.211023  0.289236  0  4.016336  0
C  C31  1  0.89681051  0.76262642  0.48233403  1  0  0.313552  0  3.75361  0  0  0.295304  0  4.028893  0  0  0.304494  0  4.047326  0  0  0.210985  0.289207  0  4.01632  0
N  N32  1  0.25772974  0.64466302  0.95946034  1  0  -0.44993  0  3.033858  0  0  -0.406427  0  3.331812  0  0  -0.421851  0  3.3421  0  0  -0.405691  -0.396102  0  3.324491  0
N  N33  1  0.74226886  0.35533596  0.04053939  1  0  -0.44996  0  3.033893  0  0  -0.406459  0  3.331828  0  0  -0.421884  0  3.342119  0  0  -0.405704  -0.396136  0  3.32451  0
N  N34  1  0.26715168  0.38583293  0.03120054  1  0  -0.292117  0  2.936103  0  0  -0.26907  0  3.197463  0  0  -0.280635  0  3.213188  0  0  -0.207815  -0.261303  0  3.186954  0
N  N35  1  0.73284587  0.61416731  0.96879803  1  0  -0.292225  0  2.936033  0  0  -0.269091  0  3.197403  0  0  -0.280657  0  3.213128  0  0  -0.20784  -0.261326  0  3.186892  0
N  N36  1  0.28536487  0.49231641  0.16187397  1  0  0.03843  0  3.565393  0  0  0.15684  0  3.752116  0  0  0.145098  0  3.779152  0  0  -0.136974  0.164005  0  3.73465  0
N  N37  1  0.71463698  0.50768381  0.83812349  1  0  0.03861  0  3.565144  0  0  0.156809  0  3.752101  0  0  0.145068  0  3.779139  0  0  -0.136996  0.163985  0  3.734614  0
N  N38  1  0.25779508  0.18803429  0.57740947  1  0  -0.329143  0  3.049249  0  0  -0.283352  0  3.318152  0  0  -0.296646  0  3.332241  0  0  -0.220165  -0.27431  0  3.308522  0
N  N39  1  0.74220716  0.81196722  0.42259042  1  0  -0.32916  0  3.049275  0  0  -0.283377  0  3.318184  0  0  -0.29667  0  3.332274  0  0  -0.220167  -0.274332  0  3.308557  0
N  N40  1  0.19112171  0.10546428  0.70803204  1  0  -0.174573  0  3.06689  0  0  -0.160856  0  3.36971  0  0  -0.161561  0  3.380342  0  0  -0.176543  -0.160121  0  3.362389  0
N  N41  1  0.80888053  0.89453723  0.29196785  1  0  -0.174508  0  3.066907  0  0  -0.160781  0  3.369717  0  0  -0.161488  0  3.380351  0  0  -0.176505  -0.160047  0  3.362397  0
N  N42  1  0.00382383  0.10550844  0.72633765  1  0  -0.10441  0  3.101474  0  0  -0.072057  0  3.387091  0  0  -0.075032  0  3.399525  0  0  -0.093953  -0.069715  0  3.378497  0
N  N43  1  0.99617802  0.89449181  0.27366337  1  0  -0.104477  0  3.101462  0  0  -0.072131  0  3.387085  0  0  -0.075105  0  3.399518  0  0  -0.093969  -0.069787  0  3.378491  0
N  N44  1  0.94428731  0.18787184  0.60859321  1  0  -0.347738  0  3.034021  0  0  -0.309864  0  3.305534  0  0  -0.323005  0  3.320048  0  0  -0.224347  -0.300972  0  3.295678  0
N  N45  1  0.05571453  0.81212842  0.39140781  1  0  -0.347679  0  3.033963  0  0  -0.309801  0  3.305452  0  0  -0.322942  0  3.319965  0  0  -0.224343  -0.300908  0  3.295599  0
O  O46  1  0.39151075  0.80203962  0.57429957  1  0  -0.894364  0  1.840858  0  0  -0.84573  0  2.032951  0  0  -0.862171  0  1.998683  0  0  -0.676929  -0.833974  0  2.056822  0
O  O47  1  0.60848966  0.19796062  0.42570024  1  0  -0.894327  0  1.840873  0  0  -0.845691  0  2.032969  0  0  -0.862129  0  1.998701  0  0  -0.676924  -0.833936  0  2.056841  0
O  O48  1  0.69714739  0.94792340  0.92415771  1  0  -0.918407  0  1.842564  0  0  -0.864078  0  2.040955  0  0  -0.880456  0  2.005569  0  0  -0.700109  -0.852504  0  2.06546  0
O  O49  1  0.30285264  0.05207560  0.07584324  1  0  -0.918391  0  1.842573  0  0  -0.86407  0  2.040954  0  0  -0.880444  0  2.005569  0  0  -0.700095  -0.852494  0  2.065461  0
