# generated using pymatgen
data_Al2H17C24S2N3O10
_symmetry_space_group_name_H-M   'P 1'
_cell_length_a   6.64881974
_cell_length_b   12.68718739
_cell_length_c   16.96959084
_cell_angle_alpha   85.95293421
_cell_angle_beta   82.12885583
_cell_angle_gamma   75.96216282
_symmetry_Int_Tables_number   1
_chemical_formula_structural   Al2H17C24S2N3O10
_chemical_formula_sum   'Al2 H17 C24 S2 N3 O10'
_cell_volume   1374.59359099
_cell_formula_units_Z   1
loop_
 _symmetry_equiv_pos_site_id
 _symmetry_equiv_pos_as_xyz
  1  'x, y, z'
loop_
 _atom_site_type_symbol
 _atom_site_label
 _atom_site_symmetry_multiplicity
 _atom_site_fract_x
 _atom_site_fract_y
 _atom_site_fract_z
 _atom_site_occupancy
 _atom_site_pbe_bader_charge
 _atom_site_pbe_bader_spin_density
 _atom_site_pbe_cm5_charge
 _atom_site_pbe_ddec_charge
 _atom_site_pbe_ddec_spin_density
 _atom_site_pbe_ddec_sum_bond_order
 _atom_site_pbe_magmom
Al  Al0  1  0.50119822  0.49836781  0.50068812  1  2.501833  0  0.395022  1.637434  0  2.590366  0
Al  Al1  1  0.00336802  0.49388801  0.50235762  1  2.501425  0  0.39422  1.641022  0  2.575374  0
H  H2  1  0.20319847  0.62429382  0.45297044  1  0.602402  0  0.350609  0.428225  0  0.858718  0
H  H3  1  0.74331649  0.43230874  0.59567479  1  0.634991  0  0.351677  0.429093  0  0.858043  0
H  H4  1  0.95053570  0.40716851  0.74546013  1  0.086499  0  0.106975  0.107896  0  0.989726  0
H  H5  1  0.89556575  0.40524316  0.89475890  1  0.114137  0  0.107438  0.110586  0  1.014733  0
H  H6  1  0.30070181  0.62330749  0.88981335  1  0.087398  0  0.107933  0.114573  0  0.997841  0
H  H7  1  0.67171169  0.39857575  0.11182371  1  0.077184  0  0.10611  0.111455  0  1.004613  0
H  H8  1  0.17488340  0.55546159  0.11496093  1  0.109343  0  0.106136  0.109978  0  1.015731  0
H  H9  1  0.10971403  0.55219762  0.26438405  1  0.084146  0  0.109969  0.113317  0  0.99375  0
H  H10  1  0.26785947  0.84736979  0.54167038  1  0.113264  0  0.113538  0.133069  0  0.999737  0
H  H11  1  0.56373082  0.59397467  0.71269650  1  0.056674  0  0.097079  0.140372  0  0.994227  0
H  H12  1  0.41667291  0.70766393  0.76737254  1  0.039962  0  0.093763  0.129901  0  0.993058  0
H  H13  1  0.34720289  0.68073467  0.67425749  1  0.069558  0  0.093207  0.134615  0  1.006142  0
H  H14  1  0.43070544  0.43819330  0.30732635  1  0.097134  0  0.101136  0.150813  0  1.006648  0
H  H15  1  0.61652322  0.31367603  0.31105825  1  0.033987  0  0.092709  0.135868  0  1.001352  0
H  H16  1  0.47879961  0.34899881  0.22656846  1  0.032081  0  0.090417  0.127191  0  0.999194  0
H  H17  1  0.92751439  0.10921321  0.44482987  1  0.435267  0  0.287077  0.276793  0  1.010607  0
H  H18  1  0.76777058  0.23837006  0.45119667  1  0.518035  0  0.312203  0.323307  0  0.944451  0
C  C19  1  0.65452322  0.69385501  0.50268974  1  1.609177  0  0.256786  0.644258  0  4.150182  0
C  C20  1  0.81634750  0.48520185  0.35942224  1  1.530851  0  0.268184  0.647972  0  4.087206  0
C  C21  1  0.35354466  0.30138150  0.49653239  1  1.542664  0  0.247981  0.650178  0  4.157881  0
C  C22  1  0.19202069  0.50582971  0.64602374  1  1.551725  0  0.268283  0.654663  0  4.088606  0
C  C23  1  0.16245799  0.51291431  0.73433717  1  -0.002945  0  -0.012764  -0.100514  0  3.917504  0
C  C24  1  0.02781852  0.45369803  0.77804922  1  -0.059137  0  -0.083866  -0.084004  0  4.014569  0
C  C25  1  0.99634994  0.45237438  0.86040452  1  -0.015314  0  -0.087543  -0.148843  0  3.968178  0
C  C26  1  0.09713740  0.51429795  0.90031263  1  0.323748  0  0.0861  0.177851  0  4.060658  0
C  C27  1  0.22821572  0.57488644  0.85669234  1  -0.058247  0  -0.08087  -0.205659  0  3.9041  0
C  C28  1  0.26529139  0.57517158  0.77349989  1  0.01154  0  0.001985  0.169678  0  3.940531  0
C  C29  1  0.76337793  0.43390077  0.14670679  1  -0.079955  0  -0.080717  -0.204473  0  3.906732  0
C  C30  1  0.92296054  0.47837124  0.10529914  1  0.420945  0  0.085328  0.175487  0  4.064365  0
C  C31  1  0.04994527  0.52206528  0.14740760  1  -0.072215  0  -0.088112  -0.152906  0  3.968387  0
C  C32  1  0.01258500  0.52047461  0.22972802  1  0.047628  0  -0.078661  -0.077775  0  4.000699  0
C  C33  1  0.84846198  0.47870362  0.27113624  1  -0.042455  0  -0.010454  -0.101586  0  3.909524  0
C  C34  1  0.72062097  0.43363368  0.22969741  1  -0.015816  0  0.005167  0.174759  0  3.936827  0
C  C35  1  0.61301943  0.11903262  0.47309981  1  0.501386  0  0.108216  0.282146  0  4.117045  0
C  C36  1  0.40457765  0.87940220  0.52165499  1  -0.015912  0  -0.090246  -0.138437  0  3.986377  0
C  C37  1  0.41204195  0.18432194  0.49504324  1  -0.108244  0  -0.045438  -0.269598  0  3.958997  0
C  C38  1  0.60088150  0.81316983  0.50156557  1  -0.151197  0  -0.022207  -0.120169  0  3.975273  0
C  C39  1  0.40918917  0.99007930  0.51232882  1  -0.130768  0  -0.024891  0.00067  0  4.122046  0
C  C40  1  0.60824424  0.00688098  0.48395678  1  -0.158509  0  -0.027973  -0.11665  0  4.016676  0
C  C41  1  0.40487090  0.64316673  0.72962835  1  -0.086058  0  -0.2369  -0.409987  0  3.958827  0
C  C42  1  0.55193157  0.38130653  0.27062147  1  -0.041998  0  -0.241006  -0.418271  0  3.942738  0
S  S43  1  0.22415050  0.11040204  0.52752592  1  0.21618  0  0.069888  0.098834  0  2.853047  0
S  S44  1  0.79154014  0.88528334  0.47066523  1  0.226805  0  0.07984  0.126288  0  2.756817  0
N  N45  1  0.07587774  0.52155162  0.98397230  1  -0.463004  0  -0.150639  -0.13985  0  3.276185  0
N  N46  1  0.94393744  0.47316469  0.02163518  1  -0.492897  0  -0.149214  -0.135716  0  3.287962  0
N  N47  1  0.78237463  0.15788223  0.44300944  1  -1.24865  0  -0.578949  -0.582756  0  3.356632  0
O  O48  1  0.50080280  0.64842761  0.51429996  1  -1.264196  0  -0.238653  -0.593824  0  2.339028  0
O  O49  1  0.97910738  0.47019446  0.39464893  1  -1.263413  0  -0.232699  -0.583365  0  2.330458  0
O  O50  1  0.15956815  0.34750757  0.51269600  1  -1.265008  0  -0.246377  -0.599656  0  2.33666  0
O  O51  1  0.37849412  0.48961690  0.61069724  1  -1.259816  0  -0.236356  -0.601653  0  2.344552  0
O  O52  1  0.50164611  0.35182612  0.48277779  1  -1.26322  0  -0.237379  -0.593913  0  2.352601  0
O  O53  1  0.02799930  0.51376683  0.61257695  1  -1.25738  0  -0.240547  -0.606972  0  2.333862  0
O  O54  1  0.84809991  0.64584401  0.49119889  1  -1.25087  0  -0.242976  -0.603492  0  2.335963  0
O  O55  1  0.62928369  0.50831481  0.39388673  1  -1.261334  0  -0.231883  -0.589634  0  2.362891  0
O  O56  1  0.23906381  0.54721905  0.46710475  1  -1.406913  0  -0.44817  -0.986717  0  2.196014  0
O  O57  1  0.75908616  0.44975097  0.53891703  1  -1.4425  0  -0.449484  -0.99187  0  2.196494  0
