# generated using pymatgen
data_CuH22C22(N4O)2
_symmetry_space_group_name_H-M   'P 1'
_cell_length_a   7.51819293
_cell_length_b   8.46413987
_cell_length_c   10.73292196
_cell_angle_alpha   94.16648705
_cell_angle_beta   110.31075052
_cell_angle_gamma   110.24564707
_symmetry_Int_Tables_number   1
_chemical_formula_structural   CuH22C22(N4O)2
_chemical_formula_sum   'Cu1 H22 C22 N8 O2'
_cell_volume   586.35109720
_cell_formula_units_Z   1
loop_
 _symmetry_equiv_pos_site_id
 _symmetry_equiv_pos_as_xyz
  1  'x, y, z'
loop_
 _atom_site_type_symbol
 _atom_site_label
 _atom_site_symmetry_multiplicity
 _atom_site_fract_x
 _atom_site_fract_y
 _atom_site_fract_z
 _atom_site_occupancy
 _atom_site_hle17_ddec_charge
 _atom_site_hle17_ddec_spin_density
 _atom_site_hle17_ddec_sum_bond_order
 _atom_site_hle17_magmom
 _atom_site_hse06_10hf_ddec_charge
 _atom_site_hse06_10hf_ddec_spin_density
 _atom_site_hse06_10hf_ddec_sum_bond_order
 _atom_site_hse06_10hf_magmom
 _atom_site_hse06_ddec_charge
 _atom_site_hse06_ddec_spin_density
 _atom_site_hse06_ddec_sum_bond_order
 _atom_site_hse06_magmom
 _atom_site_pbe_cm5_charge
 _atom_site_pbe_ddec_charge
 _atom_site_pbe_ddec_spin_density
 _atom_site_pbe_ddec_sum_bond_order
 _atom_site_pbe_magmom
Cu  Cu0  1  0.99999516  0.99998638  0.99999935  1  0.810487  -0.651882  1.958715  -0.453  0.819564  -0.768362  2.341288  -0.61  0.908497  -0.844914  2.273283  -0.708  0.794372  0.767115  -0.708498  2.386049  -0.54
H  H1  1  0.59244411  0.41699814  0.31445654  1  0.321552  0.000264  0.901591  0.0  0.309479  2.4e-05  0.957861  0.0  0.315546  1.4e-05  0.953556  0.0  0.306314  0.305244  3.8e-05  0.960828  0.0
H  H2  1  0.40756201  0.58299371  0.68553557  1  0.321623  0.000261  0.901605  0.0  0.309625  2.4e-05  0.957788  0.0  0.315695  1.4e-05  0.95347  0.0  0.306326  0.305392  3.8e-05  0.960756  0.0
H  H3  1  0.82084187  0.49891194  0.46644482  1  0.34774  0.000117  0.927474  0.0  0.325465  -6e-05  0.997124  0.0  0.335154  -3.2e-05  0.988124  0.0  0.292656  0.318655  -4.7e-05  1.003408  0.0
H  H4  1  0.17917032  0.50110455  0.53354689  1  0.34787  0.000118  0.927374  0.0  0.325636  -6e-05  0.996956  0.0  0.335324  -3.2e-05  0.987953  0.0  0.292701  0.318826  -4.7e-05  1.003247  0.0
H  H5  1  0.23744759  0.27148974  0.25763953  1  0.079093  -0.000958  0.950067  -0.001  0.09009  -0.000979  1.0117  -0.001  0.091856  -0.000707  1.009011  -0.001  0.117211  0.088186  -0.001105  1.014302  -0.001
H  H6  1  0.76255580  0.72849052  0.74235010  1  0.079161  -0.000958  0.950073  -0.001  0.090136  -0.000979  1.01171  -0.001  0.091906  -0.000707  1.009023  -0.001  0.11723  0.088231  -0.001105  1.014314  -0.001
H  H7  1  0.37671294  0.28258904  0.50676627  1  0.108578  -0.000481  0.945237  0.0  0.125667  -0.000536  0.993655  -0.001  0.128458  -0.000383  0.993279  0.0  0.108821  0.123361  -0.000613  0.994421  -0.001
H  H8  1  0.62329060  0.71740927  0.49322572  1  0.108598  -0.000484  0.945299  0.0  0.125703  -0.000536  0.993695  -0.001  0.128493  -0.000383  0.993318  0.0  0.108856  0.123398  -0.000613  0.99446  -0.001
H  H9  1  0.07882567  0.72662857  0.40981360  1  0.111596  -0.000585  0.981646  0.0  0.121057  -0.000605  1.044922  -0.001  0.123967  -0.000416  1.044772  0.0  0.106593  0.118547  -0.000651  1.045725  -0.001
H  H10  1  0.92116781  0.27337143  0.59020505  1  0.111577  -0.000583  0.981665  0.0  0.121036  -0.000605  1.044962  -0.001  0.123947  -0.000416  1.044813  0.0  0.106553  0.118526  -0.000651  1.045762  -0.001
H  H11  1  0.95820832  0.73836471  0.16400917  1  0.089153  -0.001077  0.939126  -0.002  0.097365  -0.000984  1.003116  -0.001  0.099027  -0.000672  1.000949  -0.001  0.119974  0.095536  -0.001194  1.005238  -0.001
H  H12  1  0.04177953  0.26161475  0.83600283  1  0.089266  -0.001081  0.939023  -0.002  0.097445  -0.000984  1.003041  -0.001  0.099112  -0.000672  1.000871  -0.001  0.11996  0.095612  -0.001194  1.005159  -0.001
H  H13  1  0.38922188  0.90740547  0.64334407  1  0.071154  0.000264  0.946985  0.0  0.089238  0.00015  1.011688  0.0  0.089127  0.000183  1.013797  0.0  0.091572  0.089142  0.000103  1.010342  0.0
H  H14  1  0.61079360  0.09261427  0.35666825  1  0.071064  0.000258  0.947006  0.0  0.089172  0.00015  1.011708  0.0  0.089062  0.000183  1.013818  0.0  0.091563  0.089054  0.000103  1.010378  0.0
H  H15  1  0.17196561  0.93393804  0.64934076  1  0.081105  0.000381  0.938189  0.0  0.100287  0.000238  0.998264  0.0  0.100102  0.000258  1.000768  0.0  0.096313  0.100397  0.000191  0.996505  0.0
H  H16  1  0.82803697  0.06606367  0.35066618  1  0.081086  0.000389  0.938176  0.0  0.100276  0.000237  0.998263  0.0  0.100094  0.000259  1.000766  0.0  0.096311  0.100384  0.000191  0.996497  0.0
H  H17  1  0.59269639  0.23267246  0.71569478  1  0.093019  1e-06  0.960288  0.0  0.11341  1.2e-05  1.02276  0.0  0.114511  8e-06  1.023207  0.0  0.082517  0.112628  9e-06  1.022428  0.0
H  H18  1  0.40728977  0.76735145  0.28430442  1  0.092996  1e-05  0.960294  0.0  0.113371  1.2e-05  1.022791  0.0  0.114472  8e-06  1.023239  0.0  0.082499  0.112591  9e-06  1.022456  0.0
H  H19  1  0.49444860  0.14515993  0.83437717  1  0.096222  0.0002  0.968997  0.0  0.120939  7.7e-05  1.024982  0.0  0.120692  6.2e-05  1.027385  0.0  0.0836  0.120812  7.7e-05  1.02359  0.0
H  H20  1  0.50554207  0.85487036  0.16562545  1  0.096391  0.0002  0.968747  0.0  0.121104  7.7e-05  1.024714  0.0  0.12086  6.1e-05  1.02711  0.0  0.083669  0.12096  7.7e-05  1.023337  0.0
H  H21  1  0.37118667  0.25689341  0.72597792  1  0.087078  -2e-06  0.967376  0.0  0.10643  -9e-06  1.034341  0.0  0.107442  -5e-06  1.034962  0.0  0.079521  0.105571  -2.1e-05  1.03396  0.0
H  H22  1  0.62878499  0.74311520  0.27401107  1  0.087127  -9e-06  0.967503  0.0  0.106548  -9e-06  1.034393  0.0  0.107558  -5e-06  1.035016  0.0  0.079587  0.105684  -2.1e-05  1.03401  0.0
C  C23  1  0.72911900  0.30311733  0.15446106  1  -0.310715  -0.063041  3.920426  -0.059  -0.318458  -0.014271  4.19206  -0.015  -0.345249  -0.006577  4.213059  -0.008  -0.055305  -0.297653  -0.02279  4.174596  -0.022
C  C24  1  0.27088738  0.69688095  0.84553254  1  -0.31096  -0.063127  3.9205  -0.059  -0.318705  -0.014299  4.192137  -0.015  -0.345511  -0.006549  4.213143  -0.008  -0.055399  -0.297905  -0.022791  4.174683  -0.022
C  C25  1  0.82521721  0.24087822  0.08606393  1  0.364427  0.030992  3.816791  0.021  0.359483  -0.001421  4.093594  -0.006  0.386632  -0.001126  4.108585  -0.006  0.201124  0.340295  -0.002069  4.083177  -0.006
C  C26  1  0.17477998  0.75910963  0.91393042  1  0.364726  0.031017  3.81675  0.021  0.359794  -0.001413  4.093524  -0.006  0.386951  -0.001132  4.10851  -0.006  0.201333  0.340606  -0.00207  4.083113  -0.006
C  C27  1  0.51727321  0.26266746  0.08948878  1  0.305578  0.028499  3.864279  0.023  0.303719  0.003545  4.145815  0.003  0.323621  0.002935  4.164815  0.002  0.17172  0.290057  0.003786  4.131518  0.004
C  C28  1  0.48273724  0.73733324  0.91051063  1  0.305668  0.028522  3.864189  0.023  0.303799  0.00355  4.145728  0.003  0.323707  0.002938  4.164723  0.002  0.171777  0.290138  0.003785  4.131437  0.004
C  C29  1  0.84819394  0.39798035  0.29643329  1  0.625906  0.005755  3.932012  0.007  0.577176  -0.000736  4.235482  0.0  0.608757  -0.000265  4.236276  0.0  0.227886  0.555192  -0.000799  4.233985  0.0
C  C30  1  0.15182021  0.60202830  0.70356107  1  0.625866  0.005778  3.932261  0.007  0.577158  -0.000731  4.235746  0.0  0.608731  -0.000269  4.236552  0.0  0.227857  0.555175  -0.0008  4.234251  0.0
C  C31  1  0.21051056  0.15365209  0.29617360  1  0.122868  0.009325  3.734053  0.007  0.09232  0.002384  3.993317  0.001  0.103199  0.004205  4.011523  0.003  0.044489  0.085217  0.001031  3.982074  0.0
C  C32  1  0.78948965  0.84633308  0.70382404  1  0.122705  0.00933  3.734031  0.007  0.092188  0.002384  3.993281  0.001  0.103057  0.004207  4.011494  0.003  0.044406  0.085084  0.001031  3.982053  0.0
C  C33  1  0.28505886  0.15836510  0.43514069  1  -0.17387  -0.008893  3.704664  -0.009  -0.189413  -0.003974  3.946437  -0.005  -0.197719  -0.003552  3.965447  -0.004  -0.087261  -0.184253  -0.004108  3.934205  -0.005
C  C34  1  0.71494346  0.84163039  0.56485826  1  -0.173722  -0.008886  3.704612  -0.009  -0.189294  -0.003974  3.946374  -0.005  -0.197598  -0.003552  3.965385  -0.004  -0.08724  -0.184136  -0.004108  3.934151  -0.005
C  C35  1  0.23963362  0.00451432  0.48098881  1  0.162495  0.010813  3.693366  0.007  0.179421  0.00462  3.927183  0.003  0.186515  0.005273  3.947282  0.003  0.018618  0.174732  0.003977  3.913409  0.002
C  C36  1  0.76036692  0.99548617  0.51901569  1  0.162274  0.010812  3.693287  0.007  0.179221  0.00462  3.927141  0.003  0.186316  0.005273  3.947243  0.003  0.018551  0.174534  0.003977  3.913362  0.002
C  C37  1  0.11886754  0.85088824  0.38107437  1  -0.173919  -0.00929  3.690766  -0.009  -0.188561  -0.003917  3.930939  -0.005  -0.19739  -0.003513  3.95126  -0.004  -0.085241  -0.183122  -0.004229  3.91801  -0.005
C  C38  1  0.88112709  0.14910560  0.61893475  1  -0.173706  -0.009298  3.690586  -0.009  -0.188354  -0.003918  3.930716  -0.005  -0.197184  -0.003513  3.951037  -0.004  -0.085096  -0.182911  -0.004229  3.917782  -0.005
C  C39  1  0.05129329  0.85525905  0.24414526  1  0.137736  0.009052  3.692689  0.006  0.111087  0.002371  3.94196  0.001  0.120991  0.004178  3.960999  0.003  0.051028  0.104868  0.000983  3.930093  0.0
C  C40  1  0.94869764  0.14472705  0.75586238  1  0.13747  0.009061  3.692792  0.006  0.11086  0.00237  3.942027  0.001  0.120762  0.004178  3.961067  0.003  0.050969  0.104646  0.000982  3.930159  0.0
C  C41  1  0.31105870  0.99738930  0.62898052  1  -0.122168  -0.000514  3.729983  -0.001  -0.160159  -1.3e-05  3.981286  0.0  -0.16192  8.8e-05  3.995071  0.0  -0.162355  -0.158712  -0.000133  3.971463  0.0
C  C42  1  0.68894254  0.00262150  0.37102588  1  -0.121921  -0.000518  3.72968  -0.001  -0.159993  -1.3e-05  3.98107  0.0  -0.161764  8.8e-05  3.994869  0.0  -0.162285  -0.158528  -0.000133  3.971231  0.0
C  C43  1  0.44995599  0.16832243  0.73108070  1  -0.277555  7.1e-05  3.72235  0.0  -0.349578  2.4e-05  3.95978  0.0  -0.351476  4.5e-05  3.971066  0.0  -0.250986  -0.347819  -8e-06  3.951938  0.0
C  C44  1  0.55003053  0.83169630  0.26891818  1  -0.277836  6.7e-05  3.722238  0.0  -0.349887  2.3e-05  3.959691  0.0  -0.351782  4.5e-05  3.970981  0.0  -0.251175  -0.348107  -8e-06  3.951855  0.0
N  N45  1  0.74671419  0.45062448  0.36197028  1  -0.715045  -0.006922  3.104824  -0.008  -0.681569  -0.002406  3.344469  -0.003  -0.703586  -0.001183  3.337725  -0.001  -0.581943  -0.665563  -0.004026  3.348578  -0.004
N  N46  1  0.25329713  0.54938423  0.63802155  1  -0.71522  -0.006932  3.104966  -0.008  -0.681863  -0.002406  3.344456  -0.003  -0.703875  -0.001185  3.337709  -0.001  -0.581972  -0.665858  -0.004026  3.34857  -0.004
N  N47  1  0.90805662  0.19059464  0.02712050  1  -0.47176  -0.066137  2.936345  -0.077  -0.470318  -0.035152  3.240462  -0.046  -0.500563  -0.027085  3.244569  -0.038  -0.373593  -0.451421  -0.040548  3.239168  -0.049
N  N48  1  0.09193908  0.80938402  0.97287745  1  -0.471938  -0.066129  2.936438  -0.077  -0.470524  -0.035147  3.240565  -0.046  -0.500768  -0.027094  3.244661  -0.038  -0.373733  -0.451627  -0.040547  3.239276  -0.049
N  N49  1  0.33927868  0.23081343  0.03961635  1  -0.454039  -0.035737  2.702379  -0.041  -0.462234  -0.005784  2.968307  -0.008  -0.482066  -0.00227  2.975745  -0.005  -0.335913  -0.448037  -0.010146  2.962821  -0.013
N  N50  1  0.66072204  0.76918463  0.96038335  1  -0.453967  -0.035733  2.702358  -0.041  -0.462162  -0.005776  2.968297  -0.008  -0.481995  -0.002279  2.975733  -0.005  -0.335912  -0.447965  -0.010142  2.962815  -0.013
N  N51  1  0.09709092  0.00499115  0.20209484  1  -0.306702  -0.070808  3.342845  -0.085  -0.251825  -0.056996  3.624661  -0.077  -0.2865  -0.046458  3.651674  -0.068  -0.344751  -0.232018  -0.061057  3.608883  -0.078
N  N52  1  0.90290664  0.99499126  0.79790756  1  -0.306609  -0.070814  3.34301  -0.085  -0.25172  -0.056998  3.624759  -0.077  -0.286399  -0.046461  3.651784  -0.068  -0.34471  -0.231915  -0.061057  3.608986  -0.078
O  O53  1  0.03762024  0.42880567  0.35475962  1  -0.604818  -0.005343  1.917352  -0.007  -0.560332  -0.001419  2.138039  -0.002  -0.583406  -0.000546  2.131053  -0.001  -0.319799  -0.543437  -0.002402  2.142354  -0.003
O  O54  1  0.96239663  0.57121478  0.64523071  1  -0.604786  -0.005335  1.917439  -0.007  -0.560318  -0.001418  2.138145  -0.002  -0.583387  -0.000549  2.131159  -0.001  -0.319809  -0.543408  -0.002402  2.142427  -0.003
