# generated using pymatgen
data_AgH8C12N4O3
_symmetry_space_group_name_H-M   'P 1'
_cell_length_a   9.75011337
_cell_length_b   9.79891607
_cell_length_c   13.72650000
_cell_angle_alpha   76.32105205
_cell_angle_beta   76.25124261
_cell_angle_gamma   76.45511346
_symmetry_Int_Tables_number   1
_chemical_formula_structural   AgH8C12N4O3
_chemical_formula_sum   'Ag4 H32 C48 N16 O12'
_cell_volume   1215.51596536
_cell_formula_units_Z   4
loop_
 _symmetry_equiv_pos_site_id
 _symmetry_equiv_pos_as_xyz
  1  'x, y, z'
loop_
 _atom_site_type_symbol
 _atom_site_label
 _atom_site_symmetry_multiplicity
 _atom_site_fract_x
 _atom_site_fract_y
 _atom_site_fract_z
 _atom_site_occupancy
 _atom_site_hle17_bader_spin_density
 _atom_site_hle17_ddec_charge
 _atom_site_hle17_ddec_spin_density
 _atom_site_hle17_ddec_sum_bond_order
 _atom_site_hle17_magmom
 _atom_site_hse06_10hf_bader_spin_density
 _atom_site_hse06_10hf_ddec_charge
 _atom_site_hse06_10hf_ddec_spin_density
 _atom_site_hse06_10hf_ddec_sum_bond_order
 _atom_site_hse06_10hf_magmom
 _atom_site_hse06_bader_spin_density
 _atom_site_hse06_ddec_charge
 _atom_site_hse06_ddec_spin_density
 _atom_site_hse06_ddec_sum_bond_order
 _atom_site_hse06_magmom
 _atom_site_pbe_bader_charge
 _atom_site_pbe_bader_spin_density
 _atom_site_pbe_cm5_charge
 _atom_site_pbe_ddec_charge
 _atom_site_pbe_ddec_spin_density
 _atom_site_pbe_ddec_sum_bond_order
 _atom_site_pbe_magmom
Ag  Ag0  1  0.71028037  0.22437278  0.85760293  1  0  0.594951  0  1.317729  0  0  0.468229  0  1.745901  0  0  0.501198  0  1.696825  0  0.613605  0  0.442294  0.446047  0  1.779738  0
Ag  Ag1  1  0.22510344  0.71086228  0.35799694  1  0  0.593557  0  1.327371  0  0  0.466943  0  1.75739  0  0  0.499668  0  1.708311  0  0.612581  0  0.442852  0.444946  0  1.791243  0
Ag  Ag2  1  0.26631221  0.24057794  0.93772806  1  0  0.517104  0  1.481809  0  0  0.37088  0  1.929011  0  0  0.395364  0  1.889684  0  0.597492  0  0.488153  0.355087  0  1.955761  0
Ag  Ag3  1  0.24100455  0.26632416  0.43744640  1  0  0.517267  0  1.48132  0  0  0.371223  0  1.928047  0  0  0.395751  0  1.888709  0  0.598756  0  0.488412  0.355457  0  1.954677  0
H  H4  1  0.68230062  0.87584111  0.96577220  1  0  0.114437  0  0.913083  0  0  0.12663  0  0.971607  0  0  0.129108  0  0.968051  0  0.149546  0  0.150748  0.12451  0  0.974561  0
H  H5  1  0.87597456  0.68243053  0.46558640  1  0  0.11434  0  0.91315  0  0  0.126487  0  0.971732  0  0  0.129012  0  0.96812  0  0.151526  0  0.150812  0.124398  0  0.974636  0
H  H6  1  0.83354586  0.04820371  0.65657945  1  0  0.115224  0  0.969074  0  0  0.122793  0  1.029461  0  0  0.125694  0  1.026457  0  0.218643  0  0.135782  0.120588  0  1.031771  0
H  H7  1  0.04900081  0.83362983  0.15645621  1  0  0.115148  0  0.969895  0  0  0.123145  0  1.0298  0  0  0.126067  0  1.026777  0  0.201087  0  0.135676  0.120915  0  1.032128  0
H  H8  1  0.65495538  0.62435634  0.92815746  1  0  0.114467  0  0.872797  0  0  0.130737  0  0.922901  0  0  0.131272  0  0.922241  0  0.144751  0  0.150849  0.130049  0  0.923874  0
H  H9  1  0.62286371  0.65599982  0.42848446  1  0  0.114405  0  0.872673  0  0  0.130797  0  0.922734  0  0  0.131358  0  0.922042  0  0.110384  0  0.150685  0.130075  0  0.923775  0
H  H10  1  0.73952283  0.58925194  0.80308343  1  0  0.12392  0  0.924648  0  0  0.131661  0  0.990129  0  0  0.133629  0  0.988421  0  0.193956  0  0.142986  0.129677  0  0.992463  0
H  H11  1  0.58752287  0.73998066  0.30352315  1  0  0.124377  0  0.924379  0  0  0.13172  0  0.99073  0  0  0.133757  0  0.988882  0  0.184276  0  0.142924  0.129644  0  0.993207  0
H  H12  1  0.85151564  0.49780809  0.20609459  1  0  0.113024  0  0.960201  0  0  0.120274  0  1.024203  0  0  0.122776  0  1.024653  0  0.114345  0  0.108763  0.11877  0  1.023564  0
H  H13  1  0.49739827  0.85263175  0.70592363  1  0  0.113094  0  0.95973  0  0  0.120021  0  1.02416  0  0  0.122487  0  1.024621  0  0.123706  0  0.108856  0.118552  0  1.023478  0
H  H14  1  0.94998541  0.42071701  0.36757276  1  0  0.073998  0  0.940819  0  0  0.081434  0  1.007797  0  0  0.083631  0  1.006294  0  0.113368  0  0.112106  0.079638  0  1.009292  0
H  H15  1  0.42036003  0.95079959  0.86747809  1  0  0.074192  0  0.941149  0  0  0.081269  0  1.008551  0  0  0.083444  0  1.007066  0  0.114065  0  0.111928  0.079485  0  1.010034  0
H  H16  1  0.36935936  0.36079685  0.20615590  1  0  0.07343  0  0.952266  0  0  0.082463  0  1.017493  0  0  0.083658  0  1.017524  0  0.075012  0  0.113035  0.082021  0  1.016877  0
H  H17  1  0.36140008  0.36789731  0.70625571  1  0  0.074638  0  0.95057  0  0  0.083247  0  1.015858  0  0  0.084457  0  1.015896  0  0.086614  0  0.113368  0.082802  0  1.01521  0
H  H18  1  0.29062235  0.42881959  0.03903812  1  0  0.11807  0  0.9856  0  0  0.126419  0  1.04971  0  0  0.130749  0  1.046369  0  0.13895  0  0.105256  0.123081  0  1.052519  0
H  H19  1  0.42923651  0.28942550  0.53915084  1  0  0.117348  0  0.985207  0  0  0.125464  0  1.049872  0  0  0.12975  0  1.046524  0  0.142946  0  0.104998  0.122181  0  1.052663  0
H  H20  1  0.01272866  0.19597418  0.82927560  1  0  0.117353  0  0.986297  0  0  0.121028  0  1.060232  0  0  0.12578  0  1.055628  0  0.147637  0  0.107359  0.117482  0  1.063916  0
H  H21  1  0.19487861  0.01277739  0.32924178  1  0  0.116831  0  0.987827  0  0  0.120653  0  1.061626  0  0  0.125414  0  1.057021  0  0.150204  0  0.10734  0.117118  0  1.065268  0
H  H22  1  0.07466210  0.13532034  0.65445789  1  0  0.089259  0  0.952437  0  0  0.095034  0  1.020862  0  0  0.097965  0  1.018217  0  0.131952  0  0.117398  0.092854  0  1.022925  0
H  H23  1  0.13403772  0.07487506  0.15444031  1  0  0.089345  0  0.954444  0  0  0.095128  0  1.022855  0  0  0.0981  0  1.020148  0  0.127825  0  0.117267  0.092903  0  1.02503  0
H  H24  1  0.10682531  0.55339247  0.51552358  1  0  0.061529  0  0.981601  0  0  0.064171  0  1.065997  0  0  0.068516  0  1.059867  0  0.101607  0  0.101978  0.061003  0  1.070271  0
H  H25  1  0.55442873  0.10663084  0.01548492  1  0  0.061185  0  0.982461  0  0  0.063901  0  1.066984  0  0  0.068081  0  1.061011  0  0.106138  0  0.101998  0.060829  0  1.07117  0
H  H26  1  0.02210738  0.63745566  0.68130198  1  0  0.115728  0  0.971705  0  0  0.118342  0  1.043071  0  0  0.121652  0  1.042187  0  0.108661  0  0.108105  0.115766  0  1.044272  0
H  H27  1  0.63878389  0.02198049  0.18115891  1  0  0.115541  0  0.973284  0  0  0.118759  0  1.043954  0  0  0.122074  0  1.0431  0  0.097914  0  0.108142  0.116171  0  1.045149  0
H  H28  1  0.60460440  0.42026354  0.12971009  1  0  0.113947  0  0.932529  0  0  0.122055  0  0.996023  0  0  0.126714  0  0.991512  0  0.103966  0  0.107648  0.118696  0  0.999235  0
H  H29  1  0.42031279  0.60438652  0.62973273  1  0  0.113698  0  0.933154  0  0  0.121886  0  0.996661  0  0  0.126535  0  0.992151  0  0.103673  0  0.107487  0.118522  0  0.999889  0
H  H30  1  0.92733454  0.08096055  0.24515857  1  0  0.101055  0  0.977795  0  0  0.109101  0  1.047107  0  0  0.112474  0  1.044266  0  0.104011  0  0.103654  0.106594  0  1.049368  0
H  H31  1  0.08122221  0.92744264  0.74516244  1  0  0.101318  0  0.976929  0  0  0.109071  0  1.046648  0  0  0.112523  0  1.043733  0  0.105189  0  0.103474  0.106498  0  1.048966  0
H  H32  1  0.63628982  0.33954577  0.44755300  1  0  0.105665  0  0.953387  0  0  0.114443  0  1.017567  0  0  0.118616  0  1.013844  0  0.129454  0  0.106037  0.111458  0  1.020208  0
H  H33  1  0.33930435  0.63629631  0.94762325  1  0  0.10499  0  0.954001  0  0  0.1138  0  1.018358  0  0  0.117847  0  1.014769  0  0.129167  0  0.105878  0.110884  0  1.020923  0
H  H34  1  0.03031422  0.98297354  0.48350780  1  0  0.397553  0  0.91154  0  0  0.364326  0  0.990625  0  0  0.378616  0  0.970403  0  0.660741  0  0.289682  0.354346  0  1.004336  0
H  H35  1  0.98315432  0.03035900  0.98339031  1  0  0.397013  0  0.911775  0  0  0.363863  0  0.991096  0  0  0.378164  0  0.970854  0  0.665888  0  0.289482  0.353878  0  1.004373  0
C  C36  1  0.72203356  0.89145590  0.88383834  1  0  0.170798  0  3.655005  0  0  0.100235  0  3.930437  0  0  0.115849  0  3.941518  0  0.978234  0  0.165276  0.090068  0  3.923026  0
C  C37  1  0.89158041  0.72208140  0.38367957  1  0  0.171116  0  3.656977  0  0  0.100147  0  3.932033  0  0  0.115717  0  3.943157  0  0.980621  0  0.165651  0.089936  0  3.924622  0
C  C38  1  0.80148555  0.97373622  0.72670611  1  0  0.204301  0  3.658743  0  0  0.155224  0  3.940856  0  0  0.165933  0  3.954092  0  0.944879  0  0.149778  0.148189  0  3.932285  0
C  C39  1  0.97418812  0.80152326  0.22658994  1  0  0.204605  0  3.658508  0  0  0.154863  0  3.940924  0  0  0.165569  0  3.954113  0  0.961151  0  0.14964  0.147851  0  3.932351  0
C  C40  1  0.74821569  0.63607064  0.86603359  1  0  0.073209  0  3.589967  0  0  -0.008219  0  3.838999  0  0  0.001138  0  3.845726  0  0.618323  0  0.077234  -0.014885  0  3.836011  0
C  C41  1  0.63488859  0.74857414  0.36630740  1  0  0.073502  0  3.591074  0  0  -0.008552  0  3.840229  0  0  0.000756  0  3.84701  0  0.660805  0  0.077481  -0.015209  0  3.837314  0
C  C42  1  0.00853786  0.48900819  0.01591061  1  0  0.307136  0  3.767733  0  0  0.284862  0  4.03861  0  0  0.295584  0  4.05453  0  0.981399  0  0.226902  0.277564  0  4.027892  0
C  C43  1  0.48899950  0.00858172  0.51590613  1  0  0.305898  0  3.768703  0  0  0.284821  0  4.038054  0  0  0.29554  0  4.053974  0  0.981785  0  0.226742  0.277512  0  4.027348  0
C  C44  1  0.06300633  0.46534216  0.10999816  1  0  0.058436  0  3.757991  0  0  0.074398  0  3.984676  0  0  0.07641  0  4.005882  0  -0.014652  0  0.016301  0.073169  0  3.970553  0
C  C45  1  0.46539092  0.06297894  0.60995448  1  0  0.058904  0  3.757999  0  0  0.074466  0  3.984502  0  0  0.076472  0  4.005714  0  -0.025503  0  0.016403  0.07325  0  3.970387  0
C  C46  1  0.96690068  0.46915495  0.20345443  1  0  -0.128242  0  3.703114  0  0  -0.149613  0  3.948663  0  0  -0.156091  0  3.972358  0  -0.038785  0  -0.077206  -0.145429  0  3.932647  0
C  C47  1  0.46890303  0.96743469  0.70337693  1  0  -0.128391  0  3.703401  0  0  -0.149441  0  3.94916  0  0  -0.15586  0  3.972896  0  -0.038756  0  -0.077193  -0.145296  0  3.933075  0
C  C48  1  0.02136785  0.42703244  0.29288022  1  0  0.11197  0  3.733595  0  0  0.081177  0  3.99057  0  0  0.086159  0  4.010819  0  0.511883  0  0.037503  0.078004  0  3.977013  0
C  C49  1  0.42685259  0.02174520  0.79282867  1  0  0.111582  0  3.734628  0  0  0.081044  0  3.991566  0  0  0.086064  0  4.011735  0  0.511482  0  0.037684  0.077864  0  3.978016  0
C  C50  1  0.25536896  0.39176762  0.20310909  1  0  0.134818  0  3.706046  0  0  0.106967  0  3.953104  0  0  0.11282  0  3.973011  0  0.56367  0  0.045746  0.103265  0  3.939022  0
C  C51  1  0.39219210  0.25446869  0.70316173  1  0  0.13415  0  3.707517  0  0  0.107047  0  3.954296  0  0  0.11291  0  3.974171  0  0.489208  0  0.046019  0.103363  0  3.940198  0
C  C52  1  0.21076108  0.42963028  0.10987997  1  0  -0.144722  0  3.690331  0  0  -0.162072  0  3.930087  0  0  -0.168458  0  3.949397  0  -0.114079  0  -0.080494  -0.157978  0  3.917513  0
C  C53  1  0.42997993  0.20997402  0.60991228  1  0  -0.144735  0  3.69163  0  0  -0.162094  0  3.931554  0  0  -0.168472  0  3.950925  0  -0.057713  0  -0.080587  -0.158044  0  3.918933  0
C  C54  1  0.98795732  0.46361277  0.86923077  1  0  0.305946  0  3.68874  0  0  0.267052  0  3.956523  0  0  0.282957  0  3.969151  0  0.979378  0  0.24899  0.256547  0  3.94789  0
C  C55  1  0.46355739  0.98813819  0.36921614  1  0  0.304284  0  3.69223  0  0  0.266602  0  3.957943  0  0  0.282417  0  3.970681  0  0.979081  0  0.248835  0.256129  0  3.949282  0
C  C56  1  0.01385600  0.42247314  0.76924944  1  0  0.044629  0  3.781306  0  0  0.056316  0  4.023565  0  0  0.05824  0  4.042945  0  0.003916  0  0.013335  0.054604  0  4.010798  0
C  C57  1  0.42253364  0.01400091  0.26917688  1  0  0.044941  0  3.782234  0  0  0.056789  0  4.023497  0  0  0.058716  0  4.042886  0  0.014274  0  0.013547  0.055062  0  4.010767  0
C  C58  1  0.02718728  0.27957748  0.76159011  1  0  -0.157095  0  3.715662  0  0  -0.176597  0  3.971832  0  0  -0.181681  0  3.988575  0  -0.072348  0  -0.082766  -0.173725  0  3.96136  0
C  C59  1  0.27895194  0.02729701  0.26153949  1  0  -0.156379  0  3.715635  0  0  -0.176251  0  3.971477  0  0  -0.181326  0  3.98821  0  -0.072115  0  -0.082536  -0.173401  0  3.961036  0
C  C60  1  0.06426750  0.24450623  0.66482215  1  0  0.138901  0  3.670246  0  0  0.111295  0  3.917388  0  0  0.116959  0  3.935455  0  0.546074  0  0.053344  0.107654  0  3.905331  0
C  C61  1  0.24376398  0.06442812  0.16481616  1  0  0.138661  0  3.670878  0  0  0.110944  0  3.917939  0  0  0.116575  0  3.936053  0  0.540093  0  0.053031  0.107321  0  3.905861  0
C  C62  1  0.07784996  0.47842329  0.58647877  1  0  0.13622  0  3.689926  0  0  0.113165  0  3.929194  0  0  0.117921  0  3.948155  0  0.451308  0  0.049528  0.11034  0  3.916038  0
C  C63  1  0.47899287  0.07781406  0.08645424  1  0  0.134462  0  3.692001  0  0  0.111424  0  3.931538  0  0  0.116226  0  3.950615  0  0.449952  0  0.048442  0.108604  0  3.918239  0
C  C64  1  0.03463044  0.52474574  0.67929702  1  0  -0.134651  0  3.682805  0  0  -0.154084  0  3.925988  0  0  -0.160043  0  3.947536  0  0.014563  0  -0.075869  -0.149983  0  3.911464  0
C  C65  1  0.52547606  0.03463275  0.17921923  1  0  -0.133742  0  3.683588  0  0  -0.153858  0  3.926137  0  0  -0.159798  0  3.947611  0  0.013435  0  -0.075811  -0.149762  0  3.911665  0
C  C66  1  0.82637208  0.20899435  0.07185938  1  0  0.640018  0  3.923371  0  0  0.590662  0  4.216045  0  0  0.624592  0  4.210165  0  1.556163  0  0.199983  0.567919  0  4.219011  0
C  C67  1  0.20914215  0.82620211  0.57196657  1  0  0.64055  0  3.923212  0  0  0.591027  0  4.21584  0  0  0.624988  0  4.209948  0  1.557702  0  0.200826  0.568266  0  4.218806  0
C  C68  1  0.86969597  0.13547435  0.44082906  1  0  0.6411  0  3.852128  0  0  0.592245  0  4.148838  0  0  0.62536  0  4.140643  0  1.535046  0  0.218758  0.569834  0  4.153829  0
C  C69  1  0.13564719  0.86971284  0.94077590  1  0  0.641265  0  3.85134  0  0  0.592019  0  4.148317  0  0  0.625142  0  4.14012  0  1.534339  0  0.218614  0.569604  0  4.153302  0
C  C70  1  0.47321393  0.50467967  0.31558061  1  0  0.612891  0  3.977887  0  0  0.562793  0  4.268967  0  0  0.595835  0  4.265763  0  1.568549  0  0.17709  0.540392  0  4.270116  0
C  C71  1  0.50477899  0.47315169  0.81543302  1  0  0.61228  0  3.977379  0  0  0.562197  0  4.268742  0  0  0.595284  0  4.26555  0  1.566906  0  0.177109  0.539775  0  4.269859  0
C  C72  1  0.60232223  0.39015480  0.29194505  1  0  -0.064575  0  3.759818  0  0  -0.037549  0  4.000084  0  0  -0.045473  0  4.020854  0  0.000114  0  -0.020857  -0.03233  0  3.985438  0
C  C73  1  0.39021170  0.60223682  0.79197244  1  0  -0.064731  0  3.758931  0  0  -0.037971  0  3.999778  0  0  -0.046066  0  4.020767  0  -0.001719  0  -0.020992  -0.032634  0  3.984961  0
C  C74  1  0.65408722  0.35828245  0.19386350  1  0  -0.068036  0  3.679847  0  0  -0.10724  0  3.934145  0  0  -0.102527  0  3.949016  0  -0.048484  0  -0.075494  -0.109588  0  3.923061  0
C  C75  1  0.35834067  0.65392284  0.69391274  1  0  -0.068264  0  3.680108  0  0  -0.107628  0  3.934588  0  0  -0.102849  0  3.949493  0  -0.043363  0  -0.075719  -0.110011  0  3.92343  0
C  C76  1  0.77064920  0.24586986  0.17699502  1  0  -0.080505  0  3.757758  0  0  -0.052767  0  3.995579  0  0  -0.062784  0  4.018984  0  0.008274  0  -0.023305  -0.046387  0  3.979782  0
C  C77  1  0.24594410  0.77047335  0.67706608  1  0  -0.080177  0  3.758847  0  0  -0.052229  0  3.996329  0  0  -0.06226  0  4.019725  0  0.008504  0  -0.023329  -0.045822  0  3.980506  0
C  C78  1  0.83721088  0.16800659  0.25832956  1  0  -0.06454  0  3.694841  0  0  -0.105601  0  3.944623  0  0  -0.101073  0  3.962695  0  -0.037176  0  -0.082379  -0.108592  0  3.933172  0
C  C79  1  0.16809955  0.83718060  0.75836488  1  0  -0.065028  0  3.696387  0  0  -0.106118  0  3.946205  0  0  -0.101638  0  3.964221  0  -0.03643  0  -0.082313  -0.109082  0  3.934736  0
C  C80  1  0.79098313  0.20383184  0.35513977  1  0  -0.084721  0  3.796001  0  0  -0.057043  0  4.031195  0  0  -0.067162  0  4.055058  0  -0.044158  0  -0.026059  -0.050745  0  4.015439  0
C  C81  1  0.20385765  0.79092231  0.85516025  1  0  -0.084204  0  3.795312  0  0  -0.055986  0  4.029813  0  0  -0.06611  0  4.053619  0  -0.044625  0  -0.025683  -0.04967  0  4.014068  0
C  C82  1  0.67233928  0.31324661  0.37167466  1  0  -0.073574  0  3.711202  0  0  -0.112075  0  3.960571  0  0  -0.108576  0  3.977931  0  -0.120548  0  -0.079452  -0.113936  0  3.948661  0
C  C83  1  0.31317822  0.67227343  0.87170825  1  0  -0.072744  0  3.710479  0  0  -0.111441  0  3.959886  0  0  -0.107785  0  3.977356  0  -0.123243  0  -0.079478  -0.113413  0  3.947915  0
N  N84  1  0.75025514  0.01191430  0.82066849  1  0  -0.385528  0  3.301039  0  0  -0.311021  0  3.623768  0  0  -0.333515  0  3.635229  0  -1.140295  0  -0.357067  -0.296111  0  3.615678  0
N  N85  1  0.01255317  0.75045113  0.32045251  1  0  -0.385712  0  3.306945  0  0  -0.31129  0  3.630629  0  0  -0.333699  0  3.642007  0  -1.143495  0  -0.358374  -0.296432  0  3.622602  0
N  N86  1  0.80596496  0.83662873  0.72913306  1  0  -0.259658  0  2.827309  0  0  -0.250149  0  3.098666  0  0  -0.25803  0  3.112437  0  -0.677385  0  -0.218197  -0.245169  0  3.090384  0
N  N87  1  0.83640348  0.80575743  0.22913109  1  0  -0.259187  0  2.826917  0  0  -0.24991  0  3.097982  0  0  -0.257791  0  3.111749  0  -0.675651  0  -0.217628  -0.244928  0  3.089731  0
N  N88  1  0.75340362  0.78632237  0.82938958  1  0  0.009859  0  3.579655  0  0  0.095536  0  3.813978  0  0  0.082564  0  3.840025  0  -0.827867  0  -0.137457  0.103978  0  3.796682  0
N  N89  1  0.78595398  0.75317302  0.32934573  1  0  0.009077  0  3.582059  0  0  0.096282  0  3.814584  0  0  0.083314  0  3.840661  0  -0.824871  0  -0.138341  0.104715  0  3.797333  0
N  N90  1  0.87543484  0.56056778  0.90667687  1  0  0.000534  0  3.533757  0  0  0.078939  0  3.769712  0  0  0.066149  0  3.794472  0  -0.785193  0  -0.122667  0.087208  0  3.75328  0
N  N91  1  0.55989359  0.87549352  0.40692794  1  0  -0.000163  0  3.539718  0  0  0.078025  0  3.775105  0  0  0.065265  0  3.799929  0  -0.78408  0  -0.12288  0.086308  0  3.758615  0
N  N92  1  0.88628035  0.57707668  0.99954633  1  0  -0.27678  0  2.804287  0  0  -0.279272  0  3.076484  0  0  -0.285979  0  3.089589  0  -0.645278  0  -0.208052  -0.274584  0  3.067692  0
N  N93  1  0.57651267  0.88627200  0.49977919  1  0  -0.275677  0  2.806406  0  0  -0.2787  0  3.078447  0  0  -0.285401  0  3.091551  0  -0.647533  0  -0.208137  -0.274006  0  3.069635  0
N  N94  1  0.07418817  0.41634701  0.93760995  1  0  -0.43681  0  3.172707  0  0  -0.372202  0  3.47353  0  0  -0.392654  0  3.483306  0  -1.117636  0  -0.339829  -0.358655  0  3.466875  0
N  N95  1  0.41666371  0.07437453  0.43742449  1  0  -0.435947  0  3.173423  0  0  -0.372158  0  3.473426  0  0  -0.392583  0  3.483231  0  -1.119581  0  -0.339911  -0.358644  0  3.466813  0
N  N96  1  0.16298501  0.38637410  0.29335320  1  0  -0.310322  0  3.319854  0  0  -0.235694  0  3.610989  0  0  -0.251339  0  3.62555  0  -1.209345  0  -0.344318  -0.224991  0  3.600726  0
N  N97  1  0.38653012  0.16266762  0.79337388  1  0  -0.310394  0  3.320042  0  0  -0.236005  0  3.611203  0  0  -0.251625  0  3.625694  0  -1.206721  0  -0.34444  -0.225314  0  3.600943  0
N  N98  1  0.09388608  0.34108158  0.57868920  1  0  -0.291375  0  3.262947  0  0  -0.215236  0  3.537683  0  0  -0.230273  0  3.552516  0  -1.199637  0  -0.331326  -0.205014  0  3.527328  0
N  N99  1  0.34094197  0.09399997  0.07869864  1  0  -0.290855  0  3.265392  0  0  -0.214808  0  3.540539  0  0  -0.229842  0  3.555333  0  -1.193641  0  -0.331504  -0.204565  0  3.530145  0
O  O100  1  0.93488376  0.10637309  0.06494578  1  0  -0.633475  0  2.037857  0  0  -0.578366  0  2.275146  0  0  -0.60375  0  2.262769  0  -1.178119  0  -0.321756  -0.560589  0  2.282786  0
O  O101  1  0.10665191  0.93471101  0.56501165  1  0  -0.633627  0  2.037702  0  0  -0.578508  0  2.274912  0  0  -0.603856  0  2.262515  0  -1.178053  0  -0.321969  -0.560732  0  2.282601  0
O  O102  1  0.76246627  0.28143735  0.00060211  1  0  -0.631531  0  2.037885  0  0  -0.572771  0  2.306144  0  0  -0.599487  0  2.29466  0  -1.162777  0  -0.338309  -0.554518  0  2.313826  0
O  O103  1  0.28176297  0.76225848  0.50071190  1  0  -0.631838  0  2.042779  0  0  -0.572621  0  2.312019  0  0  -0.599384  0  2.300437  0  -1.163144  0  -0.338802  -0.554297  0  2.319677  0
O  O104  1  0.38980178  0.47802436  0.40213616  1  0  -0.6509  0  2.00253  0  0  -0.580829  0  2.261197  0  0  -0.610002  0  2.24981  0  -1.162281  0  -0.340451  -0.560408  0  2.2684  0
O  O105  1  0.47758412  0.39022325  0.90192005  1  0  -0.650441  0  2.004038  0  0  -0.579949  0  2.26256  0  0  -0.609184  0  2.251216  0  -1.161605  0  -0.340026  -0.559525  0  2.269838  0
O  O106  1  0.45489262  0.62067724  0.25085608  1  0  -0.635326  0  1.91731  0  0  -0.576077  0  2.148153  0  0  -0.603387  0  2.138265  0  -1.159423  0  -0.347899  -0.55632  0  2.154176  0
O  O107  1  0.62133857  0.45426421  0.75064727  1  0  -0.63519  0  1.915221  0  0  -0.57607  0  2.145762  0  0  -0.603421  0  2.136  0  -1.160435  0  -0.347918  -0.556368  0  2.15173  0
O  O108  1  0.84241379  0.18565131  0.51951021  1  0  -0.558505  0  1.914557  0  0  -0.519202  0  2.127329  0  0  -0.538738  0  2.118693  0  -1.156363  0  -0.302361  -0.505831  0  2.133188  0
O  O109  1  0.18601209  0.84236235  0.01943759  1  0  -0.55848  0  1.914444  0  0  -0.519124  0  2.12712  0  0  -0.538649  0  2.118444  0  -1.156681  0  -0.302527  -0.505747  0  2.13299  0
O  O110  1  0.97046485  0.02238370  0.42295288  1  0  -0.578919  0  2.122273  0  0  -0.525664  0  2.349567  0  0  -0.549218  0  2.331628  0  -1.198169  0  -0.336717  -0.509173  0  2.361074  0
O  O111  1  0.02256968  0.97064214  0.92282963  1  0  -0.579357  0  2.121105  0  0  -0.525908  0  2.348616  0  0  -0.54949  0  2.330748  0  -1.201793  0  -0.336818  -0.509374  0  2.359743  0
