# generated using pymatgen
data_ZnH18C36(NO5)2
_symmetry_space_group_name_H-M   'P 1'
_cell_length_a   9.72736242
_cell_length_b   10.84988561
_cell_length_c   27.82931818
_cell_angle_alpha   89.12844066
_cell_angle_beta   90.78893660
_cell_angle_gamma   86.96266378
_symmetry_Int_Tables_number   1
_chemical_formula_structural   ZnH18C36(NO5)2
_chemical_formula_sum   'Zn2 H36 C72 N4 O20'
_cell_volume   2932.34983957
_cell_formula_units_Z   2
loop_
 _symmetry_equiv_pos_site_id
 _symmetry_equiv_pos_as_xyz
  1  'x, y, z'
loop_
 _atom_site_type_symbol
 _atom_site_label
 _atom_site_symmetry_multiplicity
 _atom_site_fract_x
 _atom_site_fract_y
 _atom_site_fract_z
 _atom_site_occupancy
 _atom_site_pbe_bader_charge
 _atom_site_pbe_bader_spin_density
 _atom_site_pbe_cm5_charge
 _atom_site_pbe_ddec_charge
 _atom_site_pbe_ddec_spin_density
 _atom_site_pbe_ddec_sum_bond_order
 _atom_site_pbe_magmom
Zn  Zn0  1  0.62232020  0.47414873  0.50100507  1  1.290785  0  0.677945  0.868612  0  2.42444  0
Zn  Zn1  1  0.33411378  0.49658007  0.50297005  1  1.285087  0  0.675093  0.858458  0  2.445138  0
H  H2  1  0.68202447  0.75037473  0.12853083  1  0.110865  0  0.123818  0.131306  0  0.967551  0
H  H3  1  0.36282087  0.75409046  0.73077215  1  0.073727  0  0.114311  0.119036  0  0.986572  0
H  H4  1  0.66667435  0.77928144  0.03968893  1  0.097839  0  0.117837  0.124228  0  0.987762  0
H  H5  1  0.26906695  0.55154239  0.35112095  1  0.111493  0  0.112707  0.114645  0  1.001445  0
H  H6  1  0.23413841  0.30028931  0.11799740  1  0.104887  0  0.12031  0.126283  0  0.979761  0
H  H7  1  0.32408312  0.29510407  0.87168487  1  0.130254  0  0.122427  0.133178  0  0.980059  0
H  H8  1  0.22376653  0.31959224  0.02861001  1  0.094076  0  0.113895  0.116451  0  0.990228  0
H  H9  1  0.26514252  0.09954267  0.48562009  1  0.086754  0  0.106402  0.103293  0  1.006296  0
H  H10  1  0.56919609  0.07316998  0.51857274  1  0.081522  0  0.10666  0.120659  0  1.014911  0
H  H11  1  0.29590279  0.86777833  0.50047574  1  0.138137  0  0.113703  0.111748  0  0.990667  0
H  H12  1  0.86214740  0.55454330  0.49111238  1  0.427341  0  0.310389  0.286365  0  0.927133  0
H  H13  1  0.12697041  0.36820401  0.44940385  1  0.183289  0  0.143792  0.120958  0  0.959901  0
H  H14  1  0.06454597  0.53727621  0.52788055  1  0.428007  0  0.317321  0.287672  0  0.910067  0
H  H15  1  0.67581421  0.26520132  0.37615358  1  0.119418  0  0.110094  0.05644  0  0.953743  0
H  H16  1  0.15881852  0.63409347  0.28562195  1  0.060645  0  0.104979  0.036258  0  0.951585  0
H  H17  1  0.40418638  0.21198635  0.99854057  1  0.053552  0  0.105712  0.044596  0  0.984177  0
H  H18  1  0.74032414  0.33685013  0.68017580  1  0.060424  0  0.102658  0.036962  0  0.966199  0
H  H19  1  0.51147063  0.23660616  0.73064854  1  0.079908  0  0.109959  0.115563  0  0.980548  0
H  H20  1  0.62138614  0.07593445  0.78551031  1  0.068988  0  0.106045  0.107708  0  0.989774  0
H  H21  1  0.78601636  0.13457987  0.84891810  1  0.111268  0  0.104241  0.10953  0  1.001401  0
H  H22  1  0.84914526  0.35431024  0.85532995  1  0.056372  0  0.102693  0.100192  0  0.989533  0
H  H23  1  0.74226030  0.51416100  0.79972313  1  0.061931  0  0.102176  0.107438  0  0.995921  0
H  H24  1  0.83638015  0.52881763  0.26455706  1  0.11367  0  0.105877  0.111272  0  0.987837  0
H  H25  1  0.02493711  0.44937746  0.21184559  1  0.071289  0  0.096781  0.09965  0  1.022713  0
H  H26  1  0.99939444  0.25589193  0.16661004  1  0.040697  0  0.095702  0.090383  0  1.009815  0
H  H27  1  0.78321408  0.14284668  0.17338419  1  0.077539  0  0.099593  0.096119  0  0.995693  0
H  H28  1  0.59470584  0.22355836  0.22555921  1  0.077656  0  0.102521  0.110786  0  0.993825  0
H  H29  1  0.69217055  0.83000200  0.43718695  1  0.055279  0  0.093056  0.028978  0  0.986265  0
H  H30  1  0.00408957  0.20463436  0.42307707  1  0.101974  0  0.112534  0.111593  0  0.993842  0
H  H31  1  0.98934180  0.97883175  0.43450386  1  0.079157  0  0.111344  0.108805  0  0.976273  0
H  H32  1  0.88743470  0.89504300  0.50909702  1  0.041547  0  0.104831  0.095816  0  0.990516  0
H  H33  1  0.79541956  0.03830262  0.57150137  1  0.087338  0  0.111801  0.110618  0  0.976821  0
H  H34  1  0.80538359  0.26389829  0.55979835  1  0.100333  0  0.111092  0.115741  0  1.008917  0
H  H35  1  0.31167233  0.83860519  0.65702865  1  0.029848  0  0.097463  0.025652  0  0.961246  0
H  H36  1  0.48277398  0.94218367  0.84973380  1  0.111412  0  0.10976  0.05147  0  0.963965  0
H  H37  1  0.45624784  0.97742609  0.95251797  1  0.119974  0  0.105304  0.052672  0  1.031127  0
C  C38  1  0.48989676  0.71627658  0.47866348  1  1.552579  0  0.21533  0.606151  0  4.180886  0
C  C39  1  0.46633710  0.44960396  0.40803346  1  1.542492  0  0.21535  0.587675  0  4.188892  0
C  C40  1  0.45784330  0.25285384  0.51387282  1  1.539567  0  0.215037  0.639007  0  4.171359  0
C  C41  1  0.49215477  0.53526411  0.59301236  1  1.638544  0  0.215884  0.599124  0  4.221509  0
C  C42  1  0.54428475  0.59710936  0.18329700  1  1.340041  0  0.252736  0.448681  0  4.079639  0
C  C43  1  0.38788311  0.42194536  0.17856200  1  1.368884  0  0.251035  0.448032  0  4.103364  0
C  C44  1  0.35748198  0.53469675  0.28044412  1  -0.002454  0  -0.011275  -0.049627  0  3.999055  0
C  C45  1  0.35692728  0.51756644  0.33022605  1  0.007685  0  -0.062443  -0.093179  0  3.945206  0
C  C46  1  0.58565771  0.41621640  0.32895436  1  -0.024808  0  0.016097  0.010425  0  3.84775  0
C  C47  1  0.58806336  0.43026999  0.27838126  1  0.090554  0  0.021444  -0.003391  0  3.894164  0
C  C48  1  0.47301912  0.48874003  0.25517936  1  0.327077  0  0.114929  0.150971  0  3.92879  0
C  C49  1  0.45503541  0.53106443  0.10279636  1  0.056934  0  0.008634  0.030149  0  3.990441  0
C  C50  1  0.53806750  0.60847721  0.13010714  1  -0.030063  0  0.011336  -0.028719  0  3.938772  0
C  C51  1  0.61486533  0.69510976  0.10698662  1  0.048133  0  -0.057421  -0.068418  0  3.918474  0
C  C52  1  0.37939522  0.43994390  0.12579325  1  -0.024509  0  0.009011  -0.034051  0  3.950007  0
C  C53  1  0.46862392  0.45831416  0.35431000  1  0.033769  0  -0.005569  -0.052602  0  3.95045  0
C  C54  1  0.49483275  0.55586966  0.64673535  1  0.009522  0  0.025748  -0.00809  0  3.811704  0
C  C55  1  0.49036953  0.66685234  0.97816840  1  -0.037323  0  0.026064  0.050347  0  3.895867  0
C  C56  1  0.39015792  0.45979240  0.97283822  1  0.028576  0  0.019898  0.030601  0  3.929739  0
C  C57  1  0.43806012  0.56882913  0.95036284  1  -0.018141  0  0.00756  -0.004182  0  3.914947  0
C  C58  1  0.51158128  0.78139615  0.95449143  1  0.050945  0  -0.009069  -0.064762  0  3.885393  0
C  C59  1  0.51380562  0.78763490  0.90339981  1  -0.040417  0  0.011473  0.015435  0  3.920793  0
C  C60  1  0.48379168  0.68527523  0.87620388  1  0.03927  0  -0.013044  -0.120377  0  3.998256  0
C  C61  1  0.43604639  0.57877787  0.89920201  1  -0.060428  0  0.011436  0.057576  0  4.010437  0
C  C62  1  0.38739530  0.48166375  0.87128649  1  0.053969  0  -0.011828  -0.07931  0  4.017089  0
C  C63  1  0.38083096  0.49228366  0.81847703  1  1.291534  0  0.244148  0.444159  0  4.091719  0
C  C64  1  0.50598466  0.68700050  0.82393209  1  1.330574  0  0.242855  0.439945  0  4.105652  0
C  C65  1  0.41860477  0.67352962  0.71613602  1  0.007565  0  -0.064568  -0.151848  0  3.94754  0
C  C66  1  0.42986955  0.66278959  0.66624352  1  -0.038262  0  -0.013526  -0.00301  0  3.989004  0
C  C67  1  0.55962777  0.46767179  0.67828007  1  -0.007415  0  -0.005601  -0.042418  0  3.914103  0
C  C68  1  0.55378179  0.48116125  0.72870575  1  0.064968  0  0.021018  0.006247  0  3.916417  0
C  C69  1  0.47732978  0.58327155  0.74696491  1  0.338446  0  0.091267  0.144872  0  3.995802  0
C  C70  1  0.51538335  0.64353103  0.02913271  1  -0.016085  0  0.001871  0.023098  0  3.979187  0
C  C71  1  0.44808702  0.54479731  0.05180986  1  -0.020925  0  0.008152  0.009294  0  3.933125  0
C  C72  1  0.37467225  0.45875850  0.02457945  1  -0.027555  0  0.001925  0.026507  0  4.002737  0
C  C73  1  0.60391053  0.71243889  0.05704430  1  0.058379  0  -0.054157  -0.06287  0  3.910074  0
C  C74  1  0.29541824  0.36623681  0.09904548  1  0.027168  0  -0.062292  -0.067394  0  3.938231  0
C  C75  1  0.35963380  0.35829172  0.94368731  1  -0.033913  0  -0.015803  -0.037628  0  3.963849  0
C  C76  1  0.35252358  0.37288825  0.89338262  1  0.019323  0  -0.048981  -0.065878  0  3.894243  0
C  C77  1  0.29265277  0.37595802  0.04894078  1  -0.071633  0  -0.068014  -0.105957  0  3.95415  0
C  C78  1  0.36622858  0.05267750  0.49211453  1  -0.025628  0  -0.069483  -0.03165  0  3.980943  0
C  C79  1  0.46895200  0.11772771  0.50966705  1  0.064209  0  -0.077111  -0.188352  0  3.858951  0
C  C80  1  0.37982896  0.92079217  0.48661075  1  -0.066792  0  -0.037311  0.010297  0  3.878392  0
C  C81  1  0.48869279  0.85247036  0.46901706  1  -0.051586  0  -0.027636  -0.151564  0  3.89682  0
C  C82  1  0.92352566  0.38242460  0.48630396  1  0.686965  0  0.18572  0.290661  0  3.951667  0
C  C83  1  0.06586575  0.41776158  0.47643354  1  0.697968  0  0.12669  0.154462  0  3.818273  0
C  C84  1  0.70351121  0.34980659  0.35618754  1  0.952237  0  0.107088  0.301873  0  3.944521  0
C  C85  1  0.23524004  0.60119578  0.25840247  1  0.944927  0  0.106925  0.292533  0  3.954892  0
C  C86  1  0.35514302  0.23015072  0.96255284  1  0.935775  0  0.094669  0.257573  0  3.977696  0
C  C87  1  0.64251643  0.35922093  0.65974099  1  0.963067  0  0.102929  0.27557  0  3.980794  0
C  C88  1  0.62013329  0.38585181  0.76133096  1  -0.086423  0  -0.016644  0.04998  0  4.037191  0
C  C89  1  0.58733955  0.26171240  0.75749740  1  0.034468  0  -0.084416  -0.12183  0  3.967544  0
C  C90  1  0.64757605  0.17205932  0.78873685  1  -0.048382  0  -0.088143  -0.07795  0  4.008055  0
C  C91  1  0.74120916  0.20505033  0.82422068  1  -0.059703  0  -0.087443  -0.078473  0  3.999103  0
C  C92  1  0.77483960  0.32825279  0.82809301  1  -0.030132  0  -0.093871  -0.084024  0  4.037436  0
C  C93  1  0.71443685  0.41832833  0.79703992  1  -0.080153  0  -0.096204  -0.142592  0  3.994898  0
C  C94  1  0.70423383  0.38092982  0.24862786  1  -0.063572  0  -0.015833  0.061575  0  4.011841  0
C  C95  1  0.82562232  0.44417140  0.24460194  1  -0.042318  0  -0.086035  -0.111691  0  3.961452  0
C  C96  1  0.93096875  0.39948781  0.21493942  1  0.016906  0  -0.093162  -0.079132  0  4.00645  0
C  C97  1  0.91604499  0.29118896  0.18927474  1  -0.07946  0  -0.096826  -0.091582  0  4.040521  0
C  C98  1  0.79528317  0.22774346  0.19315062  1  -0.088611  0  -0.099877  -0.090727  0  4.057652  0
C  C99  1  0.68938678  0.27260744  0.22256740  1  -0.02525  0  -0.097138  -0.141903  0  3.988242  0
C  C100  1  0.60389772  0.89892902  0.44069194  1  0.976853  0  0.089561  0.291331  0  3.986757  0
C  C101  1  0.90736671  0.24901270  0.49104821  1  -0.091139  0  -0.004217  0.01544  0  3.970639  0
C  C102  1  0.96111644  0.16803870  0.45600388  1  -0.024846  0  -0.070904  -0.1034  0  3.945765  0
C  C103  1  0.95165594  0.04128728  0.46227075  1  0.057392  0  -0.08137  -0.073922  0  4.004942  0
C  C104  1  0.89339482  0.99453304  0.50399763  1  -0.077896  0  -0.074213  -0.060995  0  3.989006  0
C  C105  1  0.84133155  0.07457709  0.53901832  1  -0.02732  0  -0.081282  -0.083196  0  3.99886  0
C  C106  1  0.84670302  0.20178118  0.53255874  1  0.008571  0  -0.065877  -0.070708  0  3.919872  0
C  C107  1  0.37541526  0.76904114  0.63649249  1  0.97639  0  0.099862  0.268533  0  3.983794  0
C  C108  1  0.55289226  0.90514105  0.87892956  1  0.934391  0  0.104491  0.2765  0  3.97209  0
C  C109  1  0.49596293  0.90396922  0.97814106  1  0.904982  0  0.097033  0.261985  0  3.964704  0
N  N110  1  0.47235836  0.50072459  0.20361704  1  -1.216424  0  -0.230364  -0.230887  0  3.651977  0
N  N111  1  0.45422449  0.58963448  0.79789581  1  -1.187674  0  -0.229649  -0.218444  0  3.603045  0
N  N112  1  0.82916505  0.46672071  0.49514172  1  -1.202736  0  -0.460875  -0.470169  0  3.241912  0
N  N113  1  0.12451413  0.49871135  0.50138729  1  -1.200712  0  -0.452112  -0.398585  0  3.25278  0
O  O114  1  0.60605790  0.65604057  0.47778610  1  -1.1575  0  -0.3184  -0.554146  0  2.303841  0
O  O115  1  0.37496133  0.67152674  0.48801714  1  -1.166748  0  -0.317229  -0.54858  0  2.388053  0
O  O116  1  0.58286228  0.42875201  0.42890601  1  -1.141234  0  -0.295575  -0.530746  0  2.330363  0
O  O117  1  0.35091461  0.46735326  0.42814400  1  -1.169892  0  -0.314097  -0.547541  0  2.309629  0
O  O118  1  0.57228371  0.30371362  0.51908449  1  -1.145554  0  -0.304778  -0.540061  0  2.392532  0
O  O119  1  0.34003608  0.30931990  0.51001252  1  -1.164623  0  -0.319765  -0.557496  0  2.320965  0
O  O120  1  0.60546176  0.53746952  0.57127007  1  -1.155865  0  -0.318802  -0.550436  0  2.295367  0
O  O121  1  0.37434614  0.51536599  0.57564893  1  -1.152177  0  -0.31459  -0.54314  0  2.293461  0
O  O122  1  0.60735489  0.66708839  0.20874213  1  -1.079527  0  -0.263726  -0.422582  0  2.065842  0
O  O123  1  0.56811260  0.76944394  0.80372262  1  -1.100727  0  -0.268367  -0.435339  0  2.091522  0
O  O124  1  0.32694685  0.34150627  0.19981534  1  -1.102486  0  -0.265329  -0.430645  0  2.074927  0
O  O125  1  0.32093217  0.42078817  0.79286207  1  -1.085429  0  -0.264755  -0.41979  0  2.085947  0
O  O126  1  0.82244957  0.38110991  0.35454418  1  -1.094123  0  -0.274144  -0.375981  0  2.116478  0
O  O127  1  0.21289508  0.62110319  0.21544107  1  -1.077546  0  -0.26496  -0.360726  0  2.125504  0
O  O128  1  0.31035676  0.14493791  0.93938025  1  -1.079611  0  -0.265784  -0.359179  0  2.127482  0
O  O129  1  0.61024451  0.29828062  0.62520458  1  -1.066893  0  -0.244652  -0.323184  0  2.157356  0
O  O130  1  0.60397025  0.99949420  0.41990022  1  -1.087339  0  -0.276602  -0.375218  0  2.111302  0
O  O131  1  0.39829764  0.78563210  0.59385917  1  -1.070591  0  -0.24342  -0.32316  0  2.16329  0
O  O132  1  0.65354199  0.95980405  0.89198302  1  -1.073691  0  -0.25515  -0.349922  0  2.12353  0
O  O133  1  0.50785539  0.92904091  0.02071604  1  -1.043637  0  -0.246316  -0.330383  0  2.148863  0
