# generated using pymatgen
data_AgH4C6NO2
_symmetry_space_group_name_H-M   'P 1'
_cell_length_a   8.62080444
_cell_length_b   12.59343526
_cell_length_c   13.98846577
_cell_angle_alpha   107.93278875
_cell_angle_beta   99.37146133
_cell_angle_gamma   90.09157748
_symmetry_Int_Tables_number   1
_chemical_formula_structural   AgH4C6NO2
_chemical_formula_sum   'Ag8 H32 C48 N8 O16'
_cell_volume   1423.43508280
_cell_formula_units_Z   8
loop_
 _symmetry_equiv_pos_site_id
 _symmetry_equiv_pos_as_xyz
  1  'x, y, z'
loop_
 _atom_site_type_symbol
 _atom_site_label
 _atom_site_symmetry_multiplicity
 _atom_site_fract_x
 _atom_site_fract_y
 _atom_site_fract_z
 _atom_site_occupancy
 _atom_site_pbe_bader_charge
 _atom_site_pbe_bader_spin_density
 _atom_site_pbe_cm5_charge
 _atom_site_pbe_ddec_charge
 _atom_site_pbe_ddec_spin_density
 _atom_site_pbe_ddec_sum_bond_order
 _atom_site_pbe_magmom
Ag  Ag0  1  0.88665567  0.51914727  0.61050409  1  0.611315  0  0.417298  0.415007  0  1.989573  0
Ag  Ag1  1  0.11334472  0.48084914  0.38949284  1  0.611245  0  0.417287  0.415011  0  1.989559  0
Ag  Ag2  1  0.12389928  0.65524959  0.75161993  1  0.577266  0  0.399303  0.344117  0  2.079105  0
Ag  Ag3  1  0.87609785  0.34475017  0.24837903  1  0.577271  0  0.399275  0.344067  0  2.079161  0
Ag  Ag4  1  0.99893596  0.03311409  0.24970970  1  0.601929  0  0.412752  0.386505  0  1.993221  0
Ag  Ag5  1  0.00106587  0.96688566  0.75029045  1  0.601931  0  0.412764  0.386521  0  1.993205  0
Ag  Ag6  1  0.00675498  0.14126673  0.10751824  1  0.594965  0  0.406774  0.372762  0  2.111716  0
Ag  Ag7  1  0.99324456  0.85873386  0.89248191  1  0.594937  0  0.406761  0.372729  0  2.111725  0
H  H8  1  0.64984959  0.32450490  0.59644250  1  0.10526  0  0.11222  0.08714  0  0.999568  0
H  H9  1  0.35014982  0.67549401  0.40355574  1  0.105231  0  0.112215  0.08712  0  0.999574  0
H  H10  1  0.41375969  0.20395968  0.48354076  1  0.08525  0  0.106786  0.115306  0  1.003883  0
H  H11  1  0.58623978  0.79604007  0.51645915  1  0.085262  0  0.106788  0.115305  0  1.003879  0
H  H12  1  0.43051037  0.38995641  0.27375514  1  0.092215  0  0.113653  0.128993  0  0.984282  0
H  H13  1  0.56948918  0.61004418  0.72624502  1  0.092224  0  0.113622  0.128917  0  0.984266  0
H  H14  1  0.67278622  0.49696544  0.39056111  1  0.098324  0  0.113609  0.084324  0  0.999957  0
H  H15  1  0.32721333  0.50303515  0.60943904  1  0.098322  0  0.113628  0.084355  0  0.999936  0
H  H16  1  0.56933075  0.78262106  0.09213155  1  0.102531  0  0.109265  0.119602  0  0.995368  0
H  H17  1  0.43067226  0.21737868  0.90786872  1  0.102549  0  0.109207  0.119534  0  0.995421  0
H  H18  1  0.33335880  0.67101647  0.97053528  1  0.091549  0  0.113224  0.085678  0  0.99932  0
H  H19  1  0.66664531  0.32898244  0.02946558  1  0.091547  0  0.113231  0.0857  0  0.999393  0
H  H20  1  0.36558209  0.84104006  0.76397466  1  0.102879  0  0.11613  0.095041  0  0.993222  0
H  H21  1  0.63441627  0.15896053  0.23602680  1  0.102861  0  0.116116  0.095022  0  0.99324  0
H  H22  1  0.61075740  0.95151781  0.87219001  1  0.115666  0  0.111524  0.124645  0  0.993037  0
H  H23  1  0.38924103  0.04848362  0.12781098  1  0.115667  0  0.111518  0.124673  0  0.993023  0
H  H24  1  0.80853635  0.26566812  0.77346094  1  0.099682  0  0.108599  0.119958  0  0.99716  0
H  H25  1  0.19146424  0.73433079  0.22653885  1  0.099689  0  0.108586  0.119954  0  0.997128  0
H  H26  1  0.81651643  0.15095931  0.89351627  1  0.078883  0  0.113813  0.083132  0  1.003706  0
H  H27  1  0.18348312  0.84904128  0.10648388  1  0.07888  0  0.113811  0.083126  0  1.003733  0
H  H28  1  0.19033277  0.34840120  0.09227534  1  0.113928  0  0.116318  0.096929  0  0.990654  0
H  H29  1  0.80966788  0.65159855  0.90772470  1  0.113928  0  0.11634  0.096957  0  0.990708  0
H  H30  1  0.20656489  0.46462092  0.97533297  1  0.109203  0  0.109185  0.119702  0  0.997851  0
H  H31  1  0.79343459  0.53537883  0.02466694  1  0.109195  0  0.10919  0.119717  0  0.997866  0
H  H32  1  0.23765012  0.88324328  0.56337587  1  0.08381  0  0.110942  0.122544  0  0.996627  0
H  H33  1  0.76234936  0.11675647  0.43662404  1  0.083834  0  0.110947  0.122547  0  0.996625  0
H  H34  1  0.22844706  0.99447879  0.43972190  1  0.089015  0  0.113673  0.088429  0  0.989731  0
H  H35  1  0.77155242  0.00552096  0.56027802  1  0.089007  0  0.113672  0.088441  0  0.989747  0
H  H36  1  0.80517919  0.83523999  0.27461422  1  0.091934  0  0.114551  0.092155  0  0.99716  0
H  H37  1  0.19482029  0.16475976  0.72538569  1  0.09194  0  0.114552  0.092147  0  0.997172  0
H  H38  1  0.80146371  0.71289210  0.38811434  1  0.118892  0  0.111686  0.12407  0  0.993992  0
H  H39  1  0.19853576  0.28710765  0.61188558  1  0.118906  0  0.111676  0.124042  0  0.993995  0
C  C40  1  0.59810510  0.33489471  0.52344311  1  0.501201  0  0.038842  0.077235  0  3.968817  0
C  C41  1  0.40189438  0.66510504  0.47655680  1  0.501227  0  0.038831  0.077249  0  3.968838  0
C  C42  1  0.46769287  0.26933141  0.46176811  1  -0.071061  0  -0.081191  -0.139066  0  3.946165  0
C  C43  1  0.53230661  0.73066834  0.53823180  1  -0.071058  0  -0.081189  -0.139054  0  3.946154  0
C  C44  1  0.40531047  0.28809319  0.36993415  1  0.004649  0  0.002207  0.016408  0  3.944413  0
C  C45  1  0.59468901  0.71190656  0.63006576  1  0.004658  0  0.002183  0.016379  0  3.944369  0
C  C46  1  0.47767247  0.37233242  0.34398943  1  -0.03575  0  -0.077599  -0.143599  0  3.957393  0
C  C47  1  0.52232583  0.62766733  0.65601036  1  -0.03575  0  -0.077539  -0.143493  0  3.957296  0
C  C48  1  0.61082812  0.43189051  0.40875978  1  0.517482  0  0.043108  0.08654  0  3.959758  0
C  C49  1  0.38917136  0.56810924  0.59124014  1  0.517462  0  0.043085  0.086513  0  3.959787  0
C  C50  1  0.26552656  0.21746764  0.30043574  1  1.578178  0  0.199453  0.55325  0  4.221631  0
C  C51  1  0.73447292  0.78253211  0.69956418  1  1.578199  0  0.199439  0.553221  0  4.221627  0
C  C52  1  0.74642048  0.94684730  0.05986294  1  1.566935  0  0.198161  0.543673  0  4.236486  0
C  C53  1  0.25358024  0.05315328  0.94013804  1  1.56692  0  0.198213  0.543657  0  4.236518  0
C  C54  1  0.60686321  0.87596590  0.99081771  1  0.017557  0  0.002669  0.015939  0  3.946858  0
C  C55  1  0.39313744  0.12403385  0.00918233  1  0.017531  0  0.002626  0.01591  0  3.946938  0
C  C56  1  0.52815821  0.79619869  0.01918111  1  0.012788  0  -0.080982  -0.1457  0  3.953814  0
C  C57  1  0.47184473  0.20380022  0.98081892  1  0.012607  0  -0.080846  -0.145579  0  3.953777  0
C  C58  1  0.39751518  0.73530337  0.95274446  1  0.437742  0  0.041546  0.083275  0  3.961694  0
C  C59  1  0.60248776  0.26469554  0.04725557  1  0.437938  0  0.041526  0.083261  0  3.961727  0
C  C60  1  0.41670883  0.82924087  0.83630929  1  0.490298  0  0.043043  0.091871  0  3.938455  0
C  C61  1  0.58329182  0.17075888  0.16369145  1  0.490298  0  0.043037  0.091847  0  3.938453  0
C  C62  1  0.55068327  0.89101868  0.89665022  1  -0.051063  0  -0.076574  -0.123934  0  3.926184  0
C  C63  1  0.44931627  0.10898191  0.10334921  1  -0.051054  0  -0.07655  -0.123922  0  3.926178  0
C  C64  1  0.00660690  0.44612523  0.79745101  1  1.598438  0  0.195803  0.545768  0  4.242125  0
C  C65  1  0.99339264  0.55387535  0.20254914  1  1.59843  0  0.195818  0.54579  0  4.24212  0
C  C66  1  0.00697549  0.37430333  0.86608717  1  0.023471  0  0.00221  0.016713  0  3.947092  0
C  C67  1  0.99302399  0.62569642  0.13391274  1  0.023456  0  0.002181  0.016731  0  3.947005  0
C  C68  1  0.89548401  0.28533580  0.84304764  1  -0.0772  0  -0.081388  -0.143441  0  3.964456  0
C  C69  1  0.10451429  0.71466395  0.15695215  1  -0.077296  0  -0.081354  -0.143432  0  3.964388  0
C  C70  1  0.89919596  0.22253084  0.90954853  1  0.500727  0  0.039904  0.071235  0  3.990645  0
C  C71  1  0.10080352  0.77746891  0.09045067  1  0.500852  0  0.039902  0.071236  0  3.990674  0
C  C72  1  0.10989072  0.33191684  0.01987505  1  0.51344  0  0.043677  0.088811  0  3.940336  0
C  C73  1  0.89010883  0.66808375  0.98012438  1  0.513443  0  0.043655  0.088786  0  3.940395  0
C  C74  1  0.11773021  0.39636531  0.95580028  1  -0.079967  0  -0.080442  -0.141845  0  3.953916  0
C  C75  1  0.88226926  0.60363444  0.04419963  1  -0.079945  0  -0.080445  -0.141875  0  3.953901  0
C  C76  1  0.01890731  0.72131152  0.55540866  1  1.609513  0  0.199665  0.553211  0  4.215604  0
C  C77  1  0.98108988  0.27868907  0.44459268  1  1.609487  0  0.199675  0.553246  0  4.215691  0
C  C78  1  0.01901405  0.79028189  0.48463238  1  -0.018046  0  0.005241  0.021685  0  3.937893  0
C  C79  1  0.98098432  0.20971870  0.51536836  1  -0.017986  0  0.005231  0.021705  0  3.93791  0
C  C80  1  0.14110456  0.86996798  0.49943422  1  0.016601  0  -0.079718  -0.147918  0  3.968622  0
C  C81  1  0.85889499  0.13003261  0.50056593  1  0.016451  0  -0.079707  -0.147911  0  3.96864  0
C  C82  1  0.13591624  0.93143512  0.43168839  1  0.48054  0  0.040455  0.078783  0  3.965378  0
C  C83  1  0.86408324  0.06856463  0.56831152  1  0.480587  0  0.040466  0.078782  0  3.965305  0
C  C84  1  0.89862341  0.84239303  0.33942986  1  0.447637  0  0.040152  0.078478  0  3.963549  0
C  C85  1  0.10137607  0.15760672  0.66057005  1  0.447639  0  0.040204  0.078578  0  3.963614  0
C  C86  1  0.89615706  0.77596641  0.40228582  1  -0.020121  0  -0.07681  -0.136046  0  3.940453  0
C  C87  1  0.10384124  0.22403334  0.59771397  1  -0.020113  0  -0.076862  -0.136131  0  3.940523  0
N  N88  1  0.66991547  0.41419527  0.49726402  1  -1.211218  0  -0.332262  -0.211432  0  3.521644  0
N  N89  1  0.33008512  0.58580365  0.50273577  1  -1.211226  0  -0.33225  -0.211443  0  3.521639  0
N  N90  1  0.34123847  0.75246528  0.86350646  1  -1.214511  0  -0.33735  -0.214405  0  3.559398  0
N  N91  1  0.65876336  0.24753447  0.13649512  1  -1.214534  0  -0.337374  -0.214424  0  3.559385  0
N  N92  1  0.00259751  0.24630712  0.99737986  1  -1.218133  0  -0.334461  -0.207457  0  3.531256  0
N  N93  1  0.99740204  0.75369347  0.00262029  1  -1.218143  0  -0.334481  -0.207476  0  3.531257  0
N  N94  1  0.01639539  0.91879776  0.35352382  1  -1.221874  0  -0.335081  -0.218836  0  3.554831  0
N  N95  1  0.98360526  0.08120199  0.64647692  1  -1.22188  0  -0.335095  -0.218855  0  3.554713  0
O  O96  1  0.23092177  0.12824162  0.31865531  1  -1.134419  0  -0.329014  -0.515507  0  2.317865  0
O  O97  1  0.76907771  0.87175813  0.68134460  1  -1.134438  0  -0.329006  -0.515489  0  2.31785  0
O  O98  1  0.19634945  0.25300077  0.22967571  1  -1.128428  0  -0.319661  -0.535248  0  2.403374  0
O  O99  1  0.80365002  0.74699899  0.77032421  1  -1.128399  0  -0.319665  -0.535254  0  2.403394  0
O  O100  1  0.77475748  0.94489378  0.15125012  1  -1.132264  0  -0.321783  -0.509735  0  2.326587  0
O  O101  1  0.22524435  0.05510597  0.84875003  1  -1.132251  0  -0.321816  -0.509754  0  2.326566  0
O  O102  1  0.82281169  0.00370742  0.01984898  1  -1.123403  0  -0.324594  -0.517411  0  2.419563  0
O  O103  1  0.17718799  0.99629484  0.98015165  1  -1.123409  0  -0.324585  -0.517351  0  2.419595  0
O  O104  1  0.12965952  0.50878690  0.81243765  1  -1.135684  0  -0.332316  -0.519579  0  2.315229  0
O  O105  1  0.87033996  0.49121285  0.18756226  1  -1.135692  0  -0.332326  -0.519594  0  2.315225  0
O  O106  1  0.88259919  0.43807979  0.73176310  1  -1.131379  0  -0.328801  -0.519328  0  2.318174  0
O  O107  1  0.11740029  0.56191996  0.26823610  1  -1.131281  0  -0.328787  -0.519331  0  2.318211  0
O  O108  1  0.92875113  0.63294674  0.52153323  1  -1.140921  0  -0.319916  -0.520489  0  2.402838  0
O  O109  1  0.07124835  0.36705301  0.47846668  1  -1.140887  0  -0.319895  -0.520456  0  2.402834  0
O  O110  1  0.10819619  0.75726251  0.64169751  1  -1.13627  0  -0.317488  -0.517925  0  2.406116  0
O  O111  1  0.89180440  0.24273640  0.35830300  1  -1.136249  0  -0.317492  -0.517962  0  2.406128  0
