# generated using pymatgen
data_AlH15C27(SO5)3
_symmetry_space_group_name_H-M   'P 1'
_cell_length_a   4.22119836
_cell_length_b   15.81590565
_cell_length_c   15.80878115
_cell_angle_alpha   120.19849449
_cell_angle_beta   84.44223624
_cell_angle_gamma   94.00884270
_symmetry_Int_Tables_number   1
_chemical_formula_structural   AlH15C27(SO5)3
_chemical_formula_sum   'Al1 H15 C27 S3 O15'
_cell_volume   907.62914028
_cell_formula_units_Z   1
loop_
 _symmetry_equiv_pos_site_id
 _symmetry_equiv_pos_as_xyz
  1  'x, y, z'
loop_
 _atom_site_type_symbol
 _atom_site_label
 _atom_site_symmetry_multiplicity
 _atom_site_fract_x
 _atom_site_fract_y
 _atom_site_fract_z
 _atom_site_occupancy
 _atom_site_pbe_bader_charge
 _atom_site_pbe_bader_spin_density
 _atom_site_pbe_cm5_charge
 _atom_site_pbe_ddec_charge
 _atom_site_pbe_ddec_spin_density
 _atom_site_pbe_ddec_sum_bond_order
 _atom_site_pbe_magmom
Al  Al0  1  0.86206716  0.49989239  0.50200324  1  2.517316  0  0.451981  1.638413  0  2.496277  0
H  H1  1  0.56693170  0.93389417  0.08427700  1  0.054006  0  0.105156  0.106157  0  1.027029  0
H  H2  1  0.51820356  0.65418475  0.06967261  1  0.031242  0  0.10567  0.108976  0  1.015646  0
H  H3  1  0.62898544  0.91748606  0.34525070  1  0.088655  0  0.10601  0.10856  0  1.013858  0
H  H4  1  0.60161584  0.25430897  0.26458241  1  0.110733  0  0.11733  0.129902  0  0.97199  0
H  H5  1  0.73181162  0.08001992  0.16761467  1  0.080913  0  0.112999  0.115117  0  0.98415  0
H  H6  1  0.36783859  0.04253766  0.41230914  1  0.124694  0  0.112176  0.119518  0  1.013817  0
H  H7  1  0.36725027  0.87047653  0.95991360  1  0.109515  0  0.112512  0.120949  0  1.013712  0
H  H8  1  0.52245935  0.51368111  0.74792848  1  0.085276  0  0.118521  0.130491  0  0.966946  0
H  H9  1  0.64081986  0.59379605  0.92086490  1  0.069762  0  0.11182  0.113107  0  0.988679  0
H  H10  1  0.80876891  0.59731752  0.14331798  1  0.15748  0  0.112523  0.124754  0  1.016372  0
H  H11  1  0.22788356  0.72565838  0.46983641  1  0.124164  0  0.11894  0.131759  0  0.973163  0
H  H12  1  0.29467214  0.82912284  0.39286538  1  0.067381  0  0.111767  0.114557  0  0.984543  0
H  H13  1  0.66029783  0.29187484  0.60227878  1  0.67458  0  0.311427  0.385378  0  0.965924  0
H  H14  1  0.72648601  0.80939232  0.70998362  1  0.670729  0  0.311781  0.385789  0  0.962647  0
H  H15  1  0.32936886  0.39985624  0.19537239  1  0.667583  0  0.311711  0.383946  0  0.970349  0
C  C16  1  0.34153599  0.59339584  0.64664918  1  1.635616  0  0.281158  0.670627  0  4.076732  0
C  C17  1  0.41324811  0.54971171  0.40693481  1  1.616737  0  0.276201  0.666523  0  4.068976  0
C  C18  1  0.35423581  0.35552239  0.45036552  1  1.648737  0  0.280797  0.671159  0  4.078859  0
C  C19  1  0.55569584  0.78779302  0.06271584  1  0.060079  0  -0.00474  0.081067  0  4.011  0
C  C20  1  0.57511134  0.89026503  0.11962334  1  -0.11102  0  -0.082264  -0.168474  0  3.909599  0
C  C21  1  0.59024450  0.93849221  0.22166344  1  0.001701  0  -0.005799  0.078415  0  4.023036  0
C  C22  1  0.60291380  0.88179604  0.26662052  1  -0.059892  0  -0.085104  -0.176201  0  3.925901  0
C  C23  1  0.58017793  0.77951083  0.21216251  1  0.003379  0  -0.007985  0.075996  0  4.031066  0
C  C24  1  0.55505912  0.73335336  0.11056720  1  0.007789  0  -0.08406  -0.17491  0  3.916831  0
C  C25  1  0.55351087  0.20748958  0.29690434  1  0.038483  0  -0.071203  -0.078788  0  3.930345  0
C  C26  1  0.62577350  0.10862171  0.24234289  1  -0.092405  0  -0.072788  -0.105053  0  3.93559  0
C  C27  1  0.56053414  0.04606611  0.28142537  1  -0.001624  0  -0.001445  0.072078  0  3.980481  0
C  C28  1  0.43362727  0.08760480  0.37900317  1  0.009436  0  -0.077051  -0.126383  0  3.956981  0
C  C29  1  0.36905517  0.18686599  0.43419435  1  -0.196822  0  -0.016472  -0.131977  0  3.994821  0
C  C30  1  0.42008458  0.24807589  0.39355187  1  0.018217  0  0.004835  -0.021297  0  3.929137  0
C  C31  1  0.41300903  0.79265659  0.91521314  1  -0.085281  0  -0.076837  -0.12752  0  3.958679  0
C  C32  1  0.35904834  0.74726185  0.81607161  1  -0.161768  0  -0.01598  -0.131926  0  3.994538  0
C  C33  1  0.38904021  0.64597791  0.75452951  1  0.05045  0  0.004432  -0.020646  0  3.925903  0
C  C34  1  0.49013728  0.59218928  0.79484394  1  0.06227  0  -0.071991  -0.08008  0  3.933339  0
C  C35  1  0.55483918  0.63807925  0.89320939  1  -0.107757  0  -0.073077  -0.104103  0  3.93723  0
C  C36  1  0.51172369  0.73907525  0.95622455  1  0.052112  0  -0.002475  0.069714  0  3.981272  0
C  C37  1  0.68236487  0.62702323  0.21546780  1  -0.073476  0  -0.077597  -0.138155  0  3.95308  0
C  C38  1  0.64979539  0.56939222  0.25980762  1  -0.178352  0  -0.00822  -0.109843  0  3.916653  0
C  C39  1  0.48194020  0.60454311  0.35264442  1  -0.042975  0  -0.000536  -0.0373  0  3.918937  0
C  C40  1  0.36019296  0.69905899  0.39876426  1  0.014068  0  -0.070664  -0.071842  0  3.93772  0
C  C41  1  0.39968171  0.75699419  0.35537917  1  0.00468  0  -0.074992  -0.11038  0  3.951286  0
C  C42  1  0.55848237  0.72134099  0.26203662  1  0.017711  0  0.001718  0.081692  0  3.989017  0
S  S43  1  0.18078210  0.22781986  0.55363896  1  3.120163  0  0.557526  1.192579  0  5.959925  0
S  S44  1  0.23014826  0.82430113  0.77481171  1  3.12705  0  0.556759  1.189071  0  5.962288  0
S  S45  1  0.82579596  0.45086645  0.18410341  1  3.124655  0  0.564297  1.196737  0  5.930089  0
O  O46  1  0.11432914  0.38407235  0.43002450  1  -1.24137  0  -0.220087  -0.572915  0  2.353586  0
O  O47  1  0.08532680  0.54373893  0.61829079  1  -1.241076  0  -0.220821  -0.576333  0  2.357974  0
O  O48  1  0.15021177  0.56982977  0.45928065  1  -1.248582  0  -0.227486  -0.594561  0  2.395982  0
O  O49  1  0.55724864  0.40885234  0.51188786  1  -1.260266  0  -0.240901  -0.606556  0  2.36933  0
O  O50  1  0.61794427  0.49070870  0.39960813  1  -1.257075  0  -0.241595  -0.602847  0  2.395764  0
O  O51  1  0.57492201  0.60057923  0.59296803  1  -1.251252  0  -0.238688  -0.598773  0  2.366673  0
O  O52  1  0.43457056  0.27578570  0.62842179  1  -1.285471  0  -0.342409  -0.522913  0  2.255897  0
O  O53  1  0.03262965  0.14534099  0.55785478  1  -1.287875  0  -0.310253  -0.521264  0  2.101305  0
O  O54  1  0.96815577  0.30633950  0.57103111  1  -1.301398  0  -0.309999  -0.554256  0  2.291068  0
O  O55  1  0.52286567  0.85206458  0.72719497  1  -1.277962  0  -0.344079  -0.519959  0  2.247866  0
O  O56  1  0.09639158  0.91073013  0.85748795  1  -1.295203  0  -0.310814  -0.522066  0  2.104168  0
O  O57  1  0.01782105  0.76278484  0.69587929  1  -1.307785  0  -0.308482  -0.552571  0  2.286176  0
O  O58  1  0.04707324  0.43666362  0.24250351  1  -1.309125  0  -0.311157  -0.555472  0  2.356049  0
O  O59  1  0.96877795  0.44696162  0.09592056  1  -1.288463  0  -0.312514  -0.527692  0  2.109567  0
O  O60  1  0.56246718  0.37260906  0.16158344  1  -1.283082  0  -0.339486  -0.519974  0  2.247472  0
