# generated using pymatgen
data_Cu3H16C8S2(Cl3O)2
_symmetry_space_group_name_H-M   'P 1'
_cell_length_a   7.26984182
_cell_length_b   7.78719499
_cell_length_c   9.34833801
_cell_angle_alpha   66.59587007
_cell_angle_beta   73.22427094
_cell_angle_gamma   67.69243681
_symmetry_Int_Tables_number   1
_chemical_formula_structural   Cu3H16C8S2(Cl3O)2
_chemical_formula_sum   'Cu3 H16 C8 S2 Cl6 O2'
_cell_volume   443.37275359
_cell_formula_units_Z   1
loop_
 _symmetry_equiv_pos_site_id
 _symmetry_equiv_pos_as_xyz
  1  'x, y, z'
loop_
 _atom_site_type_symbol
 _atom_site_label
 _atom_site_symmetry_multiplicity
 _atom_site_fract_x
 _atom_site_fract_y
 _atom_site_fract_z
 _atom_site_occupancy
 _atom_site_hle17_ddec_charge
 _atom_site_hle17_ddec_spin_density
 _atom_site_hle17_ddec_sum_bond_order
 _atom_site_hle17_magmom
 _atom_site_hse06_10hf_ddec_charge
 _atom_site_hse06_10hf_ddec_spin_density
 _atom_site_hse06_10hf_ddec_sum_bond_order
 _atom_site_hse06_10hf_magmom
 _atom_site_hse06_ddec_charge
 _atom_site_hse06_ddec_spin_density
 _atom_site_hse06_ddec_sum_bond_order
 _atom_site_hse06_magmom
 _atom_site_pbe_cm5_charge
 _atom_site_pbe_ddec_charge
 _atom_site_pbe_ddec_spin_density
 _atom_site_pbe_ddec_sum_bond_order
 _atom_site_pbe_magmom
Cu  Cu0  1  0.85661012  0.07943149  0.35565227  1  0.559131  -0.513713  2.095558  -0.354  0.558251  -0.633629  2.514833  -0.479  0.647521  -0.742159  2.439574  -0.576  0.431768  0.513036  -0.550989  2.561044  -0.413
Cu  Cu1  1  0.14256506  0.92085756  0.64559737  1  0.556203  0.504175  2.100213  0.355  0.555892  0.62507  2.519871  0.481  0.644524  0.717933  2.445081  0.575  0.431457  0.511533  0.561042  2.565334  0.423
Cu  Cu2  1  0.00043444  0.99960733  0.99919565  1  0.757618  0.595657  1.886873  0.421  0.757386  0.71291  2.290928  0.551  0.858736  0.793676  2.204045  0.64  0.484307  0.70051  0.654819  2.344873  0.496
H  H3  1  0.14166938  0.54998197  0.31878965  1  0.058591  0.000236  0.952526  0.0  0.068018  0.000136  1.022916  0.0  0.069597  8.7e-05  1.02073  0.0  0.081671  0.067269  0.000194  1.024143  0.0
H  H4  1  0.85808061  0.45093280  0.68079368  1  0.058196  -0.000391  0.952555  0.0  0.067521  -0.000285  1.023239  0.0  0.069108  -0.00025  1.02104  0.0  0.08146  0.066847  -0.000255  1.024371  0.0
H  H5  1  0.12635532  0.52178344  0.14257156  1  0.075985  -0.000831  0.939961  -0.002  0.08705  -0.000635  1.007837  -0.002  0.086923  -0.000425  1.007891  -0.001  0.094189  0.086947  -0.000707  1.007935  -0.002
H  H6  1  0.87386319  0.47754484  0.85757408  1  0.075664  0.001729  0.940085  0.002  0.086733  0.001624  1.008002  0.002  0.086604  0.001185  1.008046  0.001  0.094182  0.086657  0.001861  1.008076  0.002
H  H7  1  0.32944761  0.20628804  0.30917681  1  0.113013  0.00053  0.949906  0.0  0.123926  0.000428  1.014658  0.0  0.124264  0.000332  1.01392  0.0  0.091186  0.123295  0.000465  1.015507  0.0
H  H8  1  0.66952104  0.79389992  0.69232383  1  0.112482  0.000326  0.949411  0.0  0.122907  0.000596  1.014647  0.0  0.123243  0.000489  1.013969  0.0  0.09036  0.122291  0.000662  1.015454  0.0
H  H9  1  0.48858950  0.30240755  0.13146984  1  0.121484  -0.002064  0.961629  -0.003  0.130788  -0.001043  1.02518  -0.002  0.131959  -0.000688  1.024911  -0.001  0.098736  0.129505  -0.001198  1.025586  -0.002
H  H10  1  0.51112797  0.69610970  0.86987577  1  0.120814  0.002005  0.963006  0.003  0.129786  0.001038  1.026736  0.002  0.131042  0.000667  1.026418  0.001  0.09823  0.128462  0.001261  1.027201  0.002
H  H11  1  0.71712424  0.50608185  0.11591727  1  0.116445  -0.002985  0.942132  -0.004  0.125623  -0.001516  1.008379  -0.002  0.125439  -0.001002  1.009251  -0.002  0.095552  0.125267  -0.001743  1.008258  -0.003
H  H12  1  0.28321002  0.49299010  0.88458223  1  0.116145  0.003171  0.941962  0.005  0.125681  0.001847  1.007907  0.003  0.125492  0.001193  1.008708  0.002  0.0954  0.125316  0.002265  1.007786  0.003
H  H13  1  0.71192615  0.57301527  0.27900807  1  0.119737  0.000269  0.943993  0.0  0.132992  0.000272  1.004757  0.0  0.134632  0.00019  1.003646  0.0  0.092968  0.131977  0.000319  1.005255  0.0
H  H14  1  0.28775565  0.42735378  0.72100139  1  0.119339  -0.000202  0.943813  0.0  0.132837  -0.000161  1.00466  0.0  0.134411  -0.000161  1.003644  0.0  0.092755  0.1319  -0.000114  1.005  0.0
H  H15  1  0.48256993  0.84179032  0.09523894  1  0.07715  -0.000845  0.923955  -0.001  0.088656  -0.000884  0.989487  -0.001  0.088994  -0.000677  0.988486  -0.001  0.098098  0.088146  -0.000957  0.990338  -0.001
H  H16  1  0.51840544  0.15767223  0.90337146  1  0.077628  0.000632  0.923138  0.001  0.088627  0.000756  0.989225  0.001  0.088954  0.000538  0.98821  0.001  0.098389  0.088199  0.00087  0.990005  0.001
H  H17  1  0.34723157  0.75433530  0.28793803  1  0.050971  -0.000323  0.976248  0.0  0.057984  -0.000233  1.053297  0.0  0.058111  -0.00022  1.053543  0.0  0.080416  0.05822  -0.00023  1.052782  0.0
H  H18  1  0.65281209  0.24698778  0.71061178  1  0.051162  0.000339  0.977483  0.0  0.058783  0.000291  1.053835  0.0  0.058892  0.000242  1.054049  0.0  0.080516  0.059065  0.000357  1.053335  0.0
C  C19  1  0.39466516  0.32678623  0.24101396  1  -0.20196  0.001199  3.628475  0.003  -0.230588  -0.001466  3.87937  0.0  -0.228136  -0.000488  3.890636  0.001  -0.164303  -0.230693  -0.002311  3.871542  -0.001
C  C20  1  0.60488276  0.67293124  0.75990728  1  -0.20228  -2.5e-05  3.626846  -0.003  -0.22949  0.002937  3.876173  0.0  -0.227258  0.001567  3.887641  -0.001  -0.163731  -0.22945  0.004197  3.868195  0.002
C  C21  1  0.22922311  0.52307864  0.20791499  1  0.080738  -0.00781  3.641409  -0.007  0.027189  -0.005254  3.908298  -0.005  0.033337  -0.003853  3.91557  -0.004  -0.086736  0.02297  -0.005839  3.902697  -0.006
C  C22  1  0.77082901  0.47682208  0.79208392  1  0.081899  0.008338  3.63999  0.008  0.028017  0.00601  3.906779  0.006  0.034143  0.004282  3.914147  0.005  -0.086154  0.023846  0.007045  3.900955  0.007
C  C23  1  0.43485657  0.71564197  0.18171635  1  0.087757  -0.006981  3.636418  -0.007  0.034948  -0.004836  3.902578  -0.005  0.042058  -0.003506  3.909503  -0.003  -0.084615  0.030281  -0.005416  3.897085  -0.005
C  C24  1  0.56549655  0.28441576  0.81742138  1  0.086026  0.00694  3.636661  0.007  0.032788  0.005005  3.903769  0.005  0.039934  0.003502  3.910615  0.004  -0.085355  0.027984  0.005938  3.898309  0.006
C  C25  1  0.62233923  0.54160770  0.22139140  1  -0.197148  0.00317  3.614273  0.005  -0.230464  0.000115  3.876565  0.002  -0.228172  0.001017  3.887511  0.003  -0.158563  -0.230921  -0.00072  3.869061  0.001
C  C26  1  0.37761406  0.45832779  0.77871180  1  -0.196543  -0.002493  3.612802  -0.004  -0.230179  0.000908  3.875017  -0.001  -0.227909  -0.000437  3.886011  -0.002  -0.158778  -0.230652  0.002254  3.867644  0.001
S  S27  1  0.55309204  0.32547605  0.35916833  1  0.14318  -0.170778  2.639681  -0.17  0.114942  -0.106199  3.057068  -0.117  0.089109  -0.08717  3.052935  -0.101  0.021184  0.124473  -0.108282  3.063221  -0.116
S  S28  1  0.44638801  0.67485411  0.64150960  1  0.143602  0.16954  2.638926  0.173  0.115012  0.107108  3.055693  0.119  0.08932  0.085772  3.0518  0.102  0.02169  0.124437  0.113612  3.061493  0.121
Cl  Cl29  1  0.95576729  0.22210939  0.48279785  1  -0.414407  -0.051192  1.289073  -0.056  -0.387608  -0.038166  1.621429  -0.045  -0.420605  -0.034216  1.59124  -0.041  -0.226977  -0.371649  -0.035789  1.643666  -0.042
Cl  Cl30  1  0.04433164  0.77843449  0.51729547  1  -0.415043  0.051236  1.287774  0.06  -0.387859  0.038608  1.619817  0.047  -0.420877  0.032378  1.589768  0.042  -0.227357  -0.371589  0.040093  1.641784  0.047
Cl  Cl31  1  0.77638769  0.92189983  0.23317026  1  -0.388392  0.004643  1.249674  0.004  -0.37502  -0.002315  1.5788  -0.005  -0.418961  -0.007642  1.55223  -0.011  -0.218259  -0.351543  0.005072  1.598427  0.002
Cl  Cl32  1  0.22437174  0.07955329  0.76585190  1  -0.380679  0.188934  1.251139  0.216  -0.370858  0.146606  1.582038  0.177  -0.415225  0.122552  1.555664  0.155  -0.214325  -0.347374  0.154296  1.601663  0.181
Cl  Cl33  1  0.08466440  0.17968588  0.09681665  1  -0.460453  0.112412  1.119328  0.126  -0.443229  0.072905  1.437863  0.086  -0.479879  0.058073  1.410454  0.071  -0.258281  -0.422072  0.080231  1.457244  0.092
Cl  Cl34  1  0.91530038  0.81983920  0.90316103  1  -0.45757  0.105999  1.131506  0.122  -0.440277  0.072693  1.452408  0.089  -0.477443  0.058913  1.424968  0.076  -0.255865  -0.418599  0.077728  1.471637  0.092
O  O35  1  0.30816923  0.68301537  0.10835267  1  -0.323241  -0.006346  2.281572  -0.007  -0.26356  -0.002214  2.545094  -0.002  -0.286049  -0.00112  2.549831  -0.001  -0.232384  -0.247276  -0.003667  2.541527  -0.004
O  O36  1  0.69232279  0.31644778  0.89103243  1  -0.323246  0.005497  2.281727  0.008  -0.263204  0.000975  2.545172  0.002  -0.285833  -0.000572  2.549975  0.0  -0.232831  -0.246612  0.003636  2.541438  0.006
