# generated using pymatgen
data_KH5C4O5
_symmetry_space_group_name_H-M   'P 1'
_cell_length_a   6.39440331
_cell_length_b   6.46280672
_cell_length_c   15.36654092
_cell_angle_alpha   89.99995738
_cell_angle_beta   89.99989480
_cell_angle_gamma   106.61350968
_symmetry_Int_Tables_number   1
_chemical_formula_structural   KH5C4O5
_chemical_formula_sum   'K4 H20 C16 O20'
_cell_volume   608.52508698
_cell_formula_units_Z   4
loop_
 _symmetry_equiv_pos_site_id
 _symmetry_equiv_pos_as_xyz
  1  'x, y, z'
loop_
 _atom_site_type_symbol
 _atom_site_label
 _atom_site_symmetry_multiplicity
 _atom_site_fract_x
 _atom_site_fract_y
 _atom_site_fract_z
 _atom_site_occupancy
 _atom_site_hle17_bader_spin_density
 _atom_site_hle17_ddec_charge
 _atom_site_hle17_ddec_spin_density
 _atom_site_hle17_ddec_sum_bond_order
 _atom_site_hle17_magmom
 _atom_site_hse06_10hf_bader_spin_density
 _atom_site_hse06_10hf_ddec_charge
 _atom_site_hse06_10hf_ddec_spin_density
 _atom_site_hse06_10hf_ddec_sum_bond_order
 _atom_site_hse06_10hf_magmom
 _atom_site_hse06_bader_spin_density
 _atom_site_hse06_ddec_charge
 _atom_site_hse06_ddec_spin_density
 _atom_site_hse06_ddec_sum_bond_order
 _atom_site_hse06_magmom
 _atom_site_pbe_bader_spin_density
 _atom_site_pbe_cm5_charge
 _atom_site_pbe_ddec_charge
 _atom_site_pbe_ddec_spin_density
 _atom_site_pbe_ddec_sum_bond_order
 _atom_site_pbe_magmom
K  K0  1  0.06197724  0.03389379  0.70674133  1  0  0.929003  0  0.478897  0  0  0.882697  0  0.670342  0  0  0.897615  0  0.645515  0  0  0.787802  0.871291  0  0.688425  0
K  K1  1  0.43802979  0.46610946  0.20674243  1  0  0.929011  0  0.478904  0  0  0.882691  0  0.670378  0  0  0.897607  0  0.645553  0  0  0.787818  0.871286  0  0.688463  0
K  K2  1  0.93803044  0.96610107  0.29325998  1  0  0.929009  0  0.478916  0  0  0.882654  0  0.670428  0  0  0.897575  0  0.645599  0  0  0.787813  0.871248  0  0.688511  0
K  K3  1  0.56197364  0.53388697  0.79325172  1  0  0.929004  0  0.478899  0  0  0.882644  0  0.670436  0  0  0.897552  0  0.64562  0  0  0.78781  0.87124  0  0.688519  0
H  H4  1  0.22814419  0.86613826  0.51503956  1  0  0.40147  0  0.908331  0  0  0.367614  0  0.988276  0  0  0.380859  0  0.970276  0  0  0.296016  0.358364  0  0.999258  0
H  H5  1  0.27187084  0.63387426  0.01503896  1  0  0.40151  0  0.908291  0  0  0.367628  0  0.988259  0  0  0.380875  0  0.970257  0  0  0.296031  0.358377  0  0.999278  0
H  H6  1  0.77186345  0.13384532  0.48496109  1  0  0.401456  0  0.908352  0  0  0.367505  0  0.988444  0  0  0.38075  0  0.970446  0  0  0.296011  0.358257  0  0.999457  0
H  H7  1  0.72812594  0.36614305  0.98496170  1  0  0.401453  0  0.908372  0  0  0.367482  0  0.988478  0  0  0.380728  0  0.970478  0  0  0.295973  0.358228  0  0.999534  0
H  H8  1  0.05744677  0.56809695  0.73488551  1  0  0.40883  0  0.898831  0  0  0.378763  0  0.96296  0  0  0.390247  0  0.945745  0  0  0.291347  0.370629  0  0.975134  0
H  H9  1  0.44255870  0.93190674  0.23488337  1  0  0.408813  0  0.898851  0  0  0.378736  0  0.962994  0  0  0.390221  0  0.945779  0  0  0.291344  0.370602  0  0.975167  0
H  H10  1  0.94255307  0.43189784  0.26511644  1  0  0.408805  0  0.898865  0  0  0.378745  0  0.962984  0  0  0.390227  0  0.945771  0  0  0.291336  0.370616  0  0.97515  0
H  H11  1  0.55744968  0.06809618  0.76511729  1  0  0.408789  0  0.898883  0  0  0.378732  0  0.962996  0  0  0.390214  0  0.945783  0  0  0.291329  0.3706  0  0.975166  0
H  H12  1  0.10241918  0.60769668  0.83504466  1  0  0.409839  0  0.897602  0  0  0.37934  0  0.963049  0  0  0.389766  0  0.947444  0  0  0.290256  0.371905  0  0.974179  0
H  H13  1  0.39758227  0.89231632  0.33504387  1  0  0.409867  0  0.897551  0  0  0.379374  0  0.962988  0  0  0.3898  0  0.947383  0  0  0.290287  0.371937  0  0.974122  0
H  H14  1  0.89757938  0.39231582  0.16495730  1  0  0.409949  0  0.897474  0  0  0.379437  0  0.962942  0  0  0.389862  0  0.947337  0  0  0.290323  0.372  0  0.974076  0
H  H15  1  0.60242339  0.10767690  0.66495679  1  0  0.409904  0  0.897527  0  0  0.379384  0  0.963009  0  0  0.38981  0  0.947403  0  0  0.290296  0.371943  0  0.97415  0
H  H16  1  0.26078912  0.55307657  0.44059864  1  0  0.118056  0  0.92004  0  0  0.126599  0  0.977839  0  0  0.129802  0  0.976541  0  0  0.123688  0.124262  0  0.978926  0
H  H17  1  0.23920594  0.94691511  0.94059726  1  0  0.118031  0  0.919949  0  0  0.126602  0  0.977741  0  0  0.129802  0  0.976439  0  0  0.123698  0.124288  0  0.978843  0
H  H18  1  0.73921156  0.44689890  0.55940137  1  0  0.117997  0  0.920017  0  0  0.12657  0  0.977782  0  0  0.129773  0  0.976497  0  0  0.123675  0.124237  0  0.978872  0
H  H19  1  0.76079377  0.05310706  0.05940210  1  0  0.118098  0  0.919995  0  0  0.126615  0  0.977807  0  0  0.129819  0  0.976522  0  0  0.123692  0.124276  0  0.978895  0
H  H20  1  0.37217090  0.23799742  0.56592092  1  0  0.094774  0  0.943425  0  0  0.101489  0  1.009616  0  0  0.104881  0  1.007482  0  0  0.111252  0.099015  0  1.011343  0
H  H21  1  0.12782987  0.26200944  0.06591650  1  0  0.094784  0  0.943423  0  0  0.101514  0  1.009574  0  0  0.104908  0  1.007435  0  0  0.111251  0.099038  0  1.011303  0
H  H22  1  0.62782912  0.76198126  0.43407583  1  0  0.094711  0  0.943375  0  0  0.101534  0  1.009536  0  0  0.104928  0  1.007402  0  0  0.111302  0.099046  0  1.011278  0
H  H23  1  0.87216580  0.73800948  0.93407960  1  0  0.094696  0  0.943324  0  0  0.101475  0  1.009512  0  0  0.104867  0  1.007382  0  0  0.111273  0.099014  0  1.011225  0
C  C24  1  0.21554011  0.58525998  0.57728329  1  0  0.701833  0  3.760197  0  0  0.647338  0  4.070896  0  0  0.680009  0  4.062942  0  0  0.240847  0.624985  0  4.075948  0
C  C25  1  0.28445731  0.91472965  0.07727803  1  0  0.701786  0  3.760038  0  0  0.647506  0  4.070431  0  0  0.680175  0  4.062478  0  0  0.240932  0.625193  0  4.075486  0
C  C26  1  0.78445607  0.41471062  0.42272128  1  0  0.701994  0  3.759542  0  0  0.647527  0  4.070229  0  0  0.680195  0  4.062276  0  0  0.240928  0.625179  0  4.075281  0
C  C27  1  0.71552866  0.08527146  0.92271807  1  0  0.702099  0  3.759641  0  0  0.647519  0  4.070476  0  0  0.680187  0  4.06252  0  0  0.240905  0.625178  0  4.075518  0
C  C28  1  0.34437924  0.53699101  0.50152708  1  0  -0.152299  0  3.542068  0  0  -0.15559  0  3.769552  0  0  -0.161119  0  3.780738  0  0  -0.071298  -0.151748  0  3.762018  0
C  C29  1  0.15562373  0.96301178  0.00152844  1  0  -0.152082  0  3.541768  0  0  -0.155522  0  3.769292  0  0  -0.161039  0  3.78046  0  0  -0.071335  -0.151821  0  3.761968  0
C  C30  1  0.65562774  0.46299579  0.49847357  1  0  -0.152279  0  3.541798  0  0  -0.155624  0  3.769356  0  0  -0.161158  0  3.780544  0  0  -0.071371  -0.151793  0  3.761841  0
C  C31  1  0.84437058  0.03700229  0.99847547  1  0  -0.152608  0  3.542161  0  0  -0.155852  0  3.769676  0  0  -0.161389  0  3.780868  0  0  -0.071391  -0.151986  0  3.762096  0
C  C32  1  0.40885742  0.32452054  0.50411778  1  0  -0.130559  0  3.518081  0  0  -0.143932  0  3.753677  0  0  -0.14776  0  3.762742  0  0  -0.07644  -0.141319  0  3.747664  0
C  C33  1  0.09113534  0.17548483  0.00411537  1  0  -0.130594  0  3.518074  0  0  -0.14396  0  3.75363  0  0  -0.147788  0  3.762694  0  0  -0.076502  -0.141318  0  3.747633  0
C  C34  1  0.59114033  0.67545007  0.49588092  1  0  -0.130412  0  3.51785  0  0  -0.144125  0  3.753876  0  0  -0.147959  0  3.762953  0  0  -0.076559  -0.141496  0  3.747864  0
C  C35  1  0.90886060  0.82455180  0.99588399  1  0  -0.130333  0  3.517833  0  0  -0.143957  0  3.753703  0  0  -0.147789  0  3.762771  0  0  -0.076489  -0.141333  0  3.747707  0
C  C36  1  0.33028042  0.17851541  0.42624475  1  0  0.676755  0  3.862684  0  0  0.626225  0  4.169225  0  0  0.659313  0  4.160427  0  0  0.202779  0.603728  0  4.174539  0
C  C37  1  0.16971260  0.32148540  0.92624086  1  0  0.67685  0  3.863052  0  0  0.626345  0  4.169541  0  0  0.659431  0  4.160746  0  0  0.202806  0.603843  0  4.17486  0
C  C38  1  0.66971357  0.82146966  0.57375135  1  0  0.676834  0  3.862807  0  0  0.626326  0  4.169404  0  0  0.659415  0  4.160605  0  0  0.202767  0.60382  0  4.174726  0
C  C39  1  0.83028621  0.67853354  0.07376044  1  0  0.676858  0  3.86271  0  0  0.626442  0  4.169148  0  0  0.659531  0  4.160352  0  0  0.202804  0.603947  0  4.174463  0
O  O40  1  0.17550635  0.77459752  0.57494833  1  0  -0.595023  0  2.082824  0  0  -0.541546  0  2.314295  0  0  -0.565987  0  2.298594  0  0  -0.364798  -0.524494  0  2.323837  0
O  O41  1  0.32451670  0.72541650  0.07494505  1  0  -0.595018  0  2.083105  0  0  -0.541612  0  2.314517  0  0  -0.566051  0  2.298812  0  0  -0.3648  -0.524565  0  2.324072  0
O  O42  1  0.82450130  0.22538607  0.42505298  1  0  -0.595033  0  2.082758  0  0  -0.541523  0  2.314287  0  0  -0.565959  0  2.298588  0  0  -0.364796  -0.524474  0  2.323851  0
O  O43  1  0.67547987  0.27460564  0.92505496  1  0  -0.595068  0  2.082593  0  0  -0.541533  0  2.314197  0  0  -0.565971  0  2.298493  0  0  -0.364789  -0.52449  0  2.323792  0
O  O44  1  0.15025342  0.45754812  0.63847472  1  0  -0.609164  0  1.960368  0  0  -0.563661  0  2.192554  0  0  -0.58525  0  2.181677  0  0  -0.324678  -0.548625  0  2.199687  0
O  O45  1  0.34974836  0.04246335  0.13847928  1  0  -0.609226  0  1.959838  0  0  -0.563788  0  2.191902  0  0  -0.585388  0  2.18104  0  0  -0.324758  -0.548752  0  2.199013  0
O  O46  1  0.84975401  0.54244029  0.36152268  1  0  -0.609222  0  1.959813  0  0  -0.563714  0  2.191943  0  0  -0.585326  0  2.18111  0  0  -0.324675  -0.548672  0  2.199058  0
O  O47  1  0.65024462  0.95755715  0.86152528  1  0  -0.609161  0  1.960186  0  0  -0.563628  0  2.192403  0  0  -0.585229  0  2.181554  0  0  -0.324613  -0.548598  0  2.199527  0
O  O48  1  0.33156002  0.26344616  0.35300054  1  0  -0.68359  0  1.971778  0  0  -0.6386  0  2.2133  0  0  -0.662154  0  2.204132  0  0  -0.455456  -0.622033  0  2.219248  0
O  O49  1  0.16842842  0.23655969  0.85300058  1  0  -0.683638  0  1.971914  0  0  -0.638667  0  2.213437  0  0  -0.66222  0  2.204268  0  0  -0.455476  -0.6221  0  2.219388  0
O  O50  1  0.66845031  0.73653584  0.64699882  1  0  -0.683622  0  1.971456  0  0  -0.638606  0  2.212957  0  0  -0.662163  0  2.203788  0  0  -0.455481  -0.622037  0  2.21891  0
O  O51  1  0.83154331  0.76346868  0.14700398  1  0  -0.683656  0  1.971619  0  0  -0.638678  0  2.213084  0  0  -0.662234  0  2.203915  0  0  -0.455514  -0.622113  0  2.219036  0
O  O52  1  0.27038336  0.97053239  0.43650396  1  0  -0.664871  0  2.04266  0  0  -0.602967  0  2.272805  0  0  -0.629493  0  2.260878  0  0  -0.341259  -0.584343  0  2.27997  0
O  O53  1  0.22961935  0.52946420  0.93650011  1  0  -0.664885  0  2.042828  0  0  -0.602969  0  2.272955  0  0  -0.629495  0  2.261028  0  0  -0.341201  -0.584341  0  2.280132  0
O  O54  1  0.72961505  0.02943501  0.56349409  1  0  -0.664852  0  2.043051  0  0  -0.602845  0  2.273232  0  0  -0.62937  0  2.261308  0  0  -0.341178  -0.58422  0  2.28041  0
O  O55  1  0.77038081  0.47055959  0.06349794  1  0  -0.664933  0  2.042787  0  0  -0.602966  0  2.272968  0  0  -0.629493  0  2.261044  0  0  -0.341224  -0.584343  0  2.280158  0
O  O56  1  0.02194018  0.64561970  0.78581696  1  0  -0.905146  0  1.796467  0  0  -0.863764  0  1.964889  0  0  -0.88071  0  1.931513  0  0  -0.710043  -0.851606  0  1.988427  0
O  O57  1  0.47806842  0.85439030  0.28581610  1  0  -0.905163  0  1.796441  0  0  -0.863763  0  1.964852  0  0  -0.88071  0  1.931474  0  0  -0.710087  -0.851606  0  1.988391  0
O  O58  1  0.97805701  0.35438795  0.21418240  1  0  -0.905241  0  1.796414  0  0  -0.863856  0  1.964825  0  0  -0.880798  0  1.931454  0  0  -0.710102  -0.851702  0  1.988355  0
O  O59  1  0.52194825  0.14561430  0.71418260  1  0  -0.905188  0  1.796464  0  0  -0.863802  0  1.964888  0  0  -0.880744  0  1.931517  0  0  -0.710078  -0.851644  0  1.988432  0
