# generated using pymatgen
data_MnV4H30C20(N2O3)4
_symmetry_space_group_name_H-M   'P 1'
_cell_length_a   8.47746079
_cell_length_b   10.68830403
_cell_length_c   16.90416550
_cell_angle_alpha   90.00046263
_cell_angle_beta   90.19775894
_cell_angle_gamma   89.99962526
_symmetry_Int_Tables_number   1
_chemical_formula_structural   MnV4H30C20(N2O3)4
_chemical_formula_sum   'Mn2 V8 H60 C40 N16 O24'
_cell_volume   1531.67187414
_cell_formula_units_Z   2
loop_
 _symmetry_equiv_pos_site_id
 _symmetry_equiv_pos_as_xyz
  1  'x, y, z'
loop_
 _atom_site_type_symbol
 _atom_site_label
 _atom_site_symmetry_multiplicity
 _atom_site_fract_x
 _atom_site_fract_y
 _atom_site_fract_z
 _atom_site_occupancy
 _atom_site_pbe_bader_charge
 _atom_site_pbe_bader_spin_density
 _atom_site_pbe_cm5_charge
 _atom_site_pbe_ddec_charge
 _atom_site_pbe_ddec_spin_density
 _atom_site_pbe_ddec_sum_bond_order
 _atom_site_pbe_magmom
Mn  Mn0  1  0.50000005  0.00000102  0.49999923  1  1.599185  -4.217055  0.633936  1.142752  -4.357331  2.651471  -4.18
Mn  Mn1  1  0.50000105  0.49999853  0.99999910  1  1.599356  -4.217036  0.633993  1.143046  -4.357318  2.651118  -4.18
V  V2  1  0.84200758  0.94777562  0.39078889  1  2.088887  -0.150737  1.42585  1.920914  -0.135819  3.505632  -0.156
V  V3  1  0.15799239  0.44776919  0.10920700  1  2.088999  -0.150781  1.425733  1.920886  -0.135855  3.505723  -0.156
V  V4  1  0.15799677  0.05222417  0.60920925  1  2.088943  -0.150769  1.425802  1.920867  -0.135851  3.505557  -0.156
V  V5  1  0.84200835  0.55222779  0.89079227  1  2.088994  -0.15079  1.425755  1.920861  -0.135863  3.505655  -0.156
V  V6  1  0.84310450  0.84567638  0.56950758  1  2.091608  -0.123667  1.422935  1.924777  -0.111004  3.511044  -0.128
V  V7  1  0.15688713  0.34568161  0.93048045  1  2.091351  -0.12364  1.423018  1.924943  -0.110984  3.511138  -0.128
V  V8  1  0.15689280  0.15432341  0.43048986  1  2.091627  -0.123677  1.422882  1.924699  -0.111015  3.511212  -0.128
V  V9  1  0.84311247  0.65431725  0.06951820  1  2.09141  -0.123653  1.422886  1.924766  -0.110993  3.511421  -0.128
H  H10  1  0.46835952  0.18474895  0.37262690  1  0.565106  -7.4e-05  0.311068  0.299435  0.000777  0.985535  0.0
H  H11  1  0.53164358  0.68474327  0.12737241  1  0.565047  -7.4e-05  0.311056  0.299361  0.000777  0.985663  0.0
H  H12  1  0.53163893  0.81525552  0.62737115  1  0.565024  -7.4e-05  0.311052  0.299378  0.000777  0.985632  0.0
H  H13  1  0.46835251  0.31525746  0.87262560  1  0.565049  -7.4e-05  0.311041  0.299395  0.000777  0.985585  0.0
H  H14  1  0.17136049  0.83999922  0.45858917  1  0.131524  -0.000505  0.134939  0.085845  -0.000176  1.062989  0.0
H  H15  1  0.82864155  0.33999408  0.04140619  1  0.131535  -0.000505  0.134938  0.085894  -0.000176  1.062913  0.0
H  H16  1  0.82864144  0.16000057  0.54141011  1  0.131478  -0.000505  0.13492  0.08583  -0.000176  1.063016  0.0
H  H17  1  0.17136035  0.66000571  0.95859368  1  0.131532  -0.000505  0.134935  0.085873  -0.000176  1.062926  0.0
H  H18  1  0.63796846  0.70672231  0.43871457  1  0.134291  -0.000524  0.116873  0.101017  -0.000232  1.061922  0.0
H  H19  1  0.36202611  0.20672731  0.06128650  1  0.134256  -0.000524  0.116881  0.101038  -0.000232  1.061849  0.0
H  H20  1  0.36203691  0.29327468  0.56128653  1  0.134386  -0.000524  0.116871  0.101011  -0.000232  1.061778  0.0
H  H21  1  0.63796503  0.79327248  0.93871617  1  0.134336  -0.000524  0.116864  0.100993  -0.000232  1.06194  0.0
H  H22  1  0.42730029  0.51259641  0.40384947  1  0.115853  -0.00068  0.120211  0.12286  -0.000404  1.028406  0.0
H  H23  1  0.57269433  0.01260171  0.09615830  1  0.1161  -0.00068  0.120252  0.122926  -0.000404  1.028277  0.0
H  H24  1  0.57270258  0.48740058  0.59615455  1  0.116089  -0.00068  0.120212  0.122891  -0.000404  1.028352  0.0
H  H25  1  0.42730250  0.98740088  0.90384860  1  0.115879  -0.00068  0.120209  0.122862  -0.000404  1.0284  0.0
H  H26  1  0.13289609  0.49068922  0.42129109  1  0.086207  -0.000164  0.109553  0.112195  -5e-05  1.013743  0.0
H  H27  1  0.86710432  0.99068960  0.07871271  1  0.086205  -0.000164  0.109529  0.11213  -5.1e-05  1.013709  0.0
H  H28  1  0.86710693  0.50930777  0.57870998  1  0.086244  -0.000164  0.10953  0.112154  -5.1e-05  1.013777  0.0
H  H29  1  0.13289502  0.00931206  0.92129127  1  0.086168  -0.000164  0.10956  0.1122  -5e-05  1.013708  0.0
H  H30  1  0.02735696  0.62109584  0.46100296  1  0.059265  -0.000103  0.108454  0.09118  -3e-06  1.005217  0.0
H  H31  1  0.97263815  0.12108993  0.03900124  1  0.059407  -0.000103  0.108429  0.091135  -3e-06  1.005208  0.0
H  H32  1  0.97264480  0.37890489  0.53899987  1  0.059303  -0.000103  0.108454  0.091187  -3e-06  1.005197  0.0
H  H33  1  0.02735653  0.87890799  0.96100149  1  0.05931  -0.000103  0.108439  0.091153  -3e-06  1.005179  0.0
H  H34  1  0.11416499  0.58437865  0.28650537  1  0.051965  -8e-05  0.095913  0.095043  -3.4e-05  0.991361  0.0
H  H35  1  0.88582806  0.08438013  0.21349860  1  0.051873  -8e-05  0.095992  0.095161  -3.4e-05  0.99151  0.0
H  H36  1  0.88583210  0.41562114  0.71349620  1  0.051925  -8e-05  0.09595  0.095122  -3.4e-05  0.991344  0.0
H  H37  1  0.11417130  0.91562434  0.78650478  1  0.051902  -8e-05  0.095953  0.095083  -3.4e-05  0.991453  0.0
H  H38  1  0.02680561  0.72150753  0.32641545  1  0.040143  -0.0001  0.093302  0.087963  -6.8e-05  1.033018  0.0
H  H39  1  0.97318999  0.22150524  0.17358631  1  0.04018  -0.0001  0.093259  0.087915  -6.8e-05  1.033126  0.0
H  H40  1  0.97319499  0.27849319  0.67358677  1  0.040162  -0.0001  0.093268  0.087941  -6.8e-05  1.033039  0.0
H  H41  1  0.02680953  0.77849643  0.82641412  1  0.040215  -0.0001  0.093287  0.087979  -6.8e-05  1.033066  0.0
H  H42  1  0.81422788  0.56010797  0.38402468  1  0.022802  -3e-05  0.093681  0.087275  1e-05  0.984311  0.0
H  H43  1  0.18577720  0.06011458  0.11597875  1  0.022859  -3e-05  0.093706  0.087309  1e-05  0.984379  0.0
H  H44  1  0.18578207  0.43988340  0.61597945  1  0.022576  -3e-05  0.093717  0.087335  1e-05  0.984319  0.0
H  H45  1  0.81422355  0.93988989  0.88402051  1  0.022479  -3e-05  0.093702  0.087334  1e-05  0.984356  0.0
H  H46  1  0.79777260  0.62353186  0.28805524  1  0.046112  -0.000132  0.096922  0.093123  -6e-05  0.994648  0.0
H  H47  1  0.20221998  0.12353121  0.21195189  1  0.046278  -0.000133  0.096904  0.093073  -6e-05  0.994755  0.0
H  H48  1  0.20222308  0.37646981  0.71195106  1  0.046267  -0.000132  0.096902  0.093087  -6e-05  0.994763  0.0
H  H49  1  0.79777947  0.87646858  0.78804972  1  0.046161  -0.000132  0.096912  0.093096  -6e-05  0.994708  0.0
H  H50  1  0.96156069  0.37121847  0.32139654  1  0.138679  -2e-05  0.115276  0.120633  6.3e-05  1.001526  0.0
H  H51  1  0.03844788  0.87122160  0.17860499  1  0.138753  -2e-05  0.115232  0.120537  6.3e-05  1.001607  0.0
H  H52  1  0.03844023  0.62878132  0.67859917  1  0.138723  -2e-05  0.115276  0.120648  6.3e-05  1.001524  0.0
H  H53  1  0.96155287  0.12878194  0.82139428  1  0.138728  -2e-05  0.115252  0.120529  6.3e-05  1.001628  0.0
H  H54  1  0.90752220  0.43400252  0.22850646  1  0.079553  -0.000114  0.110593  0.094317  -4.8e-05  1.030242  0.0
H  H55  1  0.09248467  0.93399722  0.27149536  1  0.07963  -0.000114  0.1106  0.094278  -4.8e-05  1.030255  0.0
H  H56  1  0.09247849  0.56600382  0.77149398  1  0.079624  -0.000114  0.110582  0.094276  -4.8e-05  1.030248  0.0
H  H57  1  0.90751608  0.06600070  0.72850390  1  0.079624  -0.000114  0.110586  0.094255  -4.8e-05  1.030211  0.0
H  H58  1  0.59025915  0.46664073  0.20515746  1  0.174892  1.7e-05  0.134794  0.150181  0.000486  0.997327  0.0
H  H59  1  0.40974892  0.96664439  0.29483864  1  0.174459  1.7e-05  0.13476  0.150181  0.000486  0.997067  0.0
H  H60  1  0.40974537  0.53335625  0.79483713  1  0.174723  1.7e-05  0.134786  0.150215  0.000486  0.997138  0.0
H  H61  1  0.59025180  0.03335353  0.70516122  1  0.174666  1.7e-05  0.1348  0.150255  0.000486  0.997148  0.0
H  H62  1  0.34517173  0.32050255  0.26249919  1  0.262281  -8.7e-05  0.127594  0.151875  -7e-06  1.056105  0.0
H  H63  1  0.65484000  0.82050234  0.23749443  1  0.262256  -8.7e-05  0.127549  0.15185  -7e-06  1.055883  0.0
H  H64  1  0.65483285  0.67949724  0.73749421  1  0.262294  -8.7e-05  0.127539  0.151816  -7e-06  1.055941  0.0
H  H65  1  0.34515963  0.17949371  0.76250364  1  0.262228  -8.7e-05  0.127544  0.151851  -7e-06  1.055887  0.0
H  H66  1  0.76537325  0.23518474  0.39002394  1  0.184778  -0.000262  0.147854  0.112169  8e-05  1.034563  0.0
H  H67  1  0.23462698  0.73517849  0.10997736  1  0.184816  -0.000262  0.147851  0.112157  8e-05  1.034587  0.0
H  H68  1  0.23462258  0.76482347  0.60997939  1  0.184797  -0.000262  0.147855  0.112155  8e-05  1.034606  0.0
H  H69  1  0.76536919  0.26482318  0.89001888  1  0.184878  -0.000262  0.147837  0.112129  8e-05  1.034595  0.0
C  C70  1  0.27235270  0.77986868  0.44862547  1  0.980236  -0.005893  0.139207  0.083481  -0.004583  3.92168  -0.004
C  C71  1  0.72764731  0.27986700  0.05137310  1  0.980269  -0.005893  0.139237  0.083443  -0.004583  3.921585  -0.004
C  C72  1  0.72765156  0.22013017  0.55137444  1  0.980461  -0.005892  0.139269  0.083551  -0.004583  3.921795  -0.004
C  C73  1  0.27235102  0.72013185  0.94862731  1  0.980309  -0.005893  0.139245  0.083493  -0.004583  3.921643  -0.004
C  C74  1  0.51011131  0.70614536  0.43766727  1  0.42149  -0.003496  -0.004251  -0.051411  -0.002341  4.041871  -0.003
C  C75  1  0.48988680  0.20614504  0.06233385  1  0.421418  -0.003496  -0.004205  -0.051316  -0.002341  4.042095  -0.003
C  C76  1  0.48989295  0.29385349  0.56233264  1  0.42115  -0.003498  -0.004267  -0.051356  -0.002341  4.041879  -0.003
C  C77  1  0.51011135  0.79385194  0.93767011  1  0.421121  -0.003498  -0.004252  -0.051393  -0.002341  4.04201  -0.003
C  C78  1  0.40842634  0.60941173  0.42032319  1  0.264583  -0.001673  -0.00417  -0.114962  -0.001206  3.929057  -0.001
C  C79  1  0.59157122  0.10941579  0.07968098  1  0.264361  -0.001673  -0.00424  -0.115142  -0.001205  3.929234  -0.001
C  C80  1  0.59157544  0.39058619  0.57967905  1  0.264371  -0.001673  -0.004145  -0.115022  -0.001205  3.929007  -0.001
C  C81  1  0.40842814  0.89058680  0.92032240  1  0.264583  -0.001673  -0.004141  -0.114922  -0.001205  3.928965  -0.001
C  C82  1  0.10921595  0.59114483  0.41448749  1  0.317261  -0.000635  -0.058052  -0.078423  -0.000591  3.856035  0.0
C  C83  1  0.89078059  0.09114556  0.08551657  1  0.317224  -0.000635  -0.057988  -0.07829  -0.000591  3.856005  0.0
C  C84  1  0.89078695  0.40885215  0.58551595  1  0.317246  -0.000635  -0.058038  -0.078437  -0.000591  3.856124  0.0
C  C85  1  0.10921875  0.90885610  0.91448740  1  0.317242  -0.000635  -0.058037  -0.078381  -0.000591  3.855888  0.0
C  C86  1  0.03662173  0.61975801  0.33354011  1  -0.018742  -0.000253  -0.161065  -0.149745  -0.000165  3.87746  0.0
C  C87  1  0.96337459  0.11975848  0.16646350  1  -0.018777  -0.000253  -0.161105  -0.149846  -0.000165  3.877922  0.0
C  C88  1  0.96338238  0.38024365  0.66646275  1  -0.018781  -0.000253  -0.161068  -0.149792  -0.000165  3.877548  0.0
C  C89  1  0.03662719  0.88024318  0.83353874  1  -0.018755  -0.000252  -0.161077  -0.149789  -0.000165  3.877704  0.0
C  C90  1  0.87121461  0.56277017  0.32552311  1  -0.024713  -0.000107  -0.155949  -0.145202  -7e-05  3.895092  0.0
C  C91  1  0.12878464  0.06277409  0.17447848  1  -0.024925  -0.000107  -0.155939  -0.145198  -7e-05  3.895306  0.0
C  C92  1  0.12878835  0.43722869  0.67447915  1  -0.024687  -0.000107  -0.15597  -0.145251  -7e-05  3.895245  0.0
C  C93  1  0.87121605  0.93722757  0.82552196  1  -0.024404  -0.000107  -0.155957  -0.145279  -7e-05  3.895308  0.0
C  C94  1  0.87491839  0.43069566  0.29102762  1  0.264057  -3.9e-05  -0.056307  -0.083216  -2.4e-05  3.850897  0.0
C  C95  1  0.12508022  0.93069780  0.20897467  1  0.263939  -3.9e-05  -0.056279  -0.082992  -2.4e-05  3.850731  0.0
C  C96  1  0.12507637  0.56930600  0.70897334  1  0.263994  -3.9e-05  -0.056293  -0.08313  -2.4e-05  3.850775  0.0
C  C97  1  0.87492165  0.06930199  0.79102579  1  0.263962  -3.9e-05  -0.056286  -0.082929  -2.4e-05  3.850657  0.0
C  C98  1  0.58803765  0.39856196  0.25269676  1  0.292674  -5e-06  0.019234  -0.085229  0.000103  3.84879  0.0
C  C99  1  0.41196878  0.89855564  0.24729600  1  0.29323  -5e-06  0.019171  -0.085333  0.000103  3.849391  0.0
C  C100  1  0.41196569  0.60144438  0.74729781  1  0.293142  -4e-06  0.0192  -0.085277  0.000103  3.849218  0.0
C  C101  1  0.58803327  0.10144322  0.75270091  1  0.293016  -4e-06  0.019221  -0.085323  0.000103  3.849257  0.0
C  C102  1  0.46839020  0.32432241  0.28028823  1  0.363053  -0.000149  0.020118  -0.03432  -9e-05  3.891138  0.0
C  C103  1  0.53160124  0.82432822  0.21970926  1  0.36299  -0.000149  0.020222  -0.034188  -9e-05  3.891617  0.0
C  C104  1  0.53160247  0.67567364  0.71970736  1  0.362863  -0.000149  0.020197  -0.034192  -9e-05  3.891369  0.0
C  C105  1  0.46839482  0.17567064  0.78028935  1  0.363471  -0.000149  0.020154  -0.034245  -9e-05  3.891365  0.0
C  C106  1  0.68432148  0.27933855  0.34906915  1  0.987598  -0.00027  0.171323  0.107045  4.6e-05  3.811079  0.0
C  C107  1  0.31567974  0.77933429  0.15092885  1  0.98751  -0.00027  0.171308  0.107069  4.7e-05  3.810977  0.0
C  C108  1  0.31567693  0.72066592  0.65092949  1  0.987471  -0.00027  0.171336  0.107133  4.7e-05  3.81103  0.0
C  C109  1  0.68431756  0.22066644  0.84906859  1  0.98736  -0.00027  0.171302  0.10718  4.7e-05  3.810805  0.0
N  N110  1  0.42376721  0.81203247  0.45560924  1  -1.254694  -0.04311  -0.341751  -0.306943  -0.032517  3.508178  -0.017
N  N111  1  0.57623017  0.31202960  0.04438946  1  -1.254676  -0.043109  -0.341807  -0.307059  -0.032517  3.508273  -0.017
N  N112  1  0.57623699  0.18796545  0.54439185  1  -1.254502  -0.043109  -0.341805  -0.307053  -0.032519  3.508433  -0.017
N  N113  1  0.42376569  0.68796645  0.95561329  1  -1.254453  -0.043116  -0.341796  -0.30706  -0.032516  3.508321  -0.017
N  N114  1  0.25803882  0.65764246  0.42773733  1  -1.237385  -0.003317  -0.240965  0.050208  -0.002053  3.766606  -0.002
N  N115  1  0.74195970  0.15764191  0.07226355  1  -1.237432  -0.003317  -0.240975  0.050277  -0.002053  3.766562  -0.002
N  N116  1  0.74196420  0.34235640  0.57226374  1  -1.23749  -0.003317  -0.240954  0.050281  -0.002053  3.766501  -0.002
N  N117  1  0.25803849  0.84235695  0.92773982  1  -1.237485  -0.003317  -0.240965  0.050224  -0.002053  3.766518  -0.002
N  N118  1  0.72116235  0.36915125  0.29670009  1  -1.231367  -6.2e-05  -0.228444  0.056285  -9.2e-05  3.779368  0.0
N  N119  1  0.27883930  0.86915533  0.20329837  1  -1.231253  -6.2e-05  -0.228443  0.056221  -9.2e-05  3.779335  0.0
N  N120  1  0.27883725  0.63084761  0.70329857  1  -1.231328  -6.2e-05  -0.228447  0.056181  -9.2e-05  3.779444  0.0
N  N121  1  0.72116029  0.13084540  0.79670028  1  -1.231359  -6.2e-05  -0.228469  0.056107  -9.2e-05  3.779333  0.0
N  N122  1  0.53137147  0.25159173  0.33982677  1  -1.296125  -5.5e-05  -0.356213  -0.178858  0.000337  3.665996  0.0
N  N123  1  0.46863114  0.75158961  0.16017169  1  -1.296177  -5.5e-05  -0.356174  -0.178818  0.000337  3.666046  0.0
N  N124  1  0.46862695  0.74841180  0.66017187  1  -1.296218  -5.5e-05  -0.356187  -0.178888  0.000337  3.666088  0.0
N  N125  1  0.53136616  0.24841112  0.83982575  1  -1.296432  -5.5e-05  -0.356149  -0.178898  0.000338  3.665784  0.0
O  O126  1  0.66895443  0.01585943  0.41567172  1  -1.002516  -0.021919  -0.619087  -0.888319  -0.014049  1.918451  0.012
O  O127  1  0.33104562  0.51585516  0.08432135  1  -1.002599  -0.021933  -0.619098  -0.888428  -0.014048  1.918533  0.012
O  O128  1  0.33104877  0.98414130  0.58432580  1  -1.002631  -0.021933  -0.619045  -0.888224  -0.014044  1.918491  0.012
O  O129  1  0.66895634  0.48414276  0.91567734  1  -1.002525  -0.021917  -0.619089  -0.888403  -0.014047  1.91852  0.012
O  O130  1  0.82792420  0.87879877  0.30495457  1  -0.861431  0.000604  -0.596833  -0.746516  0.002982  1.597218  0.003
O  O131  1  0.17208029  0.37876718  0.19503274  1  -0.861756  0.000606  -0.596782  -0.746489  0.002984  1.59726  0.003
O  O132  1  0.17207427  0.12120196  0.69504289  1  -0.861428  0.000606  -0.596814  -0.74654  0.002984  1.597257  0.003
O  O133  1  0.82791689  0.62122980  0.80496707  1  -0.86172  0.000606  -0.5968  -0.746472  0.002985  1.597214  0.003
O  O134  1  0.88277688  0.83007538  0.46537522  1  -1.050915  -0.005328  -0.688215  -0.981422  -0.002357  1.954582  0.003
O  O135  1  0.11720432  0.33008971  0.03461388  1  -1.050913  -0.00533  -0.688245  -0.981545  -0.002357  1.954886  0.003
O  O136  1  0.11722157  0.16992628  0.53462283  1  -1.050883  -0.005328  -0.688211  -0.981406  -0.002357  1.954575  0.003
O  O137  1  0.88279525  0.66991195  0.96538537  1  -1.050786  -0.005325  -0.688233  -0.981512  -0.002357  1.954835  0.003
O  O138  1  0.66003129  0.91146472  0.57987595  1  -1.037475  -0.021091  -0.605814  -0.891594  -0.015466  1.890784  0.008
O  O139  1  0.33996327  0.41146606  0.92011365  1  -1.037638  -0.021097  -0.605907  -0.891742  -0.015472  1.890772  0.008
O  O140  1  0.33996952  0.08853694  0.42012213  1  -1.03764  -0.021094  -0.605771  -0.891581  -0.015465  1.890776  0.008
O  O141  1  0.66003394  0.58853186  0.07988556  1  -1.037557  -0.021095  -0.605794  -0.891622  -0.015467  1.890793  0.008
O  O142  1  0.84380543  0.70585838  0.60837046  1  -0.863813  0.001296  -0.608313  -0.757647  0.003314  1.536963  0.003
O  O143  1  0.15620399  0.20586591  0.89161474  1  -0.863532  0.001296  -0.608364  -0.757704  0.003314  1.537004  0.003
O  O144  1  0.15619541  0.29414048  0.39162702  1  -0.86384  0.001296  -0.608337  -0.757664  0.003315  1.536975  0.003
O  O145  1  0.84379921  0.79413294  0.10838279  1  -0.863784  0.001296  -0.608324  -0.757638  0.003314  1.537072  0.003
O  O146  1  0.00203993  0.05974539  0.38863072  1  -1.085183  -0.008679  -0.707207  -1.025346  -0.006005  1.935931  -0.003
O  O147  1  0.99795861  0.55974646  0.11138564  1  -1.084972  -0.008678  -0.707099  -1.025235  -0.006004  1.935691  -0.003
O  O148  1  0.99796087  0.94025160  0.61136736  1  -1.085206  -0.00868  -0.707223  -1.025378  -0.006005  1.935773  -0.003
O  O149  1  0.00204335  0.44025240  0.88861305  1  -1.084997  -0.008678  -0.707104  -1.025238  -0.006004  1.935673  -0.003
