# generated using pymatgen
data_BaVH8C8NO11
_symmetry_space_group_name_H-M   'P 1'
_cell_length_a   7.02839688
_cell_length_b   10.80579422
_cell_length_c   11.47004254
_cell_angle_alpha   112.71586632
_cell_angle_beta   99.79091434
_cell_angle_gamma   96.19928448
_symmetry_Int_Tables_number   1
_chemical_formula_structural   BaVH8C8NO11
_chemical_formula_sum   'Ba2 V2 H16 C16 N2 O22'
_cell_volume   777.26044753
_cell_formula_units_Z   2
loop_
 _symmetry_equiv_pos_site_id
 _symmetry_equiv_pos_as_xyz
  1  'x, y, z'
loop_
 _atom_site_type_symbol
 _atom_site_label
 _atom_site_symmetry_multiplicity
 _atom_site_fract_x
 _atom_site_fract_y
 _atom_site_fract_z
 _atom_site_occupancy
 _atom_site_hle17_bader_spin_density
 _atom_site_hle17_ddec_charge
 _atom_site_hle17_ddec_spin_density
 _atom_site_hle17_ddec_sum_bond_order
 _atom_site_hle17_magmom
 _atom_site_hse06_10hf_bader_spin_density
 _atom_site_hse06_10hf_ddec_charge
 _atom_site_hse06_10hf_ddec_spin_density
 _atom_site_hse06_10hf_ddec_sum_bond_order
 _atom_site_hse06_10hf_magmom
 _atom_site_hse06_bader_spin_density
 _atom_site_hse06_ddec_charge
 _atom_site_hse06_ddec_spin_density
 _atom_site_hse06_ddec_sum_bond_order
 _atom_site_hse06_magmom
 _atom_site_pbe_bader_spin_density
 _atom_site_pbe_cm5_charge
 _atom_site_pbe_ddec_charge
 _atom_site_pbe_ddec_spin_density
 _atom_site_pbe_ddec_sum_bond_order
 _atom_site_pbe_magmom
Ba  Ba0  1  0.43288836  0.77164173  0.37910786  1  0  1.691691  0  1.133638  0  0  1.566765  0  1.530435  0  0  1.608994  0  1.480466  0  0  0.952446  1.535718  0  1.565887  0
Ba  Ba1  1  0.56710889  0.22836083  0.62089475  1  0  1.691703  0  1.133619  0  0  1.566761  0  1.530455  0  0  1.608997  0  1.480475  0  0  0.952433  1.535716  0  1.56591  0
V  V2  1  0.13338208  0.25061372  0.82258240  1  0  1.827611  0  2.98365  0  0  1.850918  0  3.397241  0  0  1.934632  0  3.388461  0  0  1.514243  1.790677  0  3.4111  0
V  V3  1  0.86661288  0.74937971  0.17741134  1  0  1.827584  0  2.983951  0  0  1.850921  0  3.397535  0  0  1.934643  0  3.388744  0  0  1.514312  1.790721  0  3.411332  0
H  H4  1  0.41155750  0.29041714  0.28138053  1  0  0.136809  0  0.927732  0  0  0.144113  0  0.988863  0  0  0.149648  0  0.984127  0  0  0.133383  0.14009  0  0.992499  0
H  H5  1  0.58842442  0.70957116  0.71861150  1  0  0.136899  0  0.927518  0  0  0.144195  0  0.988682  0  0  0.149734  0  0.983943  0  0  0.13342  0.14017  0  0.992319  0
H  H6  1  0.26322954  0.87674469  0.98575610  1  0  0.140068  0  0.910436  0  0  0.147762  0  0.968986  0  0  0.152843  0  0.965516  0  0  0.126145  0.144075  0  0.971603  0
H  H7  1  0.73677237  0.12325188  0.01423266  1  0  0.14005  0  0.910523  0  0  0.14777  0  0.96903  0  0  0.152849  0  0.965564  0  0  0.126177  0.144081  0  0.97165  0
H  H8  1  0.14991539  0.73020399  0.57091843  1  0  0.418885  0  0.883573  0  0  0.387997  0  0.947231  0  0  0.398709  0  0.931477  0  0  0.29675  0.380392  0  0.9584  0
H  H9  1  0.85009851  0.26979136  0.42908616  1  0  0.41885  0  0.8836  0  0  0.387953  0  0.947279  0  0  0.398665  0  0.931524  0  0  0.29674  0.380348  0  0.958447  0
H  H10  1  0.01489083  0.61360945  0.44780106  1  0  0.432484  0  0.861038  0  0  0.404762  0  0.917759  0  0  0.415706  0  0.90178  0  0  0.29707  0.396971  0  0.929123  0
H  H11  1  0.98512690  0.38638577  0.55221441  1  0  0.432597  0  0.860861  0  0  0.404879  0  0.917561  0  0  0.415823  0  0.901585  0  0  0.29717  0.397091  0  0.928921  0
H  H12  1  0.85427748  0.99367151  0.56574064  1  0  0.428339  0  0.854413  0  0  0.40189  0  0.916444  0  0  0.41208  0  0.901343  0  0  0.317834  0.394589  0  0.927284  0
H  H13  1  0.14571171  0.00632800  0.43425988  1  0  0.428363  0  0.854382  0  0  0.401934  0  0.916364  0  0  0.412122  0  0.901268  0  0  0.317887  0.394634  0  0.927204  0
H  H14  1  0.82429448  0.00001258  0.42841992  1  0  0.423518  0  0.876823  0  0  0.394311  0  0.938054  0  0  0.405231  0  0.921803  0  0  0.310613  0.386395  0  0.949834  0
H  H15  1  0.17569961  0.99998896  0.57158194  1  0  0.42348  0  0.876869  0  0  0.394254  0  0.938121  0  0  0.405171  0  0.921874  0  0  0.310574  0.386339  0  0.9499  0
H  H16  1  0.77381763  0.46609906  0.45090922  1  0  0.413472  0  0.888144  0  0  0.38252  0  0.951277  0  0  0.393234  0  0.935565  0  0  0.288104  0.374884  0  0.962458  0
H  H17  1  0.22619696  0.53389932  0.54910005  1  0  0.413471  0  0.888167  0  0  0.382531  0  0.951295  0  0  0.393246  0  0.93558  0  0  0.288082  0.374893  0  0.962479  0
H  H18  1  0.69262654  0.50817324  0.33590127  1  0  0.411288  0  0.858219  0  0  0.386071  0  0.925001  0  0  0.394783  0  0.912101  0  0  0.310004  0.379896  0  0.934161  0
H  H19  1  0.30739354  0.49182411  0.66410828  1  0  0.411158  0  0.858388  0  0  0.385947  0  0.925156  0  0  0.394658  0  0.912258  0  0  0.309997  0.379774  0  0.934312  0
C  C20  1  0.31218552  0.40714384  0.09646147  1  0  0.658361  0  3.870105  0  0  0.615098  0  4.161765  0  0  0.65156  0  4.149781  0  0  0.2476  0.590323  0  4.168934  0
C  C21  1  0.68781604  0.59286895  0.90354456  1  0  0.658555  0  3.868871  0  0  0.615042  0  4.160952  0  0  0.651514  0  4.148965  0  0  0.24765  0.590269  0  4.168118  0
C  C22  1  0.29817060  0.26263663  0.08344152  1  0  0.120558  0  3.750179  0  0  0.125166  0  3.996944  0  0  0.128549  0  4.012342  0  0  0.128357  0.122752  0  3.986602  0
C  C23  1  0.70182277  0.73737021  0.91654651  1  0  0.120767  0  3.750093  0  0  0.125481  0  3.996897  0  0  0.128848  0  4.012318  0  0  0.128542  0.123062  0  3.986552  0
C  C24  1  0.35640607  0.21856438  0.18025338  1  0  -0.076606  0  3.611819  0  0  -0.110003  0  3.854392  0  0  -0.110932  0  3.868113  0  0  -0.044188  -0.109803  0  3.845865  0
C  C25  1  0.64360261  0.78143719  0.81974676  1  0  -0.076678  0  3.611932  0  0  -0.110136  0  3.854471  0  0  -0.111061  0  3.868191  0  0  -0.044226  -0.109929  0  3.84594  0
C  C26  1  0.34430597  0.07804546  0.14511890  1  0  0.017048  0  3.640212  0  0  0.033835  0  3.882682  0  0  0.032935  0  3.899475  0  0  0.019065  0.034353  0  3.871522  0
C  C27  1  0.65568960  0.92196538  0.85487871  1  0  0.016745  0  3.640287  0  0  0.033638  0  3.882574  0  0  0.032745  0  3.899357  0  0  0.018933  0.034146  0  3.871423  0
C  C28  1  0.41828337  0.03052492  0.25028983  1  0  0.649985  0  3.962789  0  0  0.601673  0  4.26151  0  0  0.634594  0  4.254276  0  0  0.211597  0.579404  0  4.265431  0
C  C29  1  0.58170456  0.96946439  0.74970417  1  0  0.650001  0  3.962862  0  0  0.601743  0  4.261407  0  0  0.634663  0  4.254167  0  0  0.21159  0.579476  0  4.265332  0
C  C30  1  0.27025076  0.98608095  0.01496063  1  0  -0.099665  0  3.624911  0  0  -0.135599  0  3.878463  0  0  -0.138316  0  3.895238  0  0  -0.056495  -0.133712  0  3.86734  0
C  C31  1  0.72975584  0.01392368  0.98504126  1  0  -0.099414  0  3.625081  0  0  -0.135402  0  3.878542  0  0  -0.138122  0  3.895312  0  0  -0.05644  -0.13352  0  3.867442  0
C  C32  1  0.20851309  0.03859011  0.92454266  1  0  0.118801  0  3.76641  0  0  0.121285  0  4.024828  0  0  0.124215  0  4.042649  0  0  0.121605  0.119217  0  4.012662  0
C  C33  1  0.79148594  0.96142789  0.07545713  1  0  0.11865  0  3.766631  0  0  0.12121  0  4.024977  0  0  0.124151  0  4.04278  0  0  0.121605  0.119134  0  4.012817  0
C  C34  1  0.13201638  0.96157518  0.78071775  1  0  0.637565  0  3.872031  0  0  0.583241  0  4.18102  0  0  0.617315  0  4.171653  0  0  0.23195  0.56007  0  4.186442  0
C  C35  1  0.86798005  0.03842242  0.21927073  1  0  0.637516  0  3.872411  0  0  0.58315  0  4.181425  0  0  0.617218  0  4.172054  0  0  0.23186  0.559984  0  4.186848  0
N  N36  1  0.22368128  0.17308275  0.96048426  1  0  -0.404919  0  3.417051  0  0  -0.382603  0  3.696279  0  0  -0.402831  0  3.72228  0  0  -0.383804  -0.368672  0  3.678776  0
N  N37  1  0.77632454  0.82692585  0.03952859  1  0  -0.404974  0  3.416426  0  0  -0.382736  0  3.695677  0  0  -0.402961  0  3.721672  0  0  -0.383877  -0.368807  0  3.678179  0
O  O38  1  0.38167083  0.50486400  0.20273012  1  0  -0.595509  0  1.965971  0  0  -0.541502  0  2.186716  0  0  -0.565775  0  2.175179  0  0  -0.313268  -0.524439  0  2.194119  0
O  O39  1  0.61832273  0.49512944  0.79726259  1  0  -0.595623  0  1.965235  0  0  -0.541494  0  2.186074  0  0  -0.565772  0  2.17454  0  0  -0.313321  -0.524432  0  2.193475  0
O  O40  1  0.24779348  0.41427909  0.98604405  1  0  -0.602667  0  1.953386  0  0  -0.578656  0  2.19359  0  0  -0.609743  0  2.186358  0  0  -0.334464  -0.556261  0  2.197911  0
O  O41  1  0.75220789  0.58573555  0.01397834  1  0  -0.602788  0  1.953145  0  0  -0.578713  0  2.193494  0  0  -0.609803  0  2.186256  0  0  -0.334579  -0.556327  0  2.197815  0
O  O42  1  0.08185006  0.04143600  0.72256658  1  0  -0.686605  0  2.076234  0  0  -0.640271  0  2.326344  0  0  -0.673226  0  2.321952  0  0  -0.331399  -0.61648  0  2.328768  0
O  O43  1  0.91814249  0.95857481  0.27743327  1  0  -0.686547  0  2.076219  0  0  -0.640215  0  2.326316  0  0  -0.673171  0  2.321921  0  0  -0.331323  -0.616433  0  2.32874  0
O  O44  1  0.12351485  0.83723006  0.72604220  1  0  -0.526466  0  1.933697  0  0  -0.478185  0  2.138276  0  0  -0.499523  0  2.12907  0  0  -0.26873  -0.463333  0  2.1443  0
O  O45  1  0.87649833  0.16275941  0.27394008  1  0  -0.526461  0  1.933691  0  0  -0.478169  0  2.138293  0  0  -0.499505  0  2.12909  0  0  -0.268769  -0.463318  0  2.144315  0
O  O46  1  0.43822257  0.11815729  0.36528028  1  0  -0.696539  0  1.981354  0  0  -0.638899  0  2.221235  0  0  -0.665856  0  2.212477  0  0  -0.383157  -0.61937  0  2.226579  0
O  O47  1  0.56177415  0.88183811  0.63471964  1  0  -0.69643  0  1.981395  0  0  -0.638827  0  2.221242  0  0  -0.665782  0  2.212485  0  0  -0.383114  -0.6193  0  2.226585  0
O  O48  1  0.45474771  0.91113021  0.21414232  1  0  -0.666061  0  1.929501  0  0  -0.620415  0  2.166545  0  0  -0.645068  0  2.158096  0  0  -0.343444  -0.602879  0  2.171575  0
O  O49  1  0.54523482  0.08886015  0.78584967  1  0  -0.66607  0  1.929407  0  0  -0.620477  0  2.166451  0  0  -0.645134  0  2.158003  0  0  -0.343402  -0.602935  0  2.171474  0
O  O50  1  0.25034358  0.28355812  0.72306827  1  0  -0.803665  0  1.39189  0  0  -0.81212  0  1.671342  0  0  -0.843844  0  1.664104  0  0  -0.639037  -0.789946  0  1.677158  0
O  O51  1  0.74965329  0.71644756  0.27693109  1  0  -0.803698  0  1.391888  0  0  -0.812159  0  1.671327  0  0  -0.843886  0  1.664081  0  0  -0.639078  -0.79  0  1.677135  0
O  O52  1  0.90660451  0.27075162  0.79402493  1  0  -0.780767  0  1.374064  0  0  -0.790152  0  1.642289  0  0  -0.821107  0  1.635456  0  0  -0.632713  -0.768491  0  1.647759  0
O  O53  1  0.09339242  0.72924991  0.20597814  1  0  -0.78076  0  1.374143  0  0  -0.790146  0  1.642354  0  0  -0.821106  0  1.635518  0  0  -0.63272  -0.768493  0  1.647809  0
O  O54  1  0.76679633  0.54446476  0.42578867  1  0  -0.823448  0  1.796092  0  0  -0.769646  0  1.93994  0  0  -0.787219  0  1.909638  0  0  -0.564521  -0.75723  0  1.96126  0
O  O55  1  0.23321669  0.45553359  0.57422302  1  0  -0.823327  0  1.796279  0  0  -0.769549  0  1.9401  0  0  -0.787121  0  1.909797  0  0  -0.564497  -0.757134  0  1.961419  0
O  O56  1  0.15706407  0.65630284  0.48810906  1  0  -0.87891  0  1.802632  0  0  -0.81767  0  1.956769  0  0  -0.839961  0  1.925268  0  0  -0.598451  -0.801705  0  1.978704  0
O  O57  1  0.84295057  0.34369461  0.51189290  1  0  -0.878994  0  1.802597  0  0  -0.817771  0  1.956783  0  0  -0.840054  0  1.925267  0  0  -0.598529  -0.801808  0  1.978716  0
O  O58  1  0.76011803  0.00693369  0.50006169  1  0  -0.884656  0  1.864253  0  0  -0.831672  0  2.050776  0  0  -0.851621  0  2.018326  0  0  -0.613092  -0.817463  0  2.074049  0
O  O59  1  0.23987180  0.99306276  0.49993691  1  0  -0.884626  0  1.864286  0  0  -0.831628  0  2.050846  0  0  -0.851574  0  2.018399  0  0  -0.613097  -0.817423  0  2.07412  0
