# generated using pymatgen
data_CaH10C8O7
_symmetry_space_group_name_H-M   'P 1'
_cell_length_a   6.55407028
_cell_length_b   7.05556172
_cell_length_c   21.64000000
_cell_angle_alpha   90.00000000
_cell_angle_beta   90.00000000
_cell_angle_gamma   92.21972188
_symmetry_Int_Tables_number   1
_chemical_formula_structural   CaH10C8O7
_chemical_formula_sum   'Ca4 H40 C32 O28'
_cell_volume   999.94001515
_cell_formula_units_Z   4
loop_
 _symmetry_equiv_pos_site_id
 _symmetry_equiv_pos_as_xyz
  1  'x, y, z'
loop_
 _atom_site_type_symbol
 _atom_site_label
 _atom_site_symmetry_multiplicity
 _atom_site_fract_x
 _atom_site_fract_y
 _atom_site_fract_z
 _atom_site_occupancy
 _atom_site_hle17_bader_spin_density
 _atom_site_hle17_ddec_charge
 _atom_site_hle17_ddec_spin_density
 _atom_site_hle17_ddec_sum_bond_order
 _atom_site_hle17_magmom
 _atom_site_hse06_10hf_bader_spin_density
 _atom_site_hse06_10hf_ddec_charge
 _atom_site_hse06_10hf_ddec_spin_density
 _atom_site_hse06_10hf_ddec_sum_bond_order
 _atom_site_hse06_10hf_magmom
 _atom_site_hse06_bader_spin_density
 _atom_site_hse06_ddec_charge
 _atom_site_hse06_ddec_spin_density
 _atom_site_hse06_ddec_sum_bond_order
 _atom_site_hse06_magmom
 _atom_site_pbe_bader_charge
 _atom_site_pbe_bader_spin_density
 _atom_site_pbe_cm5_charge
 _atom_site_pbe_ddec_charge
 _atom_site_pbe_ddec_spin_density
 _atom_site_pbe_ddec_sum_bond_order
 _atom_site_pbe_magmom
Ca  Ca0  1  0.50602004  0.33871055  0.71416682  1  0  1.563759  0  1.096764  0  0  1.437274  0  1.439597  0  0  1.481405  0  1.392799  0  1.641826  0  0.885322  1.404221  0  1.472692  0
Ca  Ca1  1  0.99398550  0.66127987  0.21416682  1  0  1.563792  0  1.09672  0  0  1.437295  0  1.439533  0  0  1.481421  0  1.392744  0  1.641791  0  0.885344  1.404246  0  1.472623  0
Ca  Ca2  1  0.49397138  0.66128838  0.28583318  1  0  1.56375  0  1.096767  0  0  1.437245  0  1.439602  0  0  1.481378  0  1.392806  0  1.641857  0  0.885329  1.404248  0  1.472598  0
Ca  Ca3  1  0.00602528  0.33870771  0.78583179  1  0  1.563732  0  1.096784  0  0  1.437225  0  1.43961  0  0  1.481355  0  1.392816  0  1.641823  0  0.885315  1.404191  0  1.472669  0
H  H4  1  0.69784214  0.33441284  0.57670240  1  0  0.105265  0  0.979626  0  0  0.114947  0  1.042895  0  0  0.118388  0  1.040445  0  0.116713  0  0.111863  0.112455  0  1.04478  0
H  H5  1  0.80216651  0.66557900  0.07670887  1  0  0.105215  0  0.979439  0  0  0.114937  0  1.042684  0  0  0.118377  0  1.040233  0  0.116394  0  0.111852  0.112445  0  1.044569  0
H  H6  1  0.30213818  0.66557616  0.42329760  1  0  0.105168  0  0.979467  0  0  0.114878  0  1.042746  0  0  0.118322  0  1.040286  0  0.115437  0  0.111768  0.112384  0  1.044634  0
H  H7  1  0.19782961  0.33442277  0.92329667  1  0  0.105202  0  0.979119  0  0  0.114865  0  1.042464  0  0  0.118307  0  1.040009  0  0.116472  0  0.111787  0.112372  0  1.044351  0
H  H8  1  0.69527329  0.32370403  0.46304020  1  0  0.090661  0  0.974506  0  0  0.101363  0  1.03673  0  0  0.104628  0  1.034704  0  0.08225  0  0.10302  0.098997  0  1.038256  0
H  H9  1  0.80473643  0.67631334  0.96304667  1  0  0.09069  0  0.974495  0  0  0.10139  0  1.036716  0  0  0.104657  0  1.034686  0  0.082029  0  0.103022  0.099023  0  1.038243  0
H  H10  1  0.30470798  0.67630767  0.53695933  1  0  0.090616  0  0.974464  0  0  0.101355  0  1.036651  0  0  0.104614  0  1.034638  0  0.082426  0  0.103072  0.098988  0  1.038177  0
H  H11  1  0.19528058  0.32367708  0.03695933  1  0  0.090696  0  0.974408  0  0  0.101419  0  1.036609  0  0  0.104683  0  1.034585  0  0.082364  0  0.103035  0.099051  0  1.038134  0
H  H12  1  0.32043991  0.15579834  0.46308503  1  0  0.091737  0  0.949792  0  0  0.10333  0  1.008253  0  0  0.106721  0  1.00633  0  0.083055  0  0.10365  0.100806  0  1.009812  0
H  H13  1  0.17956327  0.84420768  0.96309196  1  0  0.09168  0  0.949579  0  0  0.103161  0  1.008188  0  0  0.106575  0  1.006239  0  0.082262  0  0.103613  0.100638  0  1.009746  0
H  H14  1  0.67953344  0.84420626  0.53690943  1  0  0.091758  0  0.949797  0  0  0.103375  0  1.00823  0  0  0.106749  0  1.006329  0  0.085611  0  0.103681  0.100852  0  1.009786  0
H  H15  1  0.82046888  0.15581678  0.03690481  1  0  0.09153  0  0.949641  0  0  0.103145  0  1.008117  0  0  0.106549  0  1.006179  0  0.085424  0  0.103588  0.100624  0  1.009675  0
H  H16  1  0.32426981  0.17179490  0.57811506  1  0  0.09785  0  0.95623  0  0  0.106624  0  1.021415  0  0  0.110323  0  1.018634  0  0.103167  0  0.112032  0.10397  0  1.023453  0
H  H17  1  0.17573624  0.82820687  0.07812200  1  0  0.097913  0  0.956368  0  0  0.106711  0  1.021516  0  0  0.110406  0  1.018736  0  0.10322  0  0.112053  0.104057  0  1.023556  0
H  H18  1  0.67571757  0.82821680  0.42187939  1  0  0.098047  0  0.956269  0  0  0.106758  0  1.021502  0  0  0.110451  0  1.018727  0  0.102917  0  0.112069  0.104111  0  1.023547  0
H  H19  1  0.82427232  0.17180057  0.92187431  1  0  0.098089  0  0.956268  0  0  0.106851  0  1.021451  0  0  0.110547  0  1.018665  0  0.103112  0  0.112093  0.104202  0  1.023499  0
H  H20  1  0.37484882  0.62049560  0.62546765  1  0  0.416295  0  0.893639  0  0  0.384825  0  0.959411  0  0  0.395426  0  0.943955  0  0.632864  0  0.295935  0.377249  0  0.970451  0
H  H21  1  0.12516116  0.37949056  0.12546627  1  0  0.416364  0  0.893513  0  0  0.38479  0  0.959443  0  0  0.395391  0  0.943987  0  0.63275  0  0.295899  0.377216  0  0.970479  0
H  H22  1  0.62512100  0.37949766  0.37453882  1  0  0.416337  0  0.893613  0  0  0.384805  0  0.959475  0  0  0.395405  0  0.94402  0  0.633039  0  0.295886  0.377228  0  0.970518  0
H  H23  1  0.87487275  0.62050269  0.87453789  1  0  0.416268  0  0.893715  0  0  0.384741  0  0.959561  0  0  0.395343  0  0.944104  0  0.632988  0  0.295882  0.377165  0  0.970602  0
H  H24  1  0.61691638  0.63238026  0.62471858  1  0  0.413233  0  0.897181  0  0  0.38085  0  0.964671  0  0  0.391381  0  0.949353  0  0.629684  0  0.295575  0.373342  0  0.975586  0
H  H25  1  0.88308605  0.36760874  0.12471765  1  0  0.413195  0  0.897234  0  0  0.380801  0  0.964744  0  0  0.391331  0  0.949431  0  0.629577  0  0.295515  0.373291  0  0.975664  0
H  H26  1  0.38305075  0.36762151  0.37528373  1  0  0.413179  0  0.897251  0  0  0.380769  0  0.964803  0  0  0.391313  0  0.949464  0  0.629554  0  0.295486  0.37326  0  0.97572  0
H  H27  1  0.11694797  0.63238735  0.87528142  1  0  0.413165  0  0.89725  0  0  0.380731  0  0.964839  0  0  0.39127  0  0.949507  0  0.629539  0  0.295472  0.373221  0  0.975758  0
H  H28  1  0.79551036  0.68060112  0.71679298  1  0  0.426084  0  0.87519  0  0  0.393432  0  0.940932  0  0  0.405436  0  0.923187  0  0.634952  0  0.303217  0.38487  0  0.953598  0
H  H29  1  0.70448931  0.31939497  0.21679713  1  0  0.426052  0  0.875237  0  0  0.393368  0  0.941045  0  0  0.405369  0  0.923302  0  0.634937  0  0.30316  0.384806  0  0.95371  0
H  H30  1  0.20447507  0.31940065  0.28320656  1  0  0.426086  0  0.875173  0  0  0.393388  0  0.941003  0  0  0.4054  0  0.923244  0  0.635303  0  0.303185  0.384825  0  0.95367  0
H  H31  1  0.29552793  0.68060112  0.78320702  1  0  0.426015  0  0.875266  0  0  0.393317  0  0.941101  0  0  0.405326  0  0.923346  0  0.635225  0  0.303151  0.384753  0  0.953769  0
H  H32  1  0.70468968  0.67743529  0.78596442  1  0  0.425619  0  0.877985  0  0  0.393268  0  0.943179  0  0  0.405337  0  0.92538  0  0.644357  0  0.302161  0.384674  0  0.95585  0
H  H33  1  0.79531475  0.32256506  0.28596765  1  0  0.425597  0  0.87802  0  0  0.393201  0  0.943277  0  0  0.405269  0  0.925481  0  0.644314  0  0.30211  0.384605  0  0.95595  0
H  H34  1  0.29532861  0.32254946  0.21403928  1  0  0.425663  0  0.877899  0  0  0.393292  0  0.943115  0  0  0.405359  0  0.925321  0  0.644254  0  0.302183  0.384697  0  0.955789  0
H  H35  1  0.20467844  0.67743954  0.71403974  1  0  0.425644  0  0.877951  0  0  0.3933  0  0.943135  0  0  0.405371  0  0.925335  0  0.6443  0  0.302161  0.384704  0  0.955808  0
H  H36  1  0.38419592  0.94347342  0.66546349  1  0  0.433307  0  0.858149  0  0  0.402615  0  0.921038  0  0  0.412325  0  0.906618  0  0.63704  0  0.306691  0.395629  0  0.931424  0
H  H37  1  0.11579987  0.05653828  0.16546349  1  0  0.433337  0  0.858069  0  0  0.402639  0  0.920975  0  0  0.41235  0  0.906553  0  0.636997  0  0.306733  0.395653  0  0.93136  0
H  H38  1  0.61576874  0.05654254  0.33453604  1  0  0.433322  0  0.858152  0  0  0.402645  0  0.921007  0  0  0.412353  0  0.906592  0  0.637215  0  0.30675  0.395661  0  0.931387  0
H  H39  1  0.88422629  0.94345214  0.83453835  1  0  0.433311  0  0.858144  0  0  0.402623  0  0.921023  0  0  0.412334  0  0.906602  0  0.637127  0  0.306735  0.395639  0  0.931405  0
H  H40  1  0.62671720  0.94636976  0.66510952  1  0  0.435694  0  0.857052  0  0  0.404344  0  0.92048  0  0  0.414238  0  0.905895  0  0.644861  0  0.305748  0.397268  0  0.930915  0
H  H41  1  0.87327942  0.05362633  0.16511183  1  0  0.43569  0  0.857055  0  0  0.404358  0  0.920465  0  0  0.41425  0  0.905882  0  0.645202  0  0.30575  0.397279  0  0.930906  0
H  H42  1  0.37324741  0.05364477  0.33488771  1  0  0.435669  0  0.857009  0  0  0.40427  0  0.920521  0  0  0.414167  0  0.90593  0  0.644832  0  0.30574  0.397197  0  0.930953  0
H  H43  1  0.12674803  0.94635841  0.83489140  1  0  0.435669  0  0.857042  0  0  0.404301  0  0.920524  0  0  0.414197  0  0.905936  0  0.644884  0  0.3057  0.397224  0  0.930963  0
C  C44  1  0.01094378  0.25269963  0.58485397  1  0  -0.062704  0  3.733083  0  0  -0.044769  0  3.974182  0  0  -0.051776  0  3.995687  0  -0.038644  0  -0.01073  -0.040145  0  3.959814  0
C  C45  1  0.48907002  0.74730497  0.08486091  1  0  -0.062592  0  3.733081  0  0  -0.044638  0  3.974139  0  0  -0.05165  0  3.99564  0  -0.038666  0  -0.010671  -0.040014  0  3.95977  0
C  C46  1  0.98905410  0.74730781  0.41514094  1  0  -0.062724  0  3.732746  0  0  -0.044678  0  3.973669  0  0  -0.051696  0  3.995161  0  -0.038298  0  -0.010715  -0.040046  0  3.959309  0
C  C47  1  0.51094722  0.25269112  0.91513909  1  0  -0.062791  0  3.732945  0  0  -0.044845  0  3.973952  0  0  -0.051858  0  3.995445  0  -0.038458  0  -0.010786  -0.040216  0  3.959593  0
C  C48  1  0.83393963  0.29402288  0.55194177  1  0  -0.070771  0  3.722356  0  0  -0.095107  0  3.97323  0  0  -0.095796  0  3.993584  0  -0.064805  0  -0.079837  -0.094577  0  3.959368  0
C  C49  1  0.66605876  0.70597888  0.05194131  1  0  -0.070792  0  3.722722  0  0  -0.095174  0  3.973604  0  0  -0.095863  0  3.993962  0  -0.064814  0  -0.079916  -0.09464  0  3.959735  0
C  C50  1  0.16603490  0.70597321  0.44805684  1  0  -0.070737  0  3.722459  0  0  -0.095134  0  3.973323  0  0  -0.095818  0  3.993675  0  -0.063842  0  -0.079839  -0.094602  0  3.959457  0
C  C51  1  0.33395719  0.29402288  0.94805915  1  0  -0.070664  0  3.722442  0  0  -0.094991  0  3.973317  0  0  -0.09568  0  3.993674  0  -0.064832  0  -0.079824  -0.094456  0  3.959446  0
C  C52  1  0.83271716  0.28735505  0.48785213  1  0  -0.067276  0  3.73725  0  0  -0.089455  0  3.984662  0  0  -0.091528  0  4.006626  0  -0.007085  0  -0.082304  -0.087915  0  3.969508  0
C  C53  1  0.66730893  0.71265239  0.98786414  1  0  -0.067402  0  3.737077  0  0  -0.0896  0  3.984517  0  0  -0.091675  0  4.006478  0  -0.006218  0  -0.082384  -0.088061  0  3.969364  0
C  C54  1  0.16726382  0.71264955  0.51214279  1  0  -0.067224  0  3.73713  0  0  -0.089462  0  3.984601  0  0  -0.091534  0  4.006565  0  -0.006477  0  -0.082298  -0.087921  0  3.969447  0
C  C55  1  0.33271453  0.28734654  0.01213678  1  0  -0.067446  0  3.737201  0  0  -0.089654  0  3.984648  0  0  -0.091729  0  4.006618  0  -0.006332  0  -0.08232  -0.08811  0  3.969491  0
C  C56  1  0.00765402  0.23783778  0.45519640  1  0  -0.07288  0  3.76116  0  0  -0.052024  0  4.000218  0  0  -0.058594  0  4.024423  0  -0.034479  0  -0.014841  -0.047522  0  3.983551  0
C  C57  1  0.49232341  0.76217250  0.95519871  1  0  -0.072752  0  3.760747  0  0  -0.051824  0  3.999711  0  0  -0.058399  0  4.023933  0  -0.034794  0  -0.014699  -0.047321  0  3.983041  0
C  C58  1  0.99232708  0.76216966  0.54479945  1  0  -0.072846  0  3.761046  0  0  -0.051909  0  4.000048  0  0  -0.058493  0  4.024247  0  -0.034838  0  -0.014885  -0.047408  0  3.983382  0
C  C59  1  0.50769713  0.23782927  0.04479945  1  0  -0.072818  0  3.761109  0  0  -0.051904  0  4.000129  0  0  -0.058495  0  4.024344  0  -0.035014  0  -0.014797  -0.047401  0  3.98346  0
C  C60  1  0.18496548  0.19674998  0.48819547  1  0  -0.064831  0  3.726684  0  0  -0.086346  0  3.97417  0  0  -0.088199  0  3.995895  0  -0.033742  0  -0.079655  -0.084942  0  3.959227  0
C  C61  1  0.31504698  0.80325888  0.98820333  1  0  -0.064633  0  3.726437  0  0  -0.086061  0  3.973925  0  0  -0.087933  0  3.995644  0  -0.032684  0  -0.079562  -0.08466  0  3.958981  0
C  C62  1  0.81502149  0.80325179  0.51179991  1  0  -0.064919  0  3.72702  0  0  -0.086464  0  3.974521  0  0  -0.088311  0  3.996257  0  -0.036466  0  -0.07971  -0.085059  0  3.959578  0
C  C63  1  0.68496364  0.19676133  0.01179991  1  0  -0.064527  0  3.726807  0  0  -0.086054  0  3.974299  0  0  -0.08792  0  3.996025  0  -0.03607  0  -0.079608  -0.084653  0  3.959358  0
C  C64  1  0.18699935  0.20465464  0.55246904  1  0  -0.060778  0  3.709932  0  0  -0.084389  0  3.961972  0  0  -0.084914  0  3.982099  0  -0.02417  0  -0.075305  -0.083931  0  3.948249  0
C  C65  1  0.31299767  0.79534996  0.05247967  1  0  -0.060929  0  3.709874  0  0  -0.084613  0  3.96194  0  0  -0.085128  0  3.982059  0  -0.024267  0  -0.07537  -0.084156  0  3.948224  0
C  C66  1  0.81296825  0.79535847  0.44753142  1  0  -0.060904  0  3.70963  0  0  -0.084532  0  3.961708  0  0  -0.085045  0  3.981815  0  -0.024171  0  -0.075249  -0.084088  0  3.948002  0
C  C67  1  0.68702468  0.20465890  0.94752495  1  0  -0.061006  0  3.709781  0  0  -0.084695  0  3.961916  0  0  -0.085208  0  3.982024  0  -0.024309  0  -0.075286  -0.084248  0  3.948212  0
C  C68  1  0.00946116  0.26130923  0.65386599  1  0  0.6943  0  3.876193  0  0  0.643326  0  4.166394  0  0  0.67936  0  4.156644  0  1.567933  0  0.231945  0.618654  0  4.172309  0
C  C69  1  0.49051450  0.73869537  0.15387431  1  0  0.694194  0  3.876427  0  0  0.643311  0  4.166483  0  0  0.679345  0  4.156739  0  1.568089  0  0.23203  0.618636  0  4.172402  0
C  C70  1  0.99052315  0.73866559  0.34613309  1  0  0.694221  0  3.876111  0  0  0.643294  0  4.166176  0  0  0.679348  0  4.156393  0  1.567962  0  0.231932  0.618604  0  4.172121  0
C  C71  1  0.50948667  0.26131774  0.84612708  1  0  0.694076  0  3.876156  0  0  0.643267  0  4.166099  0  0  0.679315  0  4.15633  0  1.568081  0  0.231935  0.618575  0  4.172038  0
C  C72  1  0.00351791  0.23004943  0.38593022  1  0  0.682659  0  3.845674  0  0  0.619376  0  4.1557  0  0  0.653024  0  4.147769  0  1.536953  0  0.229244  0.596512  0  4.160364  0
C  C73  1  0.49650153  0.76994383  0.88593669  1  0  0.682668  0  3.845781  0  0  0.619344  0  4.155873  0  0  0.652975  0  4.147953  0  1.537071  0  0.229213  0.596483  0  4.16053  0
C  C74  1  0.99646095  0.76994099  0.61406608  1  0  0.682818  0  3.845127  0  0  0.61949  0  4.155212  0  0  0.653159  0  4.147237  0  1.537312  0  0.229345  0.596625  0  4.15988  0
C  C75  1  0.50352828  0.23006077  0.11406331  1  0  0.682898  0  3.845107  0  0  0.619567  0  4.155187  0  0  0.653233  0  4.147212  0  1.537379  0  0.229305  0.596702  0  4.159856  0
O  O76  1  0.49702595  0.54184752  0.62516959  1  0  -0.877574  0  1.838155  0  0  -0.826879  0  2.027022  0  0  -0.847508  0  1.995537  0  -1.285652  0  -0.628302  -0.812024  0  2.049196  0
O  O77  1  0.00297676  0.45814715  0.12516867  1  0  -0.877623  0  1.838039  0  0  -0.826813  0  2.026981  0  0  -0.847445  0  1.995503  0  -1.285407  0  -0.62821  -0.811957  0  2.049155  0
O  O78  1  0.50294569  0.45815283  0.37483318  1  0  -0.877608  0  1.838179  0  0  -0.82685  0  2.027073  0  0  -0.847484  0  1.995578  0  -1.285794  0  -0.628144  -0.812003  0  2.049242  0
O  O79  1  0.99705422  0.54184894  0.87482948  1  0  -0.87757  0  1.83827  0  0  -0.826742  0  2.027144  0  0  -0.847376  0  1.99566  0  -1.285684  0  -0.62815  -0.811887  0  2.049314  0
O  O80  1  0.17531244  0.24718778  0.68393762  1  0  -0.736031  0  2.017529  0  0  -0.669612  0  2.265467  0  0  -0.699393  0  2.255552  0  -1.232423  0  -0.388947  -0.648321  0  2.271565  0
O  O81  1  0.32469538  0.75281966  0.18393993  1  0  -0.735648  0  2.017993  0  0  -0.669252  0  2.265866  0  0  -0.699025  0  2.255954  0  -1.232695  0  -0.388784  -0.647971  0  2.271967  0
O  O82  1  0.82468144  0.75279696  0.31606100  1  0  -0.735899  0  2.017408  0  0  -0.66951  0  2.265318  0  0  -0.699293  0  2.255389  0  -1.23259  0  -0.388876  -0.648226  0  2.27143  0
O  O83  1  0.67531753  0.24718211  0.81606146  1  0  -0.735657  0  2.017737  0  0  -0.669298  0  2.26559  0  0  -0.699074  0  2.255666  0  -1.232681  0  -0.388777  -0.648007  0  2.271699  0
O  O84  1  0.84155725  0.28522747  0.68199076  1  0  -0.735922  0  2.026502  0  0  -0.667621  0  2.273337  0  0  -0.697763  0  2.263966  0  -1.236637  0  -0.389324  -0.646105  0  2.27908  0
O  O85  1  0.65846555  0.71477429  0.18199815  1  0  -0.736198  0  2.02604  0  0  -0.66794  0  2.272817  0  0  -0.69809  0  2.263444  0  -1.236821  0  -0.389544  -0.646423  0  2.278562  0
O  O86  1  0.15844028  0.71477146  0.31800647  1  0  -0.73598  0  2.026368  0  0  -0.66771  0  2.27318  0  0  -0.697862  0  2.263799  0  -1.236596  0  -0.38943  -0.64619  0  2.278929  0
O  O87  1  0.34154078  0.28521613  0.81799908  1  0  -0.73598  0  2.026024  0  0  -0.667754  0  2.272768  0  0  -0.697906  0  2.263387  0  -1.23677  0  -0.38945  -0.646226  0  2.278518  0
O  O88  1  0.75050297  0.59599157  0.75137847  1  0  -0.928985  0  1.896189  0  0  -0.869269  0  2.091757  0  0  -0.892042  0  2.057753  0  -1.308278  0  -0.619455  -0.85277  0  2.115427  0
O  O89  1  0.74949976  0.40400453  0.25137662  1  0  -0.928934  0  1.896227  0  0  -0.869143  0  2.091836  0  0  -0.891918  0  2.057835  0  -1.308245  0  -0.619406  -0.852632  0  2.115466  0
O  O90  1  0.24949896  0.40400311  0.24862246  1  0  -0.929007  0  1.896124  0  0  -0.869246  0  2.091736  0  0  -0.892019  0  2.057722  0  -1.30851  0  -0.61944  -0.852764  0  2.115422  0
O  O91  1  0.25051144  0.59599299  0.74862384  1  0  -0.928943  0  1.896279  0  0  -0.869189  0  2.09181  0  0  -0.891965  0  2.057799  0  -1.308554  0  -0.619399  -0.852699  0  2.1155  0
O  O92  1  0.17235676  0.21955337  0.35675924  1  0  -0.662587  0  2.036794  0  0  -0.589021  0  2.256175  0  0  -0.614999  0  2.244421  0  -1.199923  0  -0.299574  -0.570899  0  2.26405  0
O  O93  1  0.32764983  0.78046116  0.85676664  1  0  -0.662741  0  2.036349  0  0  -0.589183  0  2.255751  0  0  -0.615135  0  2.243998  0  -1.19976  0  -0.299666  -0.571059  0  2.263624  0
O  O94  1  0.82760750  0.78045265  0.64323845  1  0  -0.662781  0  2.036531  0  0  -0.589295  0  2.255971  0  0  -0.615233  0  2.244164  0  -1.199899  0  -0.299711  -0.571174  0  2.263849  0
O  O95  1  0.67239059  0.21954202  0.14323475  1  0  -0.662792  0  2.03617  0  0  -0.589321  0  2.255656  0  0  -0.61525  0  2.24384  0  -1.199856  0  -0.299653  -0.571196  0  2.263535  0
O  O96  1  0.50752159  0.01651143  0.67814556  1  0  -0.874071  0  1.794765  0  0  -0.821677  0  1.97249  0  0  -0.840069  0  1.940378  0  -1.282837  0  -0.61751  -0.808415  0  1.995163  0
O  O97  1  0.99247204  0.98348608  0.17814418  1  0  -0.87408  0  1.794694  0  0  -0.821714  0  1.97237  0  0  -0.840107  0  1.940261  0  -1.28313  0  -0.617548  -0.808451  0  1.995045  0
O  O98  1  0.49244296  0.98350168  0.32185166  1  0  -0.874033  0  1.794631  0  0  -0.821616  0  1.97239  0  0  -0.840003  0  1.940276  0  -1.282958  0  -0.617562  -0.808366  0  1.995055  0
O  O99  1  0.00755717  0.01650434  0.82185628  1  0  -0.874015  0  1.794675  0  0  -0.821639  0  1.972359  0  0  -0.840027  0  1.940251  0  -1.282902  0  -0.617496  -0.80838  0  1.995029  0
O  O100  1  0.83101418  0.23674137  0.35860675  1  0  -0.662044  0  2.037075  0  0  -0.589304  0  2.257791  0  0  -0.615335  0  2.246184  0  -1.206941  0  -0.300587  -0.570981  0  2.265382  0
O  O101  1  0.66898086  0.76325331  0.85861044  1  0  -0.661992  0  2.037464  0  0  -0.589217  0  2.258141  0  0  -0.61526  0  2.246565  0  -1.207088  0  -0.300547  -0.570895  0  2.265731  0
O  O102  1  0.16894637  0.76324905  0.64139279  1  0  -0.661984  0  2.036782  0  0  -0.589284  0  2.25756  0  0  -0.615325  0  2.245928  0  -1.207295  0  -0.30058  -0.570957  0  2.26515  0
O  O103  1  0.33105763  0.23673995  0.14139048  1  0  -0.662154  0  2.037103  0  0  -0.589374  0  2.257866  0  0  -0.615409  0  2.246221  0  -1.207332  0  -0.300623  -0.571057  0  2.265481  0
