# generated using pymatgen
data_TlH7C8O3
_symmetry_space_group_name_H-M   'P 1'
_cell_length_a   7.46056019
_cell_length_b   10.38160312
_cell_length_c   11.84400410
_cell_angle_alpha   105.43736085
_cell_angle_beta   89.94968965
_cell_angle_gamma   111.15503507
_symmetry_Int_Tables_number   1
_chemical_formula_structural   TlH7C8O3
_chemical_formula_sum   'Tl4 H28 C32 O12'
_cell_volume   820.02450352
_cell_formula_units_Z   4
loop_
 _symmetry_equiv_pos_site_id
 _symmetry_equiv_pos_as_xyz
  1  'x, y, z'
loop_
 _atom_site_type_symbol
 _atom_site_label
 _atom_site_symmetry_multiplicity
 _atom_site_fract_x
 _atom_site_fract_y
 _atom_site_fract_z
 _atom_site_occupancy
 _atom_site_hle17_bader_spin_density
 _atom_site_hle17_ddec_charge
 _atom_site_hle17_ddec_spin_density
 _atom_site_hle17_ddec_sum_bond_order
 _atom_site_hle17_magmom
 _atom_site_hse06_10hf_bader_spin_density
 _atom_site_hse06_10hf_ddec_charge
 _atom_site_hse06_10hf_ddec_spin_density
 _atom_site_hse06_10hf_ddec_sum_bond_order
 _atom_site_hse06_10hf_magmom
 _atom_site_hse06_bader_spin_density
 _atom_site_hse06_ddec_charge
 _atom_site_hse06_ddec_spin_density
 _atom_site_hse06_ddec_sum_bond_order
 _atom_site_hse06_magmom
 _atom_site_pbe_bader_spin_density
 _atom_site_pbe_cm5_charge
 _atom_site_pbe_ddec_charge
 _atom_site_pbe_ddec_spin_density
 _atom_site_pbe_ddec_sum_bond_order
 _atom_site_pbe_magmom
Tl  Tl0  1  0.72655688  0.96739213  0.41434238  1  0  0.79109  0  0.807451  0  0  0.677106  0  1.09947  0  0  0.706034  0  1.08016  0  0  0.413034  0.656219  0  1.112897  0
Tl  Tl1  1  0.24102734  0.96737062  0.91413319  1  0  0.791545  0  0.806507  0  0  0.677818  0  1.098396  0  0  0.706758  0  1.078984  0  0  0.413101  0.656234  0  1.112265  0
Tl  Tl2  1  0.27344269  0.03260837  0.58565690  1  0  0.791092  0  0.807429  0  0  0.677109  0  1.09945  0  0  0.706038  0  1.080141  0  0  0.41304  0.656226  0  1.112877  0
Tl  Tl3  1  0.75897305  0.03262884  0.08586754  1  0  0.791551  0  0.806487  0  0  0.677824  0  1.098375  0  0  0.706764  0  1.078963  0  0  0.413099  0.656234  0  1.11224  0
H  H4  1  0.84262870  0.68739991  0.99137633  1  0  0.094366  0  0.954726  0  0  0.103901  0  1.01846  0  0  0.107232  0  1.015685  0  0  0.103147  0.101467  0  1.020222  0
H  H5  1  0.84487883  0.68706163  0.49133876  1  0  0.093771  0  0.954616  0  0  0.103423  0  1.018435  0  0  0.106852  0  1.015471  0  0  0.103121  0.10097  0  1.020148  0
H  H6  1  0.15736897  0.31259950  0.00862186  1  0  0.094389  0  0.954721  0  0  0.103914  0  1.018458  0  0  0.107245  0  1.015684  0  0  0.10316  0.101478  0  1.020226  0
H  H7  1  0.15512316  0.31294104  0.50866184  1  0  0.093807  0  0.954563  0  0  0.103431  0  1.018412  0  0  0.106857  0  1.015445  0  0  0.103138  0.10098  0  1.020126  0
H  H8  1  0.32875283  0.55979947  0.78473776  1  0  0.113858  0  0.949404  0  0  0.136563  0  1.007141  0  0  0.138348  0  1.006453  0  0  0.091922  0.135264  0  1.007576  0
H  H9  1  0.23132993  0.55993800  0.28447934  1  0  0.113772  0  0.948533  0  0  0.136691  0  1.006041  0  0  0.138481  0  1.005339  0  0  0.092143  0.135219  0  1.006811  0
H  H10  1  0.67124673  0.44020101  0.21526067  1  0  0.113874  0  0.949378  0  0  0.136579  0  1.007116  0  0  0.138364  0  1.006428  0  0  0.091921  0.135278  0  1.007555  0
H  H11  1  0.76867045  0.44006146  0.71552139  1  0  0.113764  0  0.94853  0  0  0.136684  0  1.006034  0  0  0.138475  0  1.005333  0  0  0.092135  0.135212  0  1.006804  0
H  H12  1  0.34753942  0.45781840  0.87964962  1  0  0.120785  0  0.954662  0  0  0.14157  0  1.017861  0  0  0.142959  0  1.017867  0  0  0.093102  0.140429  0  1.018073  0
H  H13  1  0.11016350  0.45780776  0.37936333  1  0  0.120749  0  0.954217  0  0  0.141661  0  1.01726  0  0  0.142993  0  1.017339  0  0  0.093124  0.140489  0  1.017487  0
H  H14  1  0.65245906  0.54217992  0.12034833  1  0  0.120766  0  0.954717  0  0  0.141553  0  1.017912  0  0  0.142941  0  1.017918  0  0  0.093097  0.140412  0  1.018122  0
H  H15  1  0.88984256  0.54219500  0.62064151  1  0  0.120756  0  0.95421  0  0  0.141667  0  1.017253  0  0  0.142998  0  1.017333  0  0  0.093159  0.140498  0  1.017474  0
H  H16  1  0.53405447  0.62681895  0.89023809  1  0  0.111346  0  0.944832  0  0  0.133966  0  1.004382  0  0  0.135959  0  1.0031  0  0  0.091591  0.132519  0  1.005322  0
H  H17  1  0.09286438  0.62666201  0.39003518  1  0  0.110813  0  0.945145  0  0  0.133802  0  1.004225  0  0  0.135794  0  1.002922  0  0  0.091277  0.13212  0  1.00544  0
H  H18  1  0.46594511  0.37318158  0.10976288  1  0  0.111341  0  0.944843  0  0  0.133961  0  1.004391  0  0  0.135954  0  1.003108  0  0  0.091584  0.132514  0  1.005333  0
H  H19  1  0.90713735  0.37333744  0.60996556  1  0  0.110819  0  0.945143  0  0  0.133802  0  1.004222  0  0  0.135795  0  1.002919  0  0  0.09129  0.132123  0  1.005436  0
H  H20  1  0.50025596  0.71772616  0.10669304  1  0  0.130193  0  0.986868  0  0  0.139724  0  1.047897  0  0  0.144136  0  1.045371  0  0  0.103319  0.136592  0  1.049677  0
H  H21  1  0.21762149  0.71809781  0.60638516  1  0  0.130126  0  0.987092  0  0  0.139281  0  1.048528  0  0  0.143628  0  1.046123  0  0  0.10357  0.136036  0  1.0506  0
H  H22  1  0.49974253  0.28227219  0.89330576  1  0  0.130205  0  0.986941  0  0  0.139723  0  1.04798  0  0  0.144136  0  1.045453  0  0  0.103311  0.136588  0  1.049763  0
H  H23  1  0.78238212  0.28190808  0.39361531  1  0  0.130118  0  0.987067  0  0  0.139252  0  1.048539  0  0  0.143598  0  1.046137  0  0  0.103576  0.136013  0  1.050603  0
H  H24  1  0.02115644  0.58012085  0.84091304  1  0  0.101929  0  0.964913  0  0  0.114102  0  1.023991  0  0  0.116766  0  1.024216  0  0  0.099687  0.112083  0  1.024255  0
H  H25  1  0.55924335  0.58016248  0.34072703  1  0  0.101591  0  0.965504  0  0  0.113738  0  1.024633  0  0  0.116401  0  1.024853  0  0  0.099532  0.111889  0  1.024598  0
H  H26  1  0.97884178  0.41987965  0.15908624  1  0  0.101877  0  0.96496  0  0  0.114071  0  1.024018  0  0  0.116737  0  1.024242  0  0  0.099672  0.112052  0  1.024285  0
H  H27  1  0.44075972  0.41984233  0.65927320  1  0  0.101587  0  0.965527  0  0  0.113734  0  1.024659  0  0  0.116395  0  1.024882  0  0  0.099533  0.111888  0  1.024616  0
H  H28  1  0.23652043  0.87010888  0.31822493  1  0  0.364419  0  0.943319  0  0  0.335911  0  1.021807  0  0  0.34801  0  1.009825  0  0  0.290133  0.327428  0  1.030054  0
H  H29  1  0.63352309  0.86984463  0.81809124  1  0  0.364344  0  0.943021  0  0  0.33587  0  1.021374  0  0  0.347979  0  1.009391  0  0  0.290288  0.327369  0  1.029655  0
H  H30  1  0.76347376  0.12988624  0.68177400  1  0  0.36442  0  0.943355  0  0  0.335941  0  1.021783  0  0  0.34804  0  1.0098  0  0  0.290144  0.327462  0  1.030024  0
H  H31  1  0.36648187  0.13015592  0.18191058  1  0  0.364444  0  0.943002  0  0  0.335896  0  1.021466  0  0  0.348006  0  1.00948  0  0  0.290291  0.327394  0  1.029754  0
C  C32  1  0.98721951  0.69362302  0.01534538  1  0  -0.055089  0  3.822171  0  0  -0.075515  0  4.073109  0  0  -0.071576  0  4.093215  0  0  -0.086631  -0.076594  0  4.057524  0
C  C33  1  0.70650445  0.69340107  0.51521916  1  0  -0.053449  0  3.819606  0  0  -0.074486  0  4.070248  0  0  -0.070598  0  4.090521  0  0  -0.086351  -0.075195  0  4.054603  0
C  C34  1  0.01277898  0.30637532  0.98465342  1  0  -0.055097  0  3.822143  0  0  -0.075502  0  4.073084  0  0  -0.071563  0  4.09319  0  0  -0.086634  -0.07658  0  4.057503  0
C  C35  1  0.29349889  0.30660160  0.48478144  1  0  -0.053471  0  3.819504  0  0  -0.074491  0  4.070155  0  0  -0.070597  0  4.090422  0  0  -0.086322  -0.075208  0  4.054512  0
C  C36  1  0.95983258  0.82434588  0.22309903  1  0  0.671777  0  3.890009  0  0  0.619699  0  4.17935  0  0  0.655811  0  4.170622  0  0  0.20264  0.595245  0  4.184644  0
C  C37  1  0.86442292  0.82386232  0.72304346  1  0  0.671619  0  3.888931  0  0  0.619362  0  4.178138  0  0  0.655473  0  4.169506  0  0  0.202704  0.594682  0  4.183726  0
C  C38  1  0.04016268  0.17565137  0.77689868  1  0  0.671871  0  3.889839  0  0  0.619803  0  4.17917  0  0  0.655915  0  4.170439  0  0  0.202654  0.595347  0  4.184469  0
C  C39  1  0.13557828  0.17613609  0.27695874  1  0  0.671634  0  3.888843  0  0  0.619386  0  4.178024  0  0  0.655497  0  4.169395  0  0  0.202745  0.594714  0  4.183605  0
C  C40  1  0.27298805  0.64014906  0.96290754  1  0  0.185109  0  3.781464  0  0  0.209801  0  4.015744  0  0  0.215216  0  4.03965  0  0  -0.000522  0.206179  0  3.999585  0
C  C41  1  0.36731619  0.64028483  0.46265608  1  0  0.184986  0  3.78152  0  0  0.209888  0  4.015618  0  0  0.215303  0  4.039516  0  0  -0.000786  0.205869  0  3.999484  0
C  C42  1  0.72700829  0.35985034  0.03709065  1  0  0.1852  0  3.781454  0  0  0.209883  0  4.01575  0  0  0.215298  0  4.039654  0  0  -0.000453  0.206268  0  3.999583  0
C  C43  1  0.63268554  0.35972000  0.53734499  1  0  0.184893  0  3.781755  0  0  0.209781  0  4.015865  0  0  0.215197  0  4.039764  0  0  -0.000834  0.205752  0  3.999744  0
C  C44  1  0.37686956  0.56791792  0.87470195  1  0  -0.337688  0  3.690771  0  0  -0.419366  0  3.926232  0  0  -0.421598  0  3.932764  0  0  -0.241662  -0.417505  0  3.921784  0
C  C45  1  0.19116054  0.56796454  0.37445618  1  0  -0.336511  0  3.689444  0  0  -0.418576  0  3.92485  0  0  -0.420761  0  3.931425  0  0  -0.241404  -0.416651  0  3.920803  0
C  C46  1  0.62312920  0.43208364  0.12529672  1  0  -0.337678  0  3.690825  0  0  -0.419351  0  3.926273  0  0  -0.421586  0  3.932815  0  0  -0.241642  -0.417491  0  3.921825  0
C  C47  1  0.80884091  0.43203706  0.62554418  1  0  -0.336518  0  3.689452  0  0  -0.418574  0  3.924871  0  0  -0.420753  0  3.931435  0  0  -0.241451  -0.41665  0  3.920823  0
C  C48  1  0.25738187  0.77273403  0.16352720  1  0  0.347452  0  3.820726  0  0  0.334404  0  4.077225  0  0  0.350243  0  4.092093  0  0  0.089251  0.32347  0  4.067365  0
C  C49  1  0.51542365  0.77271967  0.66334287  1  0  0.347356  0  3.82141  0  0  0.333408  0  4.078771  0  0  0.349278  0  4.093634  0  0  0.089588  0.322949  0  4.068285  0
C  C50  1  0.74261420  0.22726215  0.83647112  1  0  0.347434  0  3.82089  0  0  0.334467  0  4.077292  0  0  0.350304  0  4.092161  0  0  0.089245  0.323527  0  4.067435  0
C  C51  1  0.48458023  0.22728410  0.33665881  1  0  0.347286  0  3.821521  0  0  0.33335  0  4.078866  0  0  0.349218  0  4.09373  0  0  0.089524  0.322894  0  4.06838  0
C  C52  1  0.35682594  0.71080169  0.07898798  1  0  -0.306768  0  3.71973  0  0  -0.325309  0  3.960055  0  0  -0.336885  0  3.981418  0  0  -0.116434  -0.317574  0  3.945951  0
C  C53  1  0.35412951  0.71102193  0.57871335  1  0  -0.306727  0  3.719997  0  0  -0.324852  0  3.961079  0  0  -0.336368  0  3.982481  0  0  -0.11679  -0.316932  0  3.945717  0
C  C54  1  0.64317066  0.28919558  0.92101058  1  0  -0.306824  0  3.719914  0  0  -0.325385  0  3.960225  0  0  -0.336961  0  3.981588  0  0  -0.116459  -0.317649  0  3.946119  0
C  C55  1  0.64587411  0.28898398  0.42128796  1  0  -0.306648  0  3.720044  0  0  -0.324734  0  3.961095  0  0  -0.33625  0  3.982497  0  0  -0.116735  -0.316812  0  3.94574  0
C  C56  1  0.06819343  0.76308681  0.13267583  1  0  -0.235255  0  3.780587  0  0  -0.217521  0  4.020771  0  0  -0.232208  0  4.044303  0  0  -0.044815  -0.208279  0  4.004707  0
C  C57  1  0.69489452  0.76280075  0.63255969  1  0  -0.236303  0  3.78038  0  0  -0.217635  0  4.019885  0  0  -0.232406  0  4.043584  0  0  -0.045528  -0.208724  0  4.004467  0
C  C58  1  0.93180317  0.23691046  0.86732274  1  0  -0.235343  0  3.780568  0  0  -0.217663  0  4.02077  0  0  -0.232351  0  4.044304  0  0  -0.044845  -0.20841  0  4.004697  0
C  C59  1  0.30510829  0.23720088  0.36744237  1  0  -0.23627  0  3.780292  0  0  -0.217596  0  4.019773  0  0  -0.232364  0  4.043467  0  0  -0.045511  -0.208684  0  4.004351  0
C  C60  1  0.08742429  0.63406952  0.93124963  1  0  -0.187164  0  3.769432  0  0  -0.203932  0  4.01676  0  0  -0.212686  0  4.040826  0  0  -0.109284  -0.198626  0  4.000324  0
C  C61  1  0.54684215  0.63405901  0.43106297  1  0  -0.187859  0  3.769379  0  0  -0.204519  0  4.016468  0  0  -0.213274  0  4.040588  0  0  -0.109571  -0.199414  0  4.000155  0
C  C62  1  0.91257285  0.36592881  0.06874832  1  0  -0.187149  0  3.769505  0  0  -0.203927  0  4.016804  0  0  -0.212684  0  4.040874  0  0  -0.109304  -0.198619  0  4.000363  0
C  C63  1  0.45316173  0.36594474  0.56893787  1  0  -0.187813  0  3.769434  0  0  -0.204473  0  4.016536  0  0  -0.213228  0  4.040655  0  0  -0.109598  -0.199361  0  4.000208  0
O  O64  1  0.04068808  0.87900127  0.33076870  1  0  -0.686199  0  1.999556  0  0  -0.613409  0  2.226122  0  0  -0.643146  0  2.220333  0  0  -0.320589  -0.592393  0  2.229647  0
O  O65  1  0.83811457  0.87846831  0.83071278  1  0  -0.68573  0  1.999672  0  0  -0.613188  0  2.226739  0  0  -0.642783  0  2.22064  0  0  -0.320813  -0.591975  0  2.229701  0
O  O66  1  0.95930718  0.12099600  0.66922986  1  0  -0.68626  0  1.999474  0  0  -0.613477  0  2.226015  0  0  -0.643213  0  2.220223  0  0  -0.320637  -0.592463  0  2.229542  0
O  O67  1  0.16188850  0.12153116  0.16928881  1  0  -0.685787  0  1.999651  0  0  -0.613211  0  2.226719  0  0  -0.6428  0  2.220608  0  0  -0.320825  -0.591994  0  2.229667  0
O  O68  1  0.79384632  0.82074374  0.19398237  1  0  -0.665228  0  1.980615  0  0  -0.594282  0  2.217359  0  0  -0.622047  0  2.208905  0  0  -0.313114  -0.574614  0  2.222706  0
O  O69  1  0.02686002  0.82018636  0.69395083  1  0  -0.664591  0  1.979299  0  0  -0.593418  0  2.215667  0  0  -0.621154  0  2.207222  0  0  -0.312582  -0.57384  0  2.221283  0
O  O70  1  0.20615082  0.17925459  0.80601558  1  0  -0.665243  0  1.98063  0  0  -0.594297  0  2.217381  0  0  -0.622064  0  2.208928  0  0  -0.313088  -0.574629  0  2.222733  0
O  O71  1  0.97314065  0.17981099  0.30605198  1  0  -0.664607  0  1.979276  0  0  -0.593443  0  2.215649  0  0  -0.621177  0  2.207202  0  0  -0.312614  -0.573871  0  2.221266  0
O  O72  1  0.34321274  0.84125433  0.27485972  1  0  -0.55941  0  2.162924  0  0  -0.498178  0  2.387372  0  0  -0.52141  0  2.380889  0  0  -0.344764  -0.481564  0  2.391445  0
O  O73  1  0.49805505  0.84119031  0.77467027  1  0  -0.559009  0  2.163748  0  0  -0.497499  0  2.388428  0  0  -0.520755  0  2.381945  0  0  -0.344645  -0.480849  0  2.392173  0
O  O74  1  0.65678468  0.15874188  0.72513946  1  0  -0.559386  0  2.163108  0  0  -0.498186  0  2.387507  0  0  -0.521418  0  2.381022  0  0  -0.34474  -0.481574  0  2.391577  0
O  O75  1  0.50194642  0.15881130  0.22533094  1  0  -0.559052  0  2.163814  0  0  -0.497506  0  2.388544  0  0  -0.520764  0  2.38206  0  0  -0.344614  -0.480849  0  2.392275  0
