# generated using pymatgen
data_Gd2H22C18S9N6O17
_symmetry_space_group_name_H-M   'P 1'
_cell_length_a   9.53337845
_cell_length_b   13.30276375
_cell_length_c   14.95190000
_cell_angle_alpha   65.53566569
_cell_angle_beta   82.03137499
_cell_angle_gamma   80.01226328
_symmetry_Int_Tables_number   1
_chemical_formula_structural   Gd2H22C18S9N6O17
_chemical_formula_sum   'Gd4 H44 C36 S18 N12 O34'
_cell_volume   1695.07751112
_cell_formula_units_Z   2
loop_
 _symmetry_equiv_pos_site_id
 _symmetry_equiv_pos_as_xyz
  1  'x, y, z'
loop_
 _atom_site_type_symbol
 _atom_site_label
 _atom_site_symmetry_multiplicity
 _atom_site_fract_x
 _atom_site_fract_y
 _atom_site_fract_z
 _atom_site_occupancy
 _atom_site_hle17_bader_spin_density
 _atom_site_hle17_ddec_charge
 _atom_site_hle17_ddec_spin_density
 _atom_site_hle17_ddec_sum_bond_order
 _atom_site_hle17_magmom
 _atom_site_hse06_10hf_bader_spin_density
 _atom_site_hse06_10hf_ddec_charge
 _atom_site_hse06_10hf_ddec_spin_density
 _atom_site_hse06_10hf_ddec_sum_bond_order
 _atom_site_hse06_10hf_magmom
 _atom_site_hse06_bader_spin_density
 _atom_site_hse06_ddec_charge
 _atom_site_hse06_ddec_spin_density
 _atom_site_hse06_ddec_sum_bond_order
 _atom_site_hse06_magmom
 _atom_site_pbe_bader_charge
 _atom_site_pbe_bader_spin_density
 _atom_site_pbe_cm5_charge
 _atom_site_pbe_ddec_charge
 _atom_site_pbe_ddec_spin_density
 _atom_site_pbe_ddec_sum_bond_order
 _atom_site_pbe_magmom
Gd  Gd0  1  0.65893898  0.05572753  0.04314358  1  0  2.232154  0  1.725636  0  0  2.147995  0  2.066695  0  0  2.195455  0  2.018854  0  2.197174  0  1.457416  2.110191  0  2.106421  0
Gd  Gd1  1  0.34106227  0.94427159  0.95685463  1  0  2.232153  0  1.725658  0  0  2.14796  0  2.066774  0  0  2.195444  0  2.018892  0  2.197172  0  1.457426  2.110162  0  2.106492  0
Gd  Gd2  1  0.78883812  0.53626542  0.94946953  1  0  2.204605  0  1.741832  0  0  2.109657  0  2.09483  0  0  2.165654  0  2.040263  0  2.198991  0  1.454383  2.063593  0  2.142866  0
Gd  Gd3  1  0.21116681  0.46373703  0.05053047  1  0  2.204631  0  1.741642  0  0  2.109601  0  2.094756  0  0  2.165634  0  2.040131  0  2.199078  0  1.454342  2.063539  0  2.142779  0
H  H4  1  0.66452541  0.96108829  0.27309076  1  0  0.412767  0  0.896876  0  0  0.373025  0  0.97527  0  0  0.384168  0  0.959156  0  0.636057  0  0.291251  0.365251  0  0.986407  0
H  H5  1  0.33547731  0.03890833  0.72690757  1  0  0.412799  0  0.896838  0  0  0.373056  0  0.975231  0  0  0.384199  0  0.959117  0  0.636058  0  0.291267  0.365281  0  0.986369  0
H  H6  1  0.55764771  0.07572967  0.23364754  1  0  0.441707  0  0.863555  0  0  0.408519  0  0.930752  0  0  0.420349  0  0.913444  0  0.662947  0  0.291646  0.400304  0  0.942686  0
H  H7  1  0.44234934  0.92426278  0.76635818  1  0  0.441766  0  0.863476  0  0  0.408609  0  0.930639  0  0  0.420441  0  0.913327  0  0.662938  0  0.291674  0.400393  0  0.942574  0
H  H8  1  0.70733481  0.65061028  0.66860671  1  0  0.14199  0  0.943652  0  0  0.152116  0  1.00843  0  0  0.154753  0  1.006713  0  0.10085  0  0.107496  0.150319  0  1.009627  0
H  H9  1  0.29265465  0.34938967  0.33139625  1  0  0.142017  0  0.943621  0  0  0.152131  0  1.008403  0  0  0.154756  0  1.006683  0  0.100632  0  0.107494  0.150332  0  1.009605  0
H  H10  1  0.82901374  0.74767625  0.64889867  1  0  0.134907  0  0.957838  0  0  0.139548  0  1.033509  0  0  0.142019  0  1.032478  0  0.122781  0  0.104704  0.13763  0  1.034717  0
H  H11  1  0.17097729  0.25232703  0.35110359  1  0  0.134868  0  0.957883  0  0  0.139537  0  1.033498  0  0  0.141997  0  1.032464  0  0.12262  0  0.10468  0.137621  0  1.034704  0
H  H12  1  0.82534289  0.85877986  0.19283812  1  0  0.396726  0  0.925695  0  0  0.358082  0  1.00397  0  0  0.368382  0  0.989287  0  0.643505  0  0.289844  0.350718  0  1.01444  0
H  H13  1  0.17466089  0.14121676  0.80715945  1  0  0.39669  0  0.925746  0  0  0.358093  0  1.003942  0  0  0.368393  0  0.98926  0  0.643489  0  0.289885  0.35073  0  1.014411  0
H  H14  1  0.93349711  0.91130444  0.09812720  1  0  0.433485  0  0.874709  0  0  0.403266  0  0.937388  0  0  0.414334  0  0.921491  0  0.649591  0  0.295279  0.395664  0  0.948283  0
H  H15  1  0.06650759  0.08869301  0.90187199  1  0  0.433462  0  0.874746  0  0  0.403224  0  0.937435  0  0  0.414293  0  0.921538  0  0.649616  0  0.29528  0.395624  0  0.948331  0
H  H16  1  0.41269727  0.21144414  0.10535845  1  0  0.440698  0  0.852004  0  0  0.411772  0  0.913725  0  0  0.423076  0  0.89714  0  0.64415  0  0.307683  0.403666  0  0.92558  0
H  H17  1  0.58730227  0.78855248  0.89464418  1  0  0.440704  0  0.851986  0  0  0.411781  0  0.913705  0  0  0.423086  0  0.897121  0  0.644123  0  0.307684  0.403676  0  0.92556  0
H  H18  1  0.35940869  0.11334800  0.08857475  1  0  0.4331  0  0.873165  0  0  0.400784  0  0.941082  0  0  0.411899  0  0.924594  0  0.644703  0  0.301887  0.392872  0  0.952748  0
H  H19  1  0.64059016  0.88665278  0.91142373  1  0  0.433094  0  0.873171  0  0  0.400777  0  0.94109  0  0  0.411892  0  0.924602  0  0.644687  0  0.301883  0.392864  0  0.952758  0
H  H20  1  0.82643550  0.24497759  0.00332181  1  0  0.452345  0  0.835911  0  0  0.42313  0  0.894657  0  0  0.433877  0  0.879125  0  0.64532  0  0.31159  0.415561  0  0.905574  0
H  H21  1  0.17356441  0.75502319  0.99667924  1  0  0.452361  0  0.835909  0  0  0.42314  0  0.89466  0  0  0.433889  0  0.879125  0  0.645312  0  0.31159  0.415569  0  0.905581  0
H  H22  1  0.74459249  0.22860727  0.10356325  1  0  0.456454  0  0.819384  0  0  0.430822  0  0.874211  0  0  0.440983  0  0.859292  0  0.647656  0  0.318231  0.423576  0  0.884854  0
H  H23  1  0.25540451  0.77139184  0.89643734  1  0  0.456452  0  0.819431  0  0  0.430852  0  0.874176  0  0  0.441014  0  0.859255  0  0.647657  0  0.318237  0.423604  0  0.884821  0
H  H24  1  0.91270310  0.70433493  0.18587010  1  0  0.143288  0  0.928087  0  0  0.157058  0  0.983498  0  0  0.160319  0  0.981252  0  0.14039  0  0.118921  0.154543  0  0.985456  0
H  H25  1  0.08729962  0.29566169  0.81413292  1  0  0.143215  0  0.928162  0  0  0.156991  0  0.983571  0  0  0.160251  0  0.981324  0  0.140371  0  0.11891  0.154477  0  0.985528  0
H  H26  1  0.08326913  0.73812072  0.19020263  1  0  0.153124  0  0.925448  0  0  0.162183  0  0.98766  0  0  0.165724  0  0.985798  0  0.127312  0  0.116914  0.159749  0  0.989037  0
H  H27  1  0.91673396  0.26188006  0.80979815  1  0  0.153133  0  0.925459  0  0  0.162141  0  0.987727  0  0  0.165681  0  0.985866  0  0.12736  0  0.116919  0.159709  0  0.989102  0
H  H28  1  0.76881826  0.73334546  0.99627554  1  0  0.447586  0  0.809602  0  0  0.425852  0  0.870475  0  0  0.43528  0  0.85859  0  0.639802  0  0.323822  0.418935  0  0.878744  0
H  H29  1  0.23118299  0.26665366  0.00372668  1  0  0.447581  0  0.809622  0  0  0.425847  0  0.870493  0  0  0.435274  0  0.858602  0  0.639824  0  0.323827  0.41893  0  0.878763  0
H  H30  1  0.93293310  0.68256558  0.00992199  1  0  0.440946  0  0.853939  0  0  0.411296  0  0.91418  0  0  0.421899  0  0.898765  0  0.642159  0  0.305335  0.403628  0  0.925325  0
H  H31  1  0.06706957  0.31743770  0.99007790  1  0  0.440936  0  0.853935  0  0  0.411282  0  0.914186  0  0  0.421887  0  0.898767  0  0.642328  0  0.305317  0.403616  0  0.925328  0
H  H32  1  0.59511308  0.47298192  0.75055646  1  0  0.129691  0  0.952818  0  0  0.13399  0  1.026994  0  0  0.136926  0  1.025523  0  0.130387  0  0.103309  0.132179  0  1.027621  0
H  H33  1  0.40488693  0.52702469  0.24943843  1  0  0.129629  0  0.952856  0  0  0.133944  0  1.027015  0  0  0.136878  0  1.025542  0  0.130355  0  0.103267  0.132133  0  1.027643  0
H  H34  1  0.49285850  0.59648256  0.75637531  1  0  0.138014  0  0.930481  0  0  0.149059  0  0.993506  0  0  0.151091  0  0.993099  0  0.079151  0  0.11333  0.147768  0  0.99364  0
H  H35  1  0.50714151  0.40352405  0.24361423  1  0  0.138061  0  0.930457  0  0  0.149108  0  0.99349  0  0  0.15114  0  0.99308  0  0.079318  0  0.113369  0.147817  0  0.993626  0
H  H36  1  0.47428452  0.85039774  0.28240287  1  0  0.141337  0  0.92972  0  0  0.147893  0  0.997218  0  0  0.151021  0  0.995438  0  0.12666  0  0.110709  0.14585  0  0.998373  0
H  H37  1  0.52571327  0.14960304  0.71759838  1  0  0.141328  0  0.929708  0  0  0.147883  0  0.997193  0  0  0.151009  0  0.995413  0  0.127092  0  0.110719  0.14584  0  0.998347  0
H  H38  1  0.57551231  0.72757999  0.27542395  1  0  0.131103  0  0.953305  0  0  0.133031  0  1.030092  0  0  0.135821  0  1.029242  0  0.125169  0  0.103372  0.130851  0  1.031125  0
H  H39  1  0.42448655  0.27242079  0.72457586  1  0  0.131075  0  0.953305  0  0  0.132995  0  1.0301  0  0  0.135785  0  1.029249  0  0.125152  0  0.103362  0.130815  0  1.031133  0
H  H40  1  0.98048889  0.75899064  0.75735552  1  0  0.123029  0  0.961519  0  0  0.128082  0  1.036723  0  0  0.130758  0  1.035734  0  0.133023  0  0.103899  0.125949  0  1.037958  0
H  H41  1  0.01950996  0.24101014  0.24264563  1  0  0.122994  0  0.961538  0  0  0.128008  0  1.036818  0  0  0.130692  0  1.035827  0  0.133061  0  0.103886  0.125876  0  1.038052  0
H  H42  1  0.05755712  0.65541137  0.71201657  1  0  0.142194  0  0.925472  0  0  0.149458  0  0.993281  0  0  0.151988  0  0.99227  0  0.102427  0  0.109639  0.147757  0  0.994074  0
H  H43  1  0.94243906  0.34459275  0.28798493  1  0  0.142191  0  0.925471  0  0  0.149463  0  0.993285  0  0  0.151993  0  0.992276  0  0.102147  0  0.10966  0.147762  0  0.994079  0
H  H44  1  0.03593889  0.90271246  0.26038245  1  0  0.139823  0  0.944991  0  0  0.144184  0  1.018272  0  0  0.146517  0  1.018194  0  0.12893  0  0.110906  0.142684  0  1.018049  0
H  H45  1  0.96406065  0.09728416  0.73961750  1  0  0.139751  0  0.945071  0  0  0.144107  0  1.018364  0  0  0.14644  0  1.018284  0  0.128968  0  0.11087  0.142605  0  1.018142  0
H  H46  1  0.96205534  0.04158578  0.19078586  1  0  0.143905  0  0.921918  0  0  0.154582  0  0.982332  0  0  0.158144  0  0.979588  0  0.136064  0  0.116167  0.15228  0  0.983983  0
H  H47  1  0.03793996  0.95841084  0.80921647  1  0  0.143897  0  0.921962  0  0  0.154561  0  0.982376  0  0  0.158123  0  0.97963  0  0.136127  0  0.116172  0.15226  0  0.984026  0
C  C48  1  0.63743829  0.76309217  0.74145233  1  0  0.745278  0  3.840538  0  0  0.697459  0  4.142288  0  0  0.730977  0  4.133851  0  1.607407  0  0.221113  0.674548  0  4.147098  0
C  C49  1  0.36255526  0.23690861  0.25854862  1  0  0.745213  0  3.840588  0  0  0.697332  0  4.142389  0  0  0.730834  0  4.133955  0  1.606832  0  0.221068  0.674415  0  4.147208  0
C  C50  1  0.71546716  0.73675576  0.65646203  1  0  -0.32839  0  3.60518  0  0  -0.357682  0  3.851613  0  0  -0.362414  0  3.856187  0  -0.143514  0  -0.152394  -0.354406  0  3.848565  0
C  C51  1  0.28452653  0.26324419  0.34353988  1  0  -0.328414  0  3.60512  0  0  -0.357672  0  3.851523  0  0  -0.362338  0  3.85601  0  -0.143129  0  -0.152373  -0.354395  0  3.848475  0
C  C52  1  0.73695194  0.78690271  0.46285415  1  0  0.115675  0  3.753869  0  0  0.103544  0  4.068642  0  0  0.117562  0  4.078702  0  0.388588  0  0.131746  0.094777  0  4.062028  0
C  C53  1  0.26305317  0.21309224  0.53714726  1  0  0.115728  0  3.754001  0  0  0.103643  0  4.068651  0  0  0.117663  0  4.078713  0  0.38873  0  0.131776  0.094875  0  4.062035  0
C  C54  1  0.89010473  0.68819697  0.37651951  1  0  0.066525  0  3.815545  0  0  0.052399  0  4.136863  0  0  0.063278  0  4.150578  0  0.324157  0  0.110181  0.04587  0  4.126304  0
C  C55  1  0.10990250  0.31179799  0.62348037  1  0  0.06651  0  3.815518  0  0  0.052378  0  4.136839  0  0  0.063258  0  4.150544  0  0.324445  0  0.110217  0.04585  0  4.126278  0
C  C56  1  0.01966020  0.66893518  0.21183146  1  0  -0.307985  0  3.616867  0  0  -0.336506  0  3.863785  0  0  -0.34122  0  3.867484  0  -0.170914  0  -0.146065  -0.333571  0  3.86143  0
C  C57  1  0.98034289  0.33106561  0.78816932  1  0  -0.30794  0  3.616914  0  0  -0.336405  0  3.863822  0  0  -0.341123  0  3.867533  0  -0.170937  0  -0.146075  -0.333475  0  3.861473  0
C  C58  1  0.08769161  0.59322466  0.16178563  1  0  0.732174  0  3.828502  0  0  0.681442  0  4.131214  0  0  0.715104  0  4.122994  0  1.620456  0  0.21251  0.658919  0  4.135251  0
C  C59  1  0.91230817  0.40677696  0.83821312  1  0  0.732177  0  3.828555  0  0  0.681418  0  4.131307  0  0  0.715081  0  4.123087  0  1.620454  0  0.212513  0.658901  0  4.135338  0
C  C60  1  0.49367328  0.45614940  0.89411652  1  0  0.818051  0  3.763443  0  0  0.777079  0  4.05118  0  0  0.81289  0  4.038872  0  1.629502  0  0.250267  0.752496  0  4.058638  0
C  C61  1  0.50633188  0.54385804  0.10588095  1  0  0.818303  0  3.763486  0  0  0.777214  0  4.051414  0  0  0.813018  0  4.039119  0  1.628839  0  0.250465  0.752651  0  4.058845  0
C  C62  1  0.49688170  0.50578501  0.78249831  1  0  -0.30629  0  3.593434  0  0  -0.339869  0  3.841379  0  0  -0.343917  0  3.845238  0  -0.097548  0  -0.142373  -0.337332  0  3.839094  0
C  C63  1  0.50311950  0.49422077  0.21749946  1  0  -0.306314  0  3.593476  0  0  -0.33989  0  3.841472  0  0  -0.343928  0  3.845327  0  -0.097541  0  -0.142329  -0.337363  0  3.839185  0
C  C64  1  0.37666413  0.55489762  0.61523723  1  0  0.070313  0  3.804624  0  0  0.069841  0  4.111981  0  0  0.080238  0  4.126213  0  0.338279  0  0.108898  0.062769  0  4.102383  0
C  C65  1  0.62333500  0.44510150  0.38476050  1  0  0.070394  0  3.804631  0  0  0.069931  0  4.111994  0  0  0.080328  0  4.126227  0  0.338694  0  0.109002  0.06286  0  4.102396  0
C  C66  1  0.37003911  0.65030132  0.44048244  1  0  0.080978  0  3.800304  0  0  0.081169  0  4.104942  0  0  0.091504  0  4.119049  0  0.340382  0  0.1087  0.074327  0  4.095134  0
C  C67  1  0.62996029  0.34969614  0.55951520  1  0  0.081045  0  3.800361  0  0  0.081306  0  4.104889  0  0  0.091634  0  4.119008  0  0.34059  0  0.108723  0.074468  0  4.095069  0
C  C68  1  0.47387874  0.78270624  0.25862066  1  0  -0.301944  0  3.601589  0  0  -0.33058  0  3.847472  0  0  -0.335381  0  3.851805  0  -0.134141  0  -0.144789  -0.32765  0  3.845399  0
C  C69  1  0.52612025  0.21729371  0.74137945  1  0  -0.301873  0  3.601481  0  0  -0.330488  0  3.847375  0  0  -0.335286  0  3.851698  0  -0.134574  0  -0.144783  -0.327559  0  3.845301  0
C  C70  1  0.45483644  0.82932378  0.14960838  1  0  0.755754  0  3.811188  0  0  0.712639  0  4.10566  0  0  0.746732  0  4.095983  0  1.564863  0  0.21835  0.689716  0  4.111058  0
C  C71  1  0.54516228  0.17067783  0.85039114  1  0  0.755764  0  3.811117  0  0  0.712616  0  4.105621  0  0  0.746718  0  4.095929  0  1.564899  0  0.218332  0.689695  0  4.111019  0
C  C72  1  0.12488788  0.62817303  0.85229513  1  0  0.731921  0  3.856624  0  0  0.685441  0  4.15975  0  0  0.719234  0  4.151114  0  1.579307  0  0.213182  0.662825  0  4.164025  0
C  C73  1  0.87510513  0.37183108  0.14770531  1  0  0.731895  0  3.856461  0  0  0.685393  0  4.159627  0  0  0.719187  0  4.150995  0  1.579361  0  0.213161  0.662779  0  4.163901  0
C  C74  1  0.07932824  0.70476049  0.75078027  1  0  -0.317324  0  3.636035  0  0  -0.346483  0  3.885374  0  0  -0.351349  0  3.890088  0  -0.158598  0  -0.146873  -0.343281  0  3.882753  0
C  C75  1  0.92067218  0.29524362  0.24922018  1  0  -0.317215  0  3.635873  0  0  -0.346413  0  3.885325  0  0  -0.351289  0  3.890039  0  -0.158309  0  -0.146916  -0.343216  0  3.882709  0
C  C76  1  0.16435125  0.84435413  0.56666363  1  0  0.070178  0  3.804691  0  0  0.067492  0  4.114672  0  0  0.077651  0  4.129605  0  0.332103  0  0.108422  0.061093  0  4.104278  0
C  C77  1  0.83565317  0.15564499  0.43333631  1  0  0.070145  0  3.804778  0  0  0.067514  0  4.11469  0  0  0.077674  0  4.129621  0  0.331636  0  0.108442  0.061114  0  4.104294  0
C  C78  1  0.14257170  0.94499279  0.39415531  1  0  0.062707  0  3.82017  0  0  0.06013  0  4.13657  0  0  0.069338  0  4.151361  0  0.330869  0  0.107564  0.053839  0  4.126697  0
C  C79  1  0.85743723  0.05500466  0.60584484  1  0  0.062479  0  3.820299  0  0  0.060051  0  4.136527  0  0  0.06926  0  4.151312  0  0.330971  0  0.107507  0.053761  0  4.126651  0
C  C80  1  0.06272727  0.98533687  0.20944014  1  0  -0.304622  0  3.581701  0  0  -0.333663  0  3.830851  0  0  -0.33817  0  3.834541  0  -0.173788  0  -0.143803  -0.33089  0  3.828534  0
C  C81  1  0.93727093  0.01466141  0.79056199  1  0  -0.304512  0  3.581837  0  0  -0.333514  0  3.830925  0  0  -0.338047  0  3.834681  0  -0.173841  0  -0.143754  -0.33074  0  3.828606  0
C  C82  1  0.14339712  0.98057576  0.11582021  1  0  0.721934  0  3.828619  0  0  0.671914  0  4.12961  0  0  0.705134  0  4.122166  0  1.578623  0  0.21596  0.649514  0  4.133686  0
C  C83  1  0.85660173  0.01942502  0.88418027  1  0  0.721969  0  3.82871  0  0  0.671937  0  4.12971  0  0  0.705154  0  4.122256  0  1.578709  0  0.21597  0.649539  0  4.133785  0
S  S84  1  0.63325812  0.83386836  0.54496603  1  0  0.114565  0  2.527328  0  0  0.099434  0  2.888144  0  0  0.09534  0  2.885746  0  0.260767  0  0.055994  0.101902  0  2.889673  0
S  S85  1  0.36673852  0.16612659  0.45503345  1  0  0.114587  0  2.527426  0  0  0.099413  0  2.888205  0  0  0.095296  0  2.885785  0  0.260693  0  0.055993  0.10188  0  2.889732  0
S  S86  1  0.84966820  0.66164902  0.49962260  1  0  0.1326  0  2.6161  0  0  0.123443  0  2.983911  0  0  0.124466  0  2.981059  0  0.308745  0  0.12325  0.120294  0  2.986939  0
S  S87  1  0.15033585  0.33834593  0.50037890  1  0  0.132525  0  2.616097  0  0  0.123342  0  2.983917  0  0  0.124363  0  2.981067  0  0.308727  0  0.123153  0.120194  0  2.986944  0
S  S88  1  0.00686618  0.59221031  0.34331096  1  0  0.065712  0  2.585082  0  0  0.054593  0  2.96268  0  0  0.051329  0  2.960475  0  0.194561  0  0.034045  0.05774  0  2.962627  0
S  S89  1  0.99314381  0.40778714  0.65668976  1  0  0.065692  0  2.584975  0  0  0.054587  0  2.962525  0  0  0.051326  0  2.960318  0  0.194465  0  0.033981  0.057735  0  2.962476  0
S  S90  1  0.34232479  0.47965263  0.74094637  1  0  0.078076  0  2.444124  0  0  0.0769  0  2.786569  0  0  0.07381  0  2.785928  0  0.148538  0  0.043549  0.078762  0  2.787097  0
S  S91  1  0.65767392  0.52034898  0.25905382  1  0  0.078103  0  2.444196  0  0  0.076936  0  2.786631  0  0  0.073843  0  2.785987  0  0.148442  0  0.04353  0.078796  0  2.787158  0
S  S92  1  0.24738769  0.58019136  0.53376266  1  0  0.054534  0  2.571828  0  0  0.045813  0  2.924398  0  0  0.046862  0  2.924584  0  0.227192  0  0.073053  0.044779  0  2.924284  0
S  S93  1  0.75261143  0.41980775  0.46623641  1  0  0.054412  0  2.571849  0  0  0.045665  0  2.924392  0  0  0.046718  0  2.924579  0  0.226801  0  0.072961  0.044637  0  2.924255  0
S  S94  1  0.32552092  0.70436574  0.31936162  1  0  0.065257  0  2.517827  0  0  0.057693  0  2.877682  0  0  0.053964  0  2.878481  0  0.173873  0  0.033366  0.05972  0  2.877246  0
S  S95  1  0.67447927  0.29563337  0.68063735  1  0  0.065208  0  2.517798  0  0  0.057623  0  2.87759  0  0  0.053891  0  2.878403  0  0.173736  0  0.033342  0.059649  0  2.877151  0
S  S96  1  0.22187630  0.78732410  0.68481743  1  0  0.09977  0  2.447831  0  0  0.090422  0  2.790142  0  0  0.088431  0  2.788553  0  0.184833  0  0.042036  0.090804  0  2.792262  0
S  S97  1  0.77812440  0.21267834  0.31518495  1  0  0.099775  0  2.44782  0  0  0.090427  0  2.790127  0  0  0.088432  0  2.788541  0  0.184854  0  0.042071  0.090808  0  2.792248  0
S  S98  1  0.27831664  0.91985228  0.47018890  1  0  0.104492  0  2.551855  0  0  0.104363  0  2.88357  0  0  0.106482  0  2.883259  0  0.27677  0  0.103861  0.101989  0  2.884491  0
S  S99  1  0.72169206  0.08014017  0.52981178  1  0  0.104552  0  2.551917  0  0  0.104365  0  2.88355  0  0  0.106485  0  2.883241  0  0.277062  0  0.103832  0.101993  0  2.884468  0
S  S100  1  0.17198660  0.03294050  0.27078491  1  0  0.0874  0  2.432856  0  0  0.085425  0  2.77854  0  0  0.08409  0  2.775739  0  0.153319  0  0.044939  0.086319  0  2.780661  0
S  S101  1  0.82801267  0.96705778  0.72921579  1  0  0.087404  0  2.43278  0  0  0.085365  0  2.778394  0  0  0.08403  0  2.775609  0  0.153284  0  0.044892  0.086257  0  2.780515  0
N  N102  1  0.73687399  0.83995029  0.36627460  1  0  -0.222276  0  3.0796  0  0  -0.187311  0  3.34917  0  0  -0.198394  0  3.361239  0  -0.751752  0  -0.211408  -0.180022  0  3.34055  0
N  N103  1  0.26312702  0.16004383  0.63372680  1  0  -0.222368  0  3.079885  0  0  -0.187393  0  3.349427  0  0  -0.19848  0  3.361496  0  -0.751898  0  -0.211379  -0.180102  0  3.340804  0
N  N104  1  0.82312980  0.78319842  0.31707620  1  0  -0.230359  0  3.137759  0  0  -0.182921  0  3.397942  0  0  -0.192908  0  3.412843  0  -0.750082  0  -0.21508  -0.175618  0  3.387125  0
N  N105  1  0.17687439  0.21679570  0.68292560  1  0  -0.230233  0  3.137967  0  0  -0.182818  0  3.398119  0  0  -0.192804  0  3.413023  0  -0.750229  0  -0.215033  -0.175515  0  3.387299  0
N  N106  1  0.49444299  0.59852958  0.57207424  1  0  -0.228463  0  3.068706  0  0  -0.211355  0  3.374338  0  0  -0.221409  0  3.392505  0  -0.697177  0  -0.224973  -0.204753  0  3.361842  0
N  N107  1  0.50555600  0.40147037  0.42792453  1  0  -0.228465  0  3.068684  0  0  -0.211368  0  3.374321  0  0  -0.221423  0  3.392492  0  -0.697243  0  -0.225018  -0.204767  0  3.361825  0
N  N108  1  0.49090979  0.65304788  0.47179378  1  0  -0.219361  0  3.05042  0  0  -0.203432  0  3.351712  0  0  -0.213594  0  3.370752  0  -0.66888  0  -0.226322  -0.196117  0  3.338172  0
N  N109  1  0.50908961  0.34694957  0.52820454  1  0  -0.219348  0  3.050472  0  0  -0.203438  0  3.35174  0  0  -0.213595  0  3.370783  0  -0.668863  0  -0.22628  -0.196142  0  3.338246  0
N  N110  1  0.04152601  0.83802319  0.53916649  1  0  -0.232337  0  3.038994  0  0  -0.211155  0  3.338877  0  0  -0.222203  0  3.357292  0  -0.685972  0  -0.224641  -0.20325  0  3.325413  0
N  N111  1  0.95847947  0.16197592  0.46083335  1  0  -0.232327  0  3.038977  0  0  -0.211169  0  3.338862  0  0  -0.222218  0  3.357278  0  -0.685845  0  -0.22467  -0.203264  0  3.3254  0
N  N112  1  0.02919461  0.89619665  0.43972081  1  0  -0.206963  0  3.024167  0  0  -0.194731  0  3.323965  0  0  -0.203721  0  3.342133  0  -0.666767  0  -0.225114  -0.188057  0  3.310898  0
N  N113  1  0.97081248  0.10379914  0.56027811  1  0  -0.206814  0  3.024228  0  0  -0.194625  0  3.323992  0  0  -0.203613  0  3.342159  0  -0.66684  0  -0.225002  -0.187952  0  3.310925  0
O  O114  1  0.54131135  0.84501953  0.71955030  1  0  -0.615417  0  1.994133  0  0  -0.558843  0  2.22105  0  0  -0.583854  0  2.211678  0  -1.178522  0  -0.302901  -0.541284  0  2.227188  0
O  O115  1  0.45868382  0.15497792  0.28045307  1  0  -0.615397  0  1.994172  0  0  -0.558765  0  2.221069  0  0  -0.583778  0  2.211709  0  -1.178474  0  -0.302881  -0.541203  0  2.227208  0
O  O116  1  0.62426930  0.02135378  0.21221748  1  0  -0.949307  0  1.910757  0  0  -0.901132  0  2.116736  0  0  -0.921968  0  2.083246  0  -1.30635  0  -0.669533  -0.885616  0  2.139056  0
O  O117  1  0.37573116  0.97864367  0.78778341  1  0  -0.949373  0  1.910673  0  0  -0.901244  0  2.116661  0  0  -0.922062  0  2.08312  0  -1.306373  0  -0.669583  -0.885729  0  2.138982  0
O  O118  1  0.67484503  0.70199643  0.82908740  1  0  -0.751606  0  2.027029  0  0  -0.701566  0  2.277319  0  0  -0.729136  0  2.265814  0  -1.213117  0  -0.391192  -0.681307  0  2.284664  0
O  O119  1  0.32515382  0.29800435  0.17091375  1  0  -0.751539  0  2.027079  0  0  -0.701484  0  2.277407  0  0  -0.729053  0  2.265899  0  -1.212589  0  -0.391137  -0.681224  0  2.284754  0
O  O120  1  0.82957837  0.90473450  0.11970005  1  0  -0.926972  0  1.931696  0  0  -0.887175  0  2.137819  0  0  -0.906911  0  2.106498  0  -1.30853  0  -0.673705  -0.87252  0  2.159024  0
O  O121  1  0.17042434  0.09526212  0.88029828  1  0  -0.926933  0  1.931763  0  0  -0.887118  0  2.1379  0  0  -0.906859  0  2.106577  0  -1.308533  0  -0.673749  -0.872469  0  2.159097  0
O  O122  1  0.09097493  0.63674086  0.06653343  1  0  -0.730285  0  2.07563  0  0  -0.66307  0  2.294369  0  0  -0.690605  0  2.284626  0  -1.233156  0  -0.359553  -0.643443  0  2.300785  0
O  O123  1  0.90902590  0.36326075  0.93346523  1  0  -0.73029  0  2.075654  0  0  -0.663073  0  2.2944  0  0  -0.690605  0  2.284656  0  -1.23311  0  -0.359532  -0.643457  0  2.300823  0
O  O124  1  0.43504059  0.16328925  0.06789347  1  0  -0.901676  0  1.8799  0  0  -0.860178  0  2.068893  0  0  -0.879189  0  2.035597  0  -1.277306  0  -0.63261  -0.846093  0  2.092351  0
O  O125  1  0.56495946  0.83671070  0.93210655  1  0  -0.901691  0  1.87992  0  0  -0.860187  0  2.068919  0  0  -0.8792  0  2.035622  0  -1.277287  0  -0.632624  -0.846102  0  2.092374  0
O  O126  1  0.13794254  0.49380021  0.20872345  1  0  -0.637618  0  1.972235  0  0  -0.593756  0  2.21253  0  0  -0.618782  0  2.205515  0  -1.183439  0  -0.332247  -0.575983  0  2.216238  0
O  O127  1  0.86206239  0.50620224  0.79127387  1  0  -0.637596  0  1.972229  0  0  -0.593733  0  2.212525  0  0  -0.618756  0  2.205509  0  -1.183469  0  -0.332251  -0.575958  0  2.21623  0
O  O128  1  0.77684057  0.18893860  0.06000398  1  0  -0.903883  0  1.83712  0  0  -0.865897  0  2.023003  0  0  -0.884705  0  1.990159  0  -1.264205  0  -0.644366  -0.851973  0  2.045841  0
O  O129  1  0.22315948  0.81106135  0.93999670  1  0  -0.903914  0  1.83717  0  0  -0.865951  0  2.022999  0  0  -0.884763  0  1.990151  0  -1.264211  0  -0.644392  -0.85203  0  2.045846  0
O  O130  1  0.60308757  0.45917412  0.93130595  1  0  -0.721279  0  2.043207  0  0  -0.684291  0  2.298311  0  0  -0.711126  0  2.286942  0  -1.195408  0  -0.400435  -0.664142  0  2.305299  0
O  O131  1  0.39692887  0.54082916  0.06868872  1  0  -0.721318  0  2.043494  0  0  -0.684247  0  2.298621  0  0  -0.711101  0  2.287288  0  -1.195382  0  -0.400421  -0.664084  0  2.305549  0
O  O132  1  0.85155117  0.69710707  0.96944998  1  0  -0.873454  0  1.850526  0  0  -0.834106  0  2.040539  0  0  -0.852868  0  2.012119  0  -1.258818  0  -0.626056  -0.820414  0  2.060881  0
O  O133  1  0.14845150  0.30289621  0.03054924  1  0  -0.873459  0  1.850512  0  0  -0.834096  0  2.040519  0  0  -0.852864  0  2.012089  0  -1.259071  0  -0.626045  -0.820403  0  2.06086  0
O  O134  1  0.38153394  0.41660814  0.94305007  1  0  -0.740913  0  2.04899  0  0  -0.694937  0  2.300624  0  0  -0.721404  0  2.287504  0  -1.203105  0  -0.406032  -0.67562  0  2.309522  0
O  O135  1  0.61847809  0.58340263  0.05694891  1  0  -0.741105  0  2.048884  0  0  -0.695085  0  2.300568  0  0  -0.72155  0  2.287454  0  -1.202564  0  -0.406198  -0.675764  0  2.309433  0
O  O136  1  0.52350864  0.90890765  0.09015450  1  0  -0.786738  0  2.113195  0  0  -0.743512  0  2.370852  0  0  -0.770245  0  2.360513  0  -1.217103  0  -0.424877  -0.723883  0  2.376344  0
O  O137  1  0.47649233  0.09109313  0.90984580  1  0  -0.786703  0  2.113175  0  0  -0.743484  0  2.370896  0  0  -0.770228  0  2.360555  0  -1.217003  0  -0.424849  -0.72384  0  2.376351  0
O  O138  1  0.36699575  0.79173211  0.11893372  1  0  -0.663248  0  1.965494  0  0  -0.619311  0  2.19721  0  0  -0.643373  0  2.189492  0  -1.16362  0  -0.359415  -0.602482  0  2.201921  0
O  O139  1  0.63300522  0.20826868  0.88106523  1  0  -0.663312  0  1.965454  0  0  -0.619372  0  2.19719  0  0  -0.643432  0  2.189467  0  -1.163703  0  -0.359434  -0.602539  0  2.20189  0
O  O140  1  0.23625419  0.63832651  0.88330057  1  0  -0.660853  0  1.998495  0  0  -0.60959  0  2.227002  0  0  -0.633794  0  2.21743  0  -1.178026  0  -0.322952  -0.592465  0  2.232943  0
O  O141  1  0.76374066  0.36167927  0.11670243  1  0  -0.660806  0  1.998427  0  0  -0.609526  0  2.226961  0  0  -0.633712  0  2.217354  0  -1.178091  0  -0.322946  -0.592401  0  2.232899  0
O  O142  1  0.04698845  0.55216770  0.90722053  1  0  -0.790908  0  2.118135  0  0  -0.748765  0  2.380696  0  0  -0.777029  0  2.37274  0  -1.208849  0  -0.408869  -0.727353  0  2.385224  0
O  O143  1  0.95301279  0.44783141  0.09277835  1  0  -0.790964  0  2.118078  0  0  -0.748793  0  2.380633  0  0  -0.77706  0  2.372676  0  -1.208977  0  -0.40886  -0.727381  0  2.385163  0
O  O144  1  0.25377283  0.02961014  0.07948526  1  0  -0.702138  0  2.106283  0  0  -0.644464  0  2.340864  0  0  -0.670832  0  2.332809  0  -1.200424  0  -0.3445  -0.625817  0  2.345508  0
O  O145  1  0.74622667  0.97039314  0.92051492  1  0  -0.702126  0  2.106379  0  0  -0.644453  0  2.340964  0  0  -0.670828  0  2.332943  0  -1.200477  0  -0.344473  -0.625806  0  2.345607  0
O  O146  1  0.10110439  0.92558110  0.07443899  1  0  -0.666278  0  2.004391  0  0  -0.607728  0  2.226717  0  0  -0.634364  0  2.219494  0  -1.179152  0  -0.325643  -0.589178  0  2.230987  0
O  O147  1  0.89889843  0.07442135  0.92556119  1  0  -0.666297  0  2.004268  0  0  -0.607753  0  2.2266  0  0  -0.634378  0  2.219376  0  -1.179215  0  -0.325661  -0.589211  0  2.230876  0
