# generated using pymatgen
data_Na2H20C14S2N2Cl2O7
_symmetry_space_group_name_H-M   'P 1'
_cell_length_a   6.26399572
_cell_length_b   6.26405152
_cell_length_c   14.92681014
_cell_angle_alpha   80.70654020
_cell_angle_beta   80.70749084
_cell_angle_gamma   62.04121965
_symmetry_Int_Tables_number   1
_chemical_formula_structural   Na2H20C14S2N2Cl2O7
_chemical_formula_sum   'Na2 H20 C14 S2 N2 Cl2 O7'
_cell_volume   508.07087824
_cell_formula_units_Z   1
loop_
 _symmetry_equiv_pos_site_id
 _symmetry_equiv_pos_as_xyz
  1  'x, y, z'
loop_
 _atom_site_type_symbol
 _atom_site_label
 _atom_site_symmetry_multiplicity
 _atom_site_fract_x
 _atom_site_fract_y
 _atom_site_fract_z
 _atom_site_occupancy
 _atom_site_hle17_bader_spin_density
 _atom_site_hle17_ddec_charge
 _atom_site_hle17_ddec_spin_density
 _atom_site_hle17_ddec_sum_bond_order
 _atom_site_hle17_magmom
 _atom_site_hse06_10hf_bader_spin_density
 _atom_site_hse06_10hf_ddec_charge
 _atom_site_hse06_10hf_ddec_spin_density
 _atom_site_hse06_10hf_ddec_sum_bond_order
 _atom_site_hse06_10hf_magmom
 _atom_site_hse06_bader_spin_density
 _atom_site_hse06_ddec_charge
 _atom_site_hse06_ddec_spin_density
 _atom_site_hse06_ddec_sum_bond_order
 _atom_site_hse06_magmom
 _atom_site_pbe_bader_spin_density
 _atom_site_pbe_cm5_charge
 _atom_site_pbe_ddec_charge
 _atom_site_pbe_ddec_spin_density
 _atom_site_pbe_ddec_sum_bond_order
 _atom_site_pbe_magmom
Na  Na0  1  0.36200688  0.92350602  0.52629668  1  0  0.914101  0  0.365085  0  0  0.883325  0  0.503362  0  0  0.891789  0  0.483084  0  0  0.668401  0.876794  0  0.518211  0
Na  Na1  1  0.07650703  0.63799690  0.47369991  1  0  0.914147  0  0.365033  0  0  0.883306  0  0.503395  0  0  0.891782  0  0.483103  0  0  0.66841  0.876777  0  0.518243  0
H  H2  1  0.66869308  0.82993201  0.36560484  1  0  0.394841  0  0.901397  0  0  0.363898  0  0.977605  0  0  0.372512  0  0.964792  0  0  0.285313  0.357761  0  0.986743  0
H  H3  1  0.17009001  0.33129307  0.63439918  1  0  0.394811  0  0.901353  0  0  0.363838  0  0.977697  0  0  0.372457  0  0.964875  0  0  0.28524  0.3577  0  0.986838  0
H  H4  1  0.69973741  0.05393823  0.38293444  1  0  0.413695  0  0.892563  0  0  0.380895  0  0.961423  0  0  0.390389  0  0.947442  0  0  0.289947  0.374113  0  0.971443  0
H  H5  1  0.94607732  0.30026657  0.61706719  1  0  0.413581  0  0.892789  0  0  0.380779  0  0.961595  0  0  0.390274  0  0.94761  0  0  0.289913  0.373998  0  0.971614  0
H  H6  1  0.57202675  0.39236087  0.55338883  1  0  0.394502  0  0.919192  0  0  0.361864  0  0.987393  0  0  0.371263  0  0.973661  0  0  0.282772  0.355276  0  0.997008  0
H  H7  1  0.60765128  0.42797767  0.44662133  1  0  0.394543  0  0.919153  0  0  0.361877  0  0.987391  0  0  0.371278  0  0.973657  0  0  0.282806  0.355289  0  0.997007  0
H  H8  1  0.10575256  0.75865128  0.96300736  1  0  0.082655  0  0.981436  0  0  0.095174  0  1.042605  0  0  0.097808  0  1.042005  0  0  0.0948  0.093249  0  1.043113  0
H  H9  1  0.24132957  0.89425723  0.03700112  1  0  0.082713  0  0.981425  0  0  0.09517  0  1.042646  0  0  0.097848  0  1.041992  0  0  0.094867  0.093238  0  1.043159  0
H  H10  1  0.89730933  0.50956517  0.02899561  1  0  0.087552  0  0.956743  0  0  0.096257  0  1.021004  0  0  0.098892  0  1.019912  0  0  0.098494  0.094347  0  1.021811  0
H  H11  1  0.49040653  0.10269040  0.97100839  1  0  0.0876  0  0.956648  0  0  0.096291  0  1.020939  0  0  0.09893  0  1.019843  0  0  0.098507  0.094378  0  1.021746  0
H  H12  1  0.65318999  0.43405045  0.93062347  1  0  0.086823  0  0.96349  0  0  0.09865  0  1.023326  0  0  0.101218  0  1.022839  0  0  0.099101  0.096933  0  1.023514  0
H  H13  1  0.56585932  0.34689375  0.06936332  1  0  0.086774  0  0.963517  0  0  0.098717  0  1.023192  0  0  0.101284  0  1.022701  0  0  0.099096  0.096993  0  1.02338  0
H  H14  1  0.61642450  0.62084076  0.77118771  1  0  0.100544  0  0.990735  0  0  0.105458  0  1.061224  0  0  0.108793  0  1.058984  0  0  0.09914  0.102971  0  1.063058  0
H  H15  1  0.37905425  0.38368228  0.22879612  1  0  0.100369  0  0.9909  0  0  0.105446  0  1.061231  0  0  0.108781  0  1.058992  0  0  0.099053  0.102956  0  1.063062  0
H  H16  1  0.97211578  0.18055860  0.77810365  1  0  0.107914  0  0.990061  0  0  0.125555  0  1.059807  0  0  0.126518  0  1.060778  0  0  0.086017  0.12478  0  1.059161  0
H  H17  1  0.81940348  0.02791709  0.22189896  1  0  0.107907  0  0.990089  0  0  0.125634  0  1.059677  0  0  0.126614  0  1.060633  0  0  0.086089  0.124858  0  1.059033  0
H  H18  1  0.22737042  0.92782563  0.73454192  1  0  0.120957  0  0.973417  0  0  0.137007  0  1.044501  0  0  0.139601  0  1.042822  0  0  0.093656  0.135024  0  1.045877  0
H  H19  1  0.07214439  0.77264935  0.26545860  1  0  0.121083  0  0.973298  0  0  0.137155  0  1.044355  0  0  0.139754  0  1.042676  0  0  0.093694  0.135168  0  1.045734  0
H  H20  1  0.21019892  0.99201544  0.84781104  1  0  0.106141  0  0.957894  0  0  0.127166  0  1.020811  0  0  0.128305  0  1.021365  0  0  0.084672  0.126321  0  1.02043  0
H  H21  1  0.00795107  0.78982946  0.15219270  1  0  0.106349  0  0.957771  0  0  0.127355  0  1.020721  0  0  0.128491  0  1.021278  0  0  0.084721  0.126509  0  1.020341  0
C  C22  1  0.83705407  0.79537694  0.77806878  1  0  -0.188497  0  3.703252  0  0  -0.169527  0  3.951171  0  0  -0.17798  0  3.973179  0  0  -0.028359  -0.164215  0  3.936409  0
C  C23  1  0.20456195  0.16300007  0.22192633  1  0  -0.188478  0  3.703267  0  0  -0.169451  0  3.951223  0  0  -0.177894  0  3.9732  0  0  -0.028306  -0.164143  0  3.936461  0
C  C24  1  0.97844294  0.83809148  0.83099264  1  0  0.15866  0  3.734589  0  0  0.176768  0  3.971374  0  0  0.180982  0  3.994175  0  0  -0.00265  0.174083  0  3.955629  0
C  C25  1  0.16187076  0.02159426  0.16901076  1  0  0.158782  0  3.73469  0  0  0.176819  0  3.971526  0  0  0.181031  0  3.994348  0  0  -0.002628  0.174135  0  3.955781  0
C  C26  1  0.99670880  0.72914078  0.92102921  1  0  -0.137251  0  3.732208  0  0  -0.154099  0  3.974016  0  0  -0.16032  0  3.996252  0  0  -0.095552  -0.149911  0  3.958814  0
C  C27  1  0.27082869  0.00330330  0.07897714  1  0  -0.137165  0  3.732037  0  0  -0.153931  0  3.973822  0  0  -0.160183  0  3.996038  0  0  -0.095478  -0.149742  0  3.958627  0
C  C28  1  0.88026302  0.58731994  0.95815585  1  0  -0.04699  0  3.78402  0  0  -0.063344  0  4.036455  0  0  -0.061541  0  4.056573  0  0  -0.0876  -0.064271  0  4.022635  0
C  C29  1  0.41263467  0.11977790  0.04184522  1  0  -0.047028  0  3.783981  0  0  -0.063377  0  4.036373  0  0  -0.061581  0  4.056513  0  0  -0.087662  -0.064301  0  4.022549  0
C  C30  1  0.74348785  0.54674460  0.90414231  1  0  -0.081258  0  3.768261  0  0  -0.093525  0  4.018067  0  0  -0.09837  0  4.039573  0  0  -0.096894  -0.090439  0  4.003305  0
C  C31  1  0.45316838  0.25658690  0.09584858  1  0  -0.081284  0  3.768535  0  0  -0.093636  0  4.0184  0  0  -0.098479  0  4.039903  0  0  -0.096856  -0.090542  0  4.003631  0
C  C32  1  0.72243440  0.65086811  0.81416482  1  0  -0.06057  0  3.777131  0  0  -0.086098  0  4.030315  0  0  -0.084023  0  4.049624  0  0  -0.088925  -0.087211  0  4.017259  0
C  C33  1  0.34905259  0.27765431  0.18582557  1  0  -0.060516  0  3.777071  0  0  -0.086217  0  4.030308  0  0  -0.084143  0  4.049624  0  0  -0.088954  -0.087323  0  4.017242  0
C  C34  1  0.10415001  0.99221389  0.79616788  1  0  -0.362972  0  3.747585  0  0  -0.449301  0  3.989246  0  0  -0.452633  0  3.998336  0  0  -0.253941  -0.446693  0  3.982901  0
C  C35  1  0.00774996  0.89588218  0.20383433  1  0  -0.363473  0  3.747587  0  0  -0.449876  0  3.989327  0  0  -0.453231  0  3.998398  0  0  -0.254185  -0.447264  0  3.982988  0
S  S36  1  0.78842057  0.92947250  0.66319516  1  0  1.200517  0  5.482321  0  0  1.118641  0  5.985355  0  0  1.161709  0  5.970041  0  0  0.531498  1.088947  0  5.994994  0
S  S37  1  0.07049593  0.21164669  0.33679992  1  0  1.200685  0  5.48207  0  0  1.118815  0  5.9851  0  0  1.161886  0  5.969795  0  0  0.531596  1.089121  0  5.994745  0
N  N38  1  0.69533721  0.21692122  0.66074023  1  0  -0.597479  0  2.734543  0  0  -0.539809  0  3.016366  0  0  -0.556797  0  3.01255  0  0  -0.357385  -0.527883  0  3.018795  0
N  N39  1  0.78305124  0.30469162  0.33926301  1  0  -0.597518  0  2.734526  0  0  -0.539909  0  3.016436  0  0  -0.55689  0  3.012592  0  0  -0.357429  -0.527987  0  3.018871  0
Cl  Cl40  1  0.42643236  0.34755865  0.73308307  1  0  -0.003111  0  1.443013  0  0  0.032077  0  1.689246  0  0  0.029656  0  1.68363  0  0  0.096497  0.033619  0  1.693152  0
Cl  Cl41  1  0.65237945  0.57360182  0.26692332  1  0  -0.003125  0  1.44299  0  0  0.032064  0  1.689228  0  0  0.02964  0  1.683616  0  0  0.096467  0.033606  0  1.693133  0
O  O42  1  0.61659681  0.86071036  0.63647960  1  0  -0.673488  0  1.995225  0  0  -0.628027  0  2.255844  0  0  -0.646982  0  2.241187  0  0  -0.380002  -0.614581  0  2.26571  0
O  O43  1  0.13925920  0.38343588  0.36351564  1  0  -0.673398  0  1.995359  0  0  -0.62795  0  2.256023  0  0  -0.646909  0  2.241371  0  0  -0.380016  -0.614508  0  2.26589  0
O  O44  1  0.02157590  0.84848840  0.60663584  1  0  -0.690952  0  1.995106  0  0  -0.650719  0  2.264455  0  0  -0.671424  0  2.251134  0  0  -0.396129  -0.635845  0  2.272926  0
O  O45  1  0.15149874  0.97844718  0.39335888  1  0  -0.691127  0  1.99468  0  0  -0.650834  0  2.26388  0  0  -0.671541  0  2.250554  0  0  -0.396148  -0.63596  0  2.272355  0
O  O46  1  0.68608322  0.90752393  0.41399171  1  0  -0.883964  0  1.8289  0  0  -0.8486  0  2.012265  0  0  -0.86207  0  1.981254  0  0  -0.680777  -0.838969  0  2.034171  0
O  O47  1  0.09249640  0.31390984  0.58601046  1  0  -0.883817  0  1.828917  0  0  -0.848425  0  2.012293  0  0  -0.861893  0  1.981286  0  0  -0.680681  -0.838792  0  2.034198  0
O  O48  1  0.49526315  0.50473818  0.50000257  1  0  -0.884785  0  1.806231  0  0  -0.839344  0  1.982152  0  0  -0.8546  0  1.951983  0  0  -0.684211  -0.828366  0  2.003014  0
