# generated using pymatgen
data_Hg3H12C6(Cl3O2)2
_symmetry_space_group_name_H-M   'P 1'
_cell_length_a   7.67978621
_cell_length_b   9.46352575
_cell_length_c   12.02601793
_cell_angle_alpha   100.13116320
_cell_angle_beta   89.81193323
_cell_angle_gamma   96.93565628
_symmetry_Int_Tables_number   1
_chemical_formula_structural   Hg3H12C6(Cl3O2)2
_chemical_formula_sum   'Hg6 H24 C12 Cl12 O8'
_cell_volume   853.95678295
_cell_formula_units_Z   2
loop_
 _symmetry_equiv_pos_site_id
 _symmetry_equiv_pos_as_xyz
  1  'x, y, z'
loop_
 _atom_site_type_symbol
 _atom_site_label
 _atom_site_symmetry_multiplicity
 _atom_site_fract_x
 _atom_site_fract_y
 _atom_site_fract_z
 _atom_site_occupancy
 _atom_site_hle17_bader_spin_density
 _atom_site_hle17_ddec_charge
 _atom_site_hle17_ddec_spin_density
 _atom_site_hle17_ddec_sum_bond_order
 _atom_site_hle17_magmom
 _atom_site_hse06_10hf_bader_spin_density
 _atom_site_hse06_10hf_ddec_charge
 _atom_site_hse06_10hf_ddec_spin_density
 _atom_site_hse06_10hf_ddec_sum_bond_order
 _atom_site_hse06_10hf_magmom
 _atom_site_hse06_bader_spin_density
 _atom_site_hse06_ddec_charge
 _atom_site_hse06_ddec_spin_density
 _atom_site_hse06_ddec_sum_bond_order
 _atom_site_hse06_magmom
 _atom_site_pbe_bader_spin_density
 _atom_site_pbe_cm5_charge
 _atom_site_pbe_ddec_charge
 _atom_site_pbe_ddec_spin_density
 _atom_site_pbe_ddec_sum_bond_order
 _atom_site_pbe_magmom
Hg  Hg0  1  0.14221280  0.82062216  0.89256261  1  0  0.759881  0  2.14692  0  0  0.620086  0  2.649518  0  0  0.667773  0  2.611756  0  0  0.477438  0.586979  0  2.675455  0
Hg  Hg1  1  0.85778794  0.17936621  0.10745310  1  0  0.759913  0  2.146699  0  0  0.620128  0  2.649278  0  0  0.667812  0  2.61152  0  0  0.477471  0.587022  0  2.675216  0
Hg  Hg2  1  0.07880783  0.48174142  0.65399809  1  0  0.774406  0  2.134936  0  0  0.633352  0  2.627943  0  0  0.682537  0  2.59025  0  0  0.491907  0.599289  0  2.653363  0
Hg  Hg3  1  0.92118795  0.51824819  0.34601281  1  0  0.774366  0  2.134971  0  0  0.633327  0  2.627988  0  0  0.682511  0  2.590292  0  0  0.491872  0.599263  0  2.653414  0
Hg  Hg4  1  0.95632827  0.83960028  0.21502989  1  0  0.779323  0  2.097458  0  0  0.634535  0  2.593709  0  0  0.683816  0  2.555088  0  0  0.49493  0.600221  0  2.619755  0
Hg  Hg5  1  0.04370048  0.16040089  0.78498952  1  0  0.779397  0  2.097352  0  0  0.634567  0  2.593662  0  0  0.683849  0  2.555044  0  0  0.494936  0.600247  0  2.619713  0
H  H6  1  0.63136989  0.94148917  0.65208783  1  0  0.065221  0  0.945298  0  0  0.07458  0  1.01882  0  0  0.075206  0  1.018182  0  0  0.092456  0.074088  0  1.019399  0
H  H7  1  0.36858597  0.05847420  0.34785823  1  0  0.065209  0  0.945334  0  0  0.074601  0  1.018837  0  0  0.075179  0  1.01827  0  0  0.092393  0.074103  0  1.019411  0
H  H8  1  0.62753039  0.89784326  0.78912528  1  0  0.09412  0  0.919963  0  0  0.108153  0  0.984388  0  0  0.107035  0  0.985379  0  0  0.105586  0.108925  0  0.983829  0
H  H9  1  0.37247865  0.10214378  0.21082038  1  0  0.094204  0  0.919882  0  0  0.108241  0  0.984304  0  0  0.107141  0  0.985292  0  0  0.105662  0.109014  0  0.983724  0
H  H10  1  0.53442994  0.69143904  0.61247794  1  0  0.06512  0  0.961529  0  0  0.076611  0  1.031128  0  0  0.077538  0  1.030413  0  0  0.086621  0.075893  0  1.031815  0
H  H11  1  0.46548946  0.30852597  0.38749324  1  0  0.064907  0  0.961651  0  0  0.07648  0  1.031268  0  0  0.077404  0  1.030552  0  0  0.086588  0.075769  0  1.031942  0
H  H12  1  0.33404088  0.76968953  0.61546916  1  0  0.075895  0  0.93849  0  0  0.083955  0  1.012089  0  0  0.084568  0  1.011288  0  0  0.094719  0.083427  0  1.012785  0
H  H13  1  0.66588734  0.23030135  0.38454679  1  0  0.075947  0  0.938122  0  0  0.083856  0  1.012056  0  0  0.084488  0  1.011208  0  0  0.094679  0.083311  0  1.012793  0
H  H14  1  0.61181260  0.58653890  0.74908745  1  0  0.066809  0  0.942854  0  0  0.07875  0  1.01216  0  0  0.078936  0  1.012324  0  0  0.092341  0.078441  0  1.012397  0
H  H15  1  0.38819619  0.41347414  0.25089965  1  0  0.066812  0  0.942976  0  0  0.078783  0  1.012264  0  0  0.078974  0  1.012427  0  0  0.092346  0.078475  0  1.012497  0
H  H16  1  0.55659883  0.68529128  0.88196263  1  0  0.070569  0  0.940589  0  0  0.081659  0  1.009525  0  0  0.082225  0  1.009115  0  0  0.088462  0.081191  0  1.010048  0
H  H17  1  0.44342183  0.31473135  0.11802930  1  0  0.07048  0  0.940793  0  0  0.0816  0  1.009742  0  0  0.082167  0  1.009336  0  0  0.088397  0.08113  0  1.010266  0
H  H18  1  0.30171313  0.49513054  0.89509146  1  0  0.071199  0  0.945917  0  0  0.080103  0  1.018851  0  0  0.080394  0  1.018639  0  0  0.090174  0.079877  0  1.018997  0
H  H19  1  0.69831425  0.50488691  0.10492880  1  0  0.071232  0  0.946328  0  0  0.080083  0  1.019192  0  0  0.080374  0  1.018978  0  0  0.090206  0.079862  0  1.019333  0
H  H20  1  0.51269989  0.43348742  0.89544979  1  0  0.071736  0  0.927265  0  0  0.085198  0  0.992456  0  0  0.085657  0  0.992177  0  0  0.098238  0.084847  0  0.992692  0
H  H21  1  0.48734238  0.56653259  0.10455426  1  0  0.071592  0  0.927349  0  0  0.085046  0  0.992497  0  0  0.085503  0  0.992223  0  0  0.098172  0.084705  0  0.992726  0
H  H22  1  0.56818949  0.36072855  0.64198732  1  0  0.060575  0  0.948688  0  0  0.07219  0  1.018475  0  0  0.072543  0  1.018342  0  0  0.08698  0.071877  0  1.018722  0
H  H23  1  0.43182880  0.63928821  0.35802033  1  0  0.06073  0  0.94862  0  0  0.072274  0  1.018453  0  0  0.07263  0  1.018319  0  0  0.087094  0.071963  0  1.018702  0
H  H24  1  0.58626422  0.26753627  0.75726503  1  0  0.067854  0  0.957473  0  0  0.076128  0  1.031383  0  0  0.076695  0  1.030962  0  0  0.089524  0.075612  0  1.031908  0
H  H25  1  0.41374949  0.73246685  0.24272638  1  0  0.067882  0  0.95741  0  0  0.076158  0  1.031267  0  0  0.076728  0  1.03085  0  0  0.089533  0.075642  0  1.031792  0
H  H26  1  0.53542412  0.10947728  0.56911871  1  0  0.067045  0  0.939071  0  0  0.080356  0  1.007413  0  0  0.080797  0  1.006881  0  0  0.097734  0.080003  0  1.007843  0
H  H27  1  0.46456512  0.89052796  0.43087879  1  0  0.067099  0  0.938978  0  0  0.080539  0  1.007216  0  0  0.080978  0  1.006686  0  0  0.097809  0.080188  0  1.007638  0
H  H28  1  0.32551969  0.17076933  0.55609003  1  0  0.090003  0  0.910959  0  0  0.103888  0  0.977329  0  0  0.102836  0  0.978001  0  0  0.109168  0.104627  0  0.976894  0
H  H29  1  0.67447660  0.82925636  0.44391313  1  0  0.089942  0  0.911002  0  0  0.103806  0  0.97748  0  0  0.102754  0  0.978155  0  0  0.109139  0.104545  0  0.977045  0
C  C30  1  0.54393057  0.90206799  0.71589289  1  0  0.012336  0  3.653207  0  0  -0.050126  0  3.933145  0  0  -0.04287  0  3.936822  0  0  -0.092713  -0.055044  0  3.930482  0
C  C31  1  0.45606315  0.09790632  0.28408321  1  0  0.01211  0  3.653332  0  0  -0.050336  0  3.9335  0  0  -0.043113  0  3.937288  0  0  -0.092674  -0.05521  0  3.930786  0
C  C32  1  0.44623995  0.75548605  0.66701511  1  0  0.038245  0  3.645317  0  0  -0.023391  0  3.917608  0  0  -0.016563  0  3.922664  0  0  -0.093665  -0.027972  0  3.913838  0
C  C33  1  0.55371169  0.24450323  0.33297652  1  0  0.038691  0  3.645085  0  0  -0.023165  0  3.917745  0  0  -0.016315  0  3.922837  0  0  -0.09372  -0.027759  0  3.913954  0
C  C34  1  0.50263861  0.60927587  0.80641069  1  0  0.042221  0  3.615956  0  0  -0.016185  0  3.88157  0  0  -0.009735  0  3.888016  0  0  -0.088223  -0.0206  0  3.876964  0
C  C35  1  0.49737227  0.39074324  0.19359232  1  0  0.042439  0  3.616076  0  0  -0.016205  0  3.881796  0  0  -0.009768  0  3.888259  0  0  -0.088097  -0.020618  0  3.877196  0
C  C36  1  0.41700469  0.47286565  0.84377047  1  0  0.04557  0  3.632775  0  0  -0.013243  0  3.900886  0  0  -0.006826  0  3.907012  0  0  -0.086715  -0.017522  0  3.896334  0
C  C37  1  0.58304823  0.52714770  0.15623673  1  0  0.045351  0  3.633688  0  0  -0.013113  0  3.901345  0  0  -0.006694  0  3.907475  0  0  -0.086817  -0.01741  0  3.89681  0
C  C38  1  0.49445713  0.29016088  0.69433052  1  0  0.050863  0  3.646675  0  0  -0.006461  0  3.915548  0  0  -8.4e-05  0  3.921402  0  0  -0.08807  -0.010798  0  3.911347  0
C  C39  1  0.50556862  0.70985369  0.30567681  1  0  0.050715  0  3.646661  0  0  -0.006373  0  3.915422  0  0  -2e-06  0  3.921282  0  0  -0.088149  -0.010711  0  3.911218  0
C  C40  1  0.42417894  0.15200737  0.61650401  1  0  0.025692  0  3.642069  0  0  -0.041818  0  3.925522  0  0  -0.034283  0  3.929849  0  0  -0.085871  -0.046811  0  3.922193  0
C  C41  1  0.57581772  0.84800416  0.38350030  1  0  0.025844  0  3.641745  0  0  -0.041923  0  3.925456  0  0  -0.03438  0  3.92977  0  0  -0.085827  -0.046916  0  3.922127  0
Cl  Cl42  1  0.30756166  0.81360546  0.05335435  1  0  -0.396414  0  1.131699  0  0  -0.336409  0  1.434933  0  0  -0.356338  0  1.415771  0  0  -0.223255  -0.323077  0  1.448403  0
Cl  Cl43  1  0.69242405  0.18636138  0.94665634  1  0  -0.396438  0  1.131549  0  0  -0.336426  0  1.434754  0  0  -0.356347  0  1.415579  0  0  -0.223267  -0.323082  0  1.448209  0
Cl  Cl44  1  0.98137742  0.82989870  0.72817250  1  0  -0.400383  0  1.176164  0  0  -0.3367  0  1.487577  0  0  -0.358241  0  1.468824  0  0  -0.222704  -0.321842  0  1.500975  0
Cl  Cl45  1  0.01862667  0.17009412  0.27183892  1  0  -0.400395  0  1.17614  0  0  -0.336728  0  1.487597  0  0  -0.358271  0  1.468837  0  0  -0.222731  -0.321866  0  1.500998  0
Cl  Cl46  1  0.95121712  0.49134714  0.83407996  1  0  -0.407372  0  1.135765  0  0  -0.341677  0  1.434859  0  0  -0.363701  0  1.417255  0  0  -0.22319  -0.326424  0  1.446979  0
Cl  Cl47  1  0.04878740  0.50864881  0.16593610  1  0  -0.40741  0  1.135811  0  0  -0.341774  0  1.434979  0  0  -0.363797  0  1.417374  0  0  -0.223214  -0.326519  0  1.447103  0
Cl  Cl48  1  0.23066796  0.46858094  0.48190480  1  0  -0.404065  0  1.162587  0  0  -0.340521  0  1.471689  0  0  -0.360989  0  1.451853  0  0  -0.212622  -0.326526  0  1.485415  0
Cl  Cl49  1  0.76930934  0.53141532  0.51810460  1  0  -0.404056  0  1.162513  0  0  -0.340458  0  1.471521  0  0  -0.360925  0  1.451684  0  0  -0.212597  -0.326445  0  1.485227  0
Cl  Cl50  1  0.17911517  0.16598271  0.96146680  1  0  -0.389812  0  1.207662  0  0  -0.325987  0  1.526646  0  0  -0.348004  0  1.506466  0  0  -0.212196  -0.31092  0  1.540758  0
Cl  Cl51  1  0.82090016  0.83400687  0.03854165  1  0  -0.389845  0  1.207636  0  0  -0.326039  0  1.526627  0  0  -0.348055  0  1.506449  0  0  -0.212202  -0.310968  0  1.540737  0
Cl  Cl52  1  0.91877771  0.16361812  0.60686544  1  0  -0.392004  0  1.085506  0  0  -0.328787  0  1.375747  0  0  -0.34912  0  1.357078  0  0  -0.22128  -0.315026  0  1.388723  0
Cl  Cl53  1  0.08122250  0.83638335  0.39314813  1  0  -0.391934  0  1.08558  0  0  -0.328744  0  1.37587  0  0  -0.34907  0  1.357184  0  0  -0.221275  -0.314982  0  1.388846  0
O  O54  1  0.43387830  0.00919016  0.76180429  1  0  -0.159214  0  2.011232  0  0  -0.111498  0  2.264574  0  0  -0.120518  0  2.261465  0  0  -0.134567  -0.104872  0  2.266496  0
O  O55  1  0.56613151  0.99081300  0.23818628  1  0  -0.159304  0  2.011742  0  0  -0.111572  0  2.265097  0  0  -0.12057  0  2.262  0  0  -0.134653  -0.104957  0  2.267007  0
O  O56  1  0.37401580  0.67290197  0.75001826  1  0  -0.3308  0  2.346924  0  0  -0.241263  0  2.595827  0  0  -0.263338  0  2.599746  0  0  -0.236216  -0.225437  0  2.592349  0
O  O57  1  0.62596091  0.32709087  0.24999727  1  0  -0.330882  0  2.347099  0  0  -0.241121  0  2.59608  0  0  -0.263194  0  2.6  0  0  -0.236085  -0.225296  0  2.592605  0
O  O58  1  0.35436099  0.35917986  0.75153310  1  0  -0.329651  0  2.320623  0  0  -0.246032  0  2.570314  0  0  -0.266509  0  2.573596  0  0  -0.238877  -0.231485  0  2.567431  0
O  O59  1  0.64566719  0.64082500  0.24847108  1  0  -0.329487  0  2.320622  0  0  -0.246072  0  2.570369  0  0  -0.266546  0  2.573653  0  0  -0.238855  -0.231515  0  2.567488  0
O  O60  1  0.32719416  0.04226735  0.66885548  1  0  -0.185016  0  2.047291  0  0  -0.129457  0  2.304142  0  0  -0.141455  0  2.301556  0  0  -0.136118  -0.120977  0  2.305597  0
O  O61  1  0.67281122  0.95775828  0.33114853  1  0  -0.185063  0  2.047138  0  0  -0.129429  0  2.303987  0  0  -0.141427  0  2.301396  0  0  -0.136128  -0.120948  0  2.30544  0
