# generated using pymatgen
data_SnH14C14(NO2)2
_symmetry_space_group_name_H-M   'P 1'
_cell_length_a   8.91478145
_cell_length_b   12.24670844
_cell_length_c   13.78881133
_cell_angle_alpha   109.47958963
_cell_angle_beta   89.99996878
_cell_angle_gamma   90.00008659
_symmetry_Int_Tables_number   1
_chemical_formula_structural   SnH14C14(NO2)2
_chemical_formula_sum   'Sn4 H56 C56 N8 O16'
_cell_volume   1419.24774936
_cell_formula_units_Z   4
loop_
 _symmetry_equiv_pos_site_id
 _symmetry_equiv_pos_as_xyz
  1  'x, y, z'
loop_
 _atom_site_type_symbol
 _atom_site_label
 _atom_site_symmetry_multiplicity
 _atom_site_fract_x
 _atom_site_fract_y
 _atom_site_fract_z
 _atom_site_occupancy
 _atom_site_hle17_bader_spin_density
 _atom_site_hle17_ddec_charge
 _atom_site_hle17_ddec_spin_density
 _atom_site_hle17_ddec_sum_bond_order
 _atom_site_hle17_magmom
 _atom_site_hse06_10hf_bader_spin_density
 _atom_site_hse06_10hf_ddec_charge
 _atom_site_hse06_10hf_ddec_spin_density
 _atom_site_hse06_10hf_ddec_sum_bond_order
 _atom_site_hse06_10hf_magmom
 _atom_site_hse06_bader_spin_density
 _atom_site_hse06_ddec_charge
 _atom_site_hse06_ddec_spin_density
 _atom_site_hse06_ddec_sum_bond_order
 _atom_site_hse06_magmom
 _atom_site_pbe_bader_spin_density
 _atom_site_pbe_cm5_charge
 _atom_site_pbe_ddec_charge
 _atom_site_pbe_ddec_spin_density
 _atom_site_pbe_ddec_sum_bond_order
 _atom_site_pbe_magmom
Sn  Sn0  1  0.86457137  0.82447985  0.74900777  1  0  1.454142  0  2.891921  0  0  1.282623  0  3.402879  0  0  1.338118  0  3.375848  0  0  0.607394  1.243303  0  3.420999  0
Sn  Sn1  1  0.63542856  0.82448102  0.24900835  1  0  1.45412  0  2.891971  0  0  1.282586  0  3.40294  0  0  1.338084  0  3.375904  0  0  0.607388  1.243261  0  3.421058  0
Sn  Sn2  1  0.13542908  0.17551999  0.25099220  1  0  1.454124  0  2.891967  0  0  1.282584  0  3.402936  0  0  1.338085  0  3.375902  0  0  0.607377  1.243253  0  3.421054  0
Sn  Sn3  1  0.36457190  0.17551969  0.75099260  1  0  1.454105  0  2.891969  0  0  1.282592  0  3.402929  0  0  1.338089  0  3.375895  0  0  0.607391  1.243264  0  3.421046  0
H  H4  1  0.43240603  0.81308595  0.60093266  1  0  0.120304  0  0.951646  0  0  0.130213  0  1.011651  0  0  0.133953  0  1.009719  0  0  0.112979  0.126621  0  1.014761  0
H  H5  1  0.06759304  0.81308531  0.10093128  1  0  0.120269  0  0.951691  0  0  0.130174  0  1.011689  0  0  0.133912  0  1.00976  0  0  0.112966  0.126592  0  1.014806  0
H  H6  1  0.56759218  0.18691388  0.39906659  1  0  0.120311  0  0.951668  0  0  0.130195  0  1.011694  0  0  0.133935  0  1.009764  0  0  0.112962  0.126602  0  1.014801  0
H  H7  1  0.93240630  0.18691452  0.89906797  1  0  0.120249  0  0.951686  0  0  0.13017  0  1.011685  0  0  0.133908  0  1.009755  0  0  0.112963  0.126577  0  1.014797  0
H  H8  1  0.47190428  0.59588183  0.52679556  1  0  0.096035  0  0.939534  0  0  0.108759  0  0.996295  0  0  0.110981  0  0.994972  0  0  0.112003  0.107314  0  0.997154  0
H  H9  1  0.02809328  0.59588115  0.02679563  1  0  0.095989  0  0.939563  0  0  0.108736  0  0.996288  0  0  0.110957  0  0.994966  0  0  0.11197  0.107291  0  0.997151  0
H  H10  1  0.52809393  0.40411801  0.47320369  1  0  0.095998  0  0.939559  0  0  0.108732  0  0.996302  0  0  0.110955  0  0.994979  0  0  0.111984  0.107286  0  0.997163  0
H  H11  1  0.97190381  0.40411869  0.97320506  1  0  0.096037  0  0.939538  0  0  0.108768  0  0.996287  0  0  0.110988  0  0.994965  0  0  0.111991  0.10732  0  0.997148  0
H  H12  1  0.26003243  0.46603889  0.54025217  1  0  0.10598  0  0.93321  0  0  0.119038  0  0.986832  0  0  0.122238  0  0.985733  0  0  0.112037  0.116713  0  0.987721  0
H  H13  1  0.23996597  0.46603757  0.04024908  1  0  0.105937  0  0.933273  0  0  0.119033  0  0.986856  0  0  0.122232  0  0.985758  0  0  0.112041  0.116706  0  0.987746  0
H  H14  1  0.73996690  0.53396181  0.45974951  1  0  0.105944  0  0.933216  0  0  0.119043  0  0.986798  0  0  0.122243  0  0.985697  0  0  0.112047  0.116724  0  0.987695  0
H  H15  1  0.76003336  0.53396053  0.95974820  1  0  0.10598  0  0.93322  0  0  0.11904  0  0.98684  0  0  0.122239  0  0.985742  0  0  0.112047  0.116723  0  0.987738  0
H  H16  1  0.02293189  0.55726673  0.62923612  1  0  0.089954  0  0.969239  0  0  0.093702  0  1.039335  0  0  0.097101  0  1.036247  0  0  0.117705  0.091198  0  1.041851  0
H  H17  1  0.47706775  0.55726480  0.12923277  1  0  0.089978  0  0.969205  0  0  0.093685  0  1.039331  0  0  0.097081  0  1.036252  0  0  0.117705  0.091183  0  1.041841  0
H  H18  1  0.97706856  0.44273484  0.37076654  1  0  0.089969  0  0.969206  0  0  0.09368  0  1.03934  0  0  0.097077  0  1.036259  0  0  0.117703  0.091177  0  1.041856  0
H  H19  1  0.52293271  0.44273330  0.87076524  1  0  0.089961  0  0.96926  0  0  0.093707  0  1.039351  0  0  0.097106  0  1.036265  0  0  0.117709  0.091203  0  1.041872  0
H  H20  1  0.41006189  0.55098251  0.78334824  1  0  0.121413  0  0.963978  0  0  0.126123  0  1.031301  0  0  0.13062  0  1.028174  0  0  0.111463  0.122564  0  1.034273  0
H  H21  1  0.08993760  0.55098276  0.28334712  1  0  0.12141  0  0.963996  0  0  0.126115  0  1.031332  0  0  0.130611  0  1.028206  0  0  0.111472  0.122558  0  1.034304  0
H  H22  1  0.58993856  0.44901733  0.21665318  1  0  0.121501  0  0.963979  0  0  0.126196  0  1.031311  0  0  0.130697  0  1.028183  0  0  0.1115  0.122636  0  1.034288  0
H  H23  1  0.91006510  0.44901708  0.71665213  1  0  0.121433  0  0.963989  0  0  0.12614  0  1.031326  0  0  0.130635  0  1.0282  0  0  0.111476  0.122583  0  1.034295  0
H  H24  1  0.24050315  0.69512630  0.90301060  1  0  0.104207  0  0.972213  0  0  0.114925  0  1.032547  0  0  0.117464  0  1.031236  0  0  0.108459  0.113671  0  1.03245  0
H  H25  1  0.25949878  0.69512587  0.40300849  1  0  0.1042  0  0.972261  0  0  0.114921  0  1.032583  0  0  0.11746  0  1.031273  0  0  0.108471  0.113666  0  1.032487  0
H  H26  1  0.75949842  0.30487527  0.09699061  1  0  0.104209  0  0.972257  0  0  0.114929  0  1.03258  0  0  0.117469  0  1.03127  0  0  0.108488  0.113672  0  1.032484  0
H  H27  1  0.74050504  0.30487310  0.59698905  1  0  0.104233  0  0.972193  0  0  0.114948  0  1.032522  0  0  0.117487  0  1.031211  0  0  0.108474  0.113693  0  1.032421  0
H  H28  1  0.31892367  0.90644847  0.96584223  1  0  0.102244  0  0.959493  0  0  0.112369  0  1.020561  0  0  0.115663  0  1.019378  0  0  0.106818  0.109326  0  1.023047  0
H  H29  1  0.18108090  0.90644795  0.46584157  1  0  0.102217  0  0.959459  0  0  0.112389  0  1.020472  0  0  0.115684  0  1.019288  0  0  0.106815  0.109337  0  1.02296  0
H  H30  1  0.68107903  0.09355224  0.03415800  1  0  0.102243  0  0.959398  0  0  0.112382  0  1.02045  0  0  0.115677  0  1.019267  0  0  0.106806  0.109333  0  1.022942  0
H  H31  1  0.81892404  0.09355102  0.53415814  1  0  0.102265  0  0.959452  0  0  0.112384  0  1.020525  0  0  0.11568  0  1.019339  0  0  0.106822  0.109338  0  1.023008  0
H  H32  1  0.56206039  0.95941945  0.90133282  1  0  0.069025  0  0.98528  0  0  0.0756  0  1.056331  0  0  0.078085  0  1.054043  0  0  0.114377  0.073775  0  1.057864  0
H  H33  1  0.93794194  0.95942008  0.40133459  1  0  0.069086  0  0.98515  0  0  0.07562  0  1.056247  0  0  0.078104  0  1.053959  0  0  0.114386  0.073797  0  1.057786  0
H  H34  1  0.43794119  0.04058212  0.09866694  1  0  0.069044  0  0.985325  0  0  0.075626  0  1.056364  0  0  0.07811  0  1.054076  0  0  0.114383  0.073801  0  1.057902  0
H  H35  1  0.06206076  0.04058063  0.59866709  1  0  0.069062  0  0.985271  0  0  0.075592  0  1.056365  0  0  0.078077  0  1.054078  0  0  0.114373  0.073764  0  1.057906  0
H  H36  1  0.83448106  0.91690565  0.59872582  1  0  0.153559  0  0.993275  0  0  0.169738  0  1.055055  0  0  0.172216  0  1.056699  0  0  0.086278  0.1679  0  1.05374  0
H  H37  1  0.66551919  0.91690685  0.09872640  1  0  0.153519  0  0.993298  0  0  0.1697  0  1.055079  0  0  0.172177  0  1.056725  0  0  0.086267  0.167863  0  1.053767  0
H  H38  1  0.16551828  0.08309332  0.40127390  1  0  0.153545  0  0.993276  0  0  0.169728  0  1.055058  0  0  0.172204  0  1.056704  0  0  0.086268  0.167887  0  1.053748  0
H  H39  1  0.33448014  0.08309299  0.90127430  1  0  0.153546  0  0.993297  0  0  0.169738  0  1.055062  0  0  0.172215  0  1.056708  0  0  0.08628  0.167898  0  1.053753  0
H  H40  1  0.66654416  0.84181660  0.60898527  1  0  0.160391  0  0.995655  0  0  0.176456  0  1.055523  0  0  0.179782  0  1.055419  0  0  0.089091  0.173278  0  1.057217  0
H  H41  1  0.83345705  0.84181625  0.10898534  1  0  0.160393  0  0.995634  0  0  0.176446  0  1.055519  0  0  0.179771  0  1.055415  0  0  0.089087  0.17327  0  1.057218  0
H  H42  1  0.33345405  0.15818323  0.39101325  1  0  0.16041  0  0.995649  0  0  0.17646  0  1.055537  0  0  0.179786  0  1.055432  0  0  0.089108  0.173281  0  1.057232  0
H  H43  1  0.16654341  0.15818358  0.89101463  1  0  0.160397  0  0.995619  0  0  0.176448  0  1.055506  0  0  0.179773  0  1.055403  0  0  0.089082  0.173269  0  1.057203  0
H  H44  1  0.82820146  0.76129027  0.54407011  1  0  0.158315  0  0.975977  0  0  0.175129  0  1.033719  0  0  0.178022  0  1.034962  0  0  0.087109  0.172987  0  1.032905  0
H  H45  1  0.67179851  0.76129061  0.04407044  1  0  0.158313  0  0.975964  0  0  0.175126  0  1.033707  0  0  0.178018  0  1.034951  0  0  0.087117  0.172986  0  1.0329  0
H  H46  1  0.17179787  0.23870870  0.45593033  1  0  0.158319  0  0.975987  0  0  0.175141  0  1.033719  0  0  0.178034  0  1.034963  0  0  0.087112  0.172999  0  1.032908  0
H  H47  1  0.32820194  0.23870923  0.95592953  1  0  0.158305  0  0.975985  0  0  0.175115  0  1.033732  0  0  0.178008  0  1.034975  0  0  0.087102  0.172973  0  1.032916  0
H  H48  1  0.06653608  0.86559873  0.89991414  1  0  0.160731  0  0.985828  0  0  0.178118  0  1.043694  0  0  0.181101  0  1.044557  0  0  0.089494  0.175243  0  1.044159  0
H  H49  1  0.43346397  0.86559936  0.39991445  1  0  0.160727  0  0.985838  0  0  0.1781  0  1.043723  0  0  0.181081  0  1.044586  0  0  0.089485  0.175219  0  1.044189  0
H  H50  1  0.93346101  0.13440024  0.10008485  1  0  0.160703  0  0.985821  0  0  0.178093  0  1.043688  0  0  0.181077  0  1.044549  0  0  0.089478  0.175213  0  1.044155  0
H  H51  1  0.56653537  0.13440134  0.60008650  1  0  0.160739  0  0.985802  0  0  0.178115  0  1.043679  0  0  0.181097  0  1.044541  0  0  0.089492  0.175235  0  1.044144  0
H  H52  1  0.96268019  0.73620508  0.89081893  1  0  0.166983  0  0.966398  0  0  0.184357  0  1.023071  0  0  0.18768  0  1.023109  0  0  0.092312  0.182084  0  1.022499  0
H  H53  1  0.53731944  0.73620527  0.39081998  1  0  0.166978  0  0.966414  0  0  0.184357  0  1.02308  0  0  0.187681  0  1.023117  0  0  0.092309  0.18208  0  1.022507  0
H  H54  1  0.03731803  0.26379476  0.10918104  1  0  0.166972  0  0.96641  0  0  0.184347  0  1.023084  0  0  0.18767  0  1.023122  0  0  0.092308  0.182071  0  1.022508  0
H  H55  1  0.46267990  0.26379543  0.60918024  1  0  0.166971  0  0.966403  0  0  0.184349  0  1.023071  0  0  0.187673  0  1.023109  0  0  0.092302  0.182071  0  1.022498  0
H  H56  1  0.88177535  0.87725848  0.95386739  1  0  0.164074  0  0.982326  0  0  0.183815  0  1.035713  0  0  0.186955  0  1.036258  0  0  0.089983  0.181231  0  1.035845  0
H  H57  1  0.61822676  0.87725963  0.45386724  1  0  0.164069  0  0.9823  0  0  0.183811  0  1.035693  0  0  0.186951  0  1.036237  0  0  0.089982  0.181223  0  1.035827  0
H  H58  1  0.11822398  0.12274049  0.04613378  1  0  0.16407  0  0.982315  0  0  0.183811  0  1.035706  0  0  0.186951  0  1.036253  0  0  0.08998  0.181224  0  1.035846  0
H  H59  1  0.38177370  0.12274107  0.54613299  1  0  0.164099  0  0.982376  0  0  0.183843  0  1.035757  0  0  0.186984  0  1.036301  0  0  0.090002  0.181256  0  1.035889  0
C  C60  1  0.18215432  0.92286278  0.69316013  1  0  0.611079  0  3.914576  0  0  0.554756  0  4.21647  0  0  0.588933  0  4.207646  0  0  0.222575  0.531616  0  4.221454  0
C  C61  1  0.31784490  0.92286328  0.19315900  1  0  0.611073  0  3.914618  0  0  0.554707  0  4.216536  0  0  0.588886  0  4.207714  0  0  0.222538  0.531556  0  4.221521  0
C  C62  1  0.81784389  0.07713879  0.30684180  1  0  0.61107  0  3.914597  0  0  0.554719  0  4.216495  0  0  0.588893  0  4.207671  0  0  0.222554  0.531579  0  4.221478  0
C  C63  1  0.68215443  0.07713656  0.80684025  1  0  0.611111  0  3.91451  0  0  0.55476  0  4.216399  0  0  0.588934  0  4.207578  0  0  0.222578  0.531616  0  4.221381  0
C  C64  1  0.21071463  0.79429284  0.65187920  1  0  0.083535  0  3.769106  0  0  0.086813  0  4.01075  0  0  0.087202  0  4.031701  0  0  0.112434  0.08653  0  3.996279  0
C  C65  1  0.28928548  0.79429331  0.15187662  1  0  0.083439  0  3.769325  0  0  0.086792  0  4.010845  0  0  0.087181  0  4.031796  0  0  0.112493  0.086517  0  3.996369  0
C  C66  1  0.78928470  0.20570699  0.34812222  1  0  0.083524  0  3.769223  0  0  0.086894  0  4.01073  0  0  0.087285  0  4.031679  0  0  0.112493  0.086613  0  3.996249  0
C  C67  1  0.71071498  0.20570653  0.84812190  1  0  0.083436  0  3.769117  0  0  0.0868  0  4.010658  0  0  0.08719  0  4.031608  0  0  0.112462  0.086523  0  3.996171  0
C  C68  1  0.34721151  0.75131660  0.60532242  1  0  -0.112617  0  3.694593  0  0  -0.137251  0  3.949084  0  0  -0.142288  0  3.969397  0  0  -0.073923  -0.133467  0  3.935587  0
C  C69  1  0.15278856  0.75131605  0.10532031  1  0  -0.112573  0  3.694721  0  0  -0.137195  0  3.949157  0  0  -0.14223  0  3.969471  0  0  -0.073936  -0.133422  0  3.935674  0
C  C70  1  0.65278783  0.24868238  0.39467802  1  0  -0.112644  0  3.694613  0  0  -0.137285  0  3.949088  0  0  -0.142323  0  3.969401  0  0  -0.073943  -0.133505  0  3.935589  0
C  C71  1  0.84721078  0.24868292  0.89467795  1  0  -0.112497  0  3.694631  0  0  -0.137172  0  3.949112  0  0  -0.142208  0  3.969427  0  0  -0.073922  -0.13339  0  3.93561  0
C  C72  1  0.36752597  0.63197410  0.56500063  1  0  0.011155  0  3.709466  0  0  -0.010402  0  3.969309  0  0  -0.006663  0  3.985934  0  0  -0.058076  -0.013021  0  3.957694  0
C  C73  1  0.13247275  0.63197266  0.06499827  1  0  0.011194  0  3.709424  0  0  -0.010396  0  3.969308  0  0  -0.006658  0  3.985935  0  0  -0.058021  -0.013016  0  3.957703  0
C  C74  1  0.63247336  0.36802661  0.43500032  1  0  0.011204  0  3.709411  0  0  -0.010353  0  3.969268  0  0  -0.006614  0  3.985894  0  0  -0.058054  -0.012975  0  3.957662  0
C  C75  1  0.86752546  0.36802544  0.93499974  1  0  0.011126  0  3.709471  0  0  -0.010428  0  3.969334  0  0  -0.006689  0  3.98596  0  0  -0.058062  -0.013047  0  3.957725  0
C  C76  1  0.25050564  0.55988668  0.57267365  1  0  -0.089486  0  3.690103  0  0  -0.107279  0  3.949231  0  0  -0.112221  0  3.967448  0  0  -0.069286  -0.103754  0  3.936804  0
C  C77  1  0.24949293  0.55988537  0.07267056  1  0  -0.089449  0  3.690095  0  0  -0.107275  0  3.949223  0  0  -0.112217  0  3.967439  0  0  -0.069324  -0.103749  0  3.936795  0
C  C78  1  0.74949482  0.44011402  0.42732803  1  0  -0.089477  0  3.690165  0  0  -0.107301  0  3.949295  0  0  -0.112243  0  3.967512  0  0  -0.069318  -0.103785  0  3.936889  0
C  C79  1  0.75050528  0.44011360  0.92732698  1  0  -0.089495  0  3.690105  0  0  -0.107303  0  3.949245  0  0  -0.112246  0  3.967462  0  0  -0.069308  -0.103787  0  3.936841  0
C  C80  1  0.11801560  0.60941534  0.62133790  1  0  0.138063  0  3.668362  0  0  0.106558  0  3.921445  0  0  0.113154  0  3.93811  0  0  0.056345  0.102086  0  3.910008  0
C  C81  1  0.38198303  0.60941417  0.12133480  1  0  0.138063  0  3.668267  0  0  0.106596  0  3.921363  0  0  0.11319  0  3.938025  0  0  0.056384  0.102126  0  3.90992  0
C  C82  1  0.88198373  0.39058537  0.37866450  1  0  0.138067  0  3.668364  0  0  0.106568  0  3.921498  0  0  0.113164  0  3.938162  0  0  0.05635  0.102094  0  3.91007  0
C  C83  1  0.61801631  0.39058480  0.87866273  1  0  0.138048  0  3.668365  0  0  0.106558  0  3.921439  0  0  0.113153  0  3.938103  0  0  0.056345  0.102085  0  3.91001  0
C  C84  1  0.67714199  0.59381439  0.70774948  1  0  0.596208  0  3.957467  0  0  0.546965  0  4.25736  0  0  0.579969  0  4.248988  0  0  0.207431  0.524715  0  4.26217  0
C  C85  1  0.82285862  0.59381576  0.20774933  1  0  0.596319  0  3.957274  0  0  0.547055  0  4.25715  0  0  0.580058  0  4.248778  0  0  0.207454  0.524807  0  4.261973  0
C  C86  1  0.32285959  0.40618545  0.29225195  1  0  0.596279  0  3.957435  0  0  0.547008  0  4.257339  0  0  0.580012  0  4.248962  0  0  0.207418  0.524756  0  4.262157  0
C  C87  1  0.17714072  0.40618668  0.79225069  1  0  0.596248  0  3.957553  0  0  0.547006  0  4.257441  0  0  0.58001  0  4.249068  0  0  0.207446  0.524761  0  4.26225  0
C  C88  1  0.57305200  0.67940071  0.78127019  1  0  0.083297  0  3.775042  0  0  0.089381  0  4.007155  0  0  0.090217  0  4.027858  0  0  0.112604  0.088209  0  3.993133  0
C  C89  1  0.92694984  0.67940133  0.28127051  1  0  0.083192  0  3.775001  0  0  0.089336  0  4.007029  0  0  0.090172  0  4.027732  0  0  0.112583  0.088159  0  3.993012  0
C  C90  1  0.42694845  0.32059913  0.21872905  1  0  0.083275  0  3.775029  0  0  0.089374  0  4.007134  0  0  0.09021  0  4.027839  0  0  0.112596  0.088201  0  3.993104  0
C  C91  1  0.07305286  0.32059851  0.71872946  1  0  0.083266  0  3.774986  0  0  0.089367  0  4.007091  0  0  0.090203  0  4.027794  0  0  0.112594  0.088191  0  3.993071  0
C  C92  1  0.43940762  0.64228374  0.81250382  1  0  -0.108984  0  3.702691  0  0  -0.129662  0  3.949156  0  0  -0.134981  0  3.969414  0  0  -0.073914  -0.126739  0  3.936851  0
C  C93  1  0.06059316  0.64228396  0.31250343  1  0  -0.108929  0  3.702716  0  0  -0.129632  0  3.949164  0  0  -0.134952  0  3.969425  0  0  -0.073913  -0.126711  0  3.936866  0
C  C94  1  0.56059284  0.35771783  0.18749739  1  0  -0.109057  0  3.702791  0  0  -0.129727  0  3.949232  0  0  -0.135051  0  3.969492  0  0  -0.073941  -0.12681  0  3.93693  0
C  C95  1  0.93940842  0.35771588  0.68749582  1  0  -0.109058  0  3.702708  0  0  -0.129754  0  3.949178  0  0  -0.135074  0  3.969436  0  0  -0.073935  -0.12683  0  3.936875  0
C  C96  1  0.34545361  0.72376636  0.87930856  1  0  0.006446  0  3.69673  0  0  -0.014423  0  3.946066  0  0  -0.010761  0  3.964502  0  0  -0.064329  -0.017004  0  3.932864  0
C  C97  1  0.15454841  0.72376581  0.37930790  1  0  0.006421  0  3.696772  0  0  -0.014457  0  3.946129  0  0  -0.010795  0  3.964564  0  0  -0.064362  -0.017043  0  3.932927  0
C  C98  1  0.65454797  0.27623608  0.12069290  1  0  0.006469  0  3.69686  0  0  -0.014408  0  3.946193  0  0  -0.010747  0  3.96463  0  0  -0.06437  -0.016992  0  3.932988  0
C  C99  1  0.84545541  0.27623316  0.62069109  1  0  0.006466  0  3.696718  0  0  -0.014386  0  3.946037  0  0  -0.010723  0  3.964471  0  0  -0.064335  -0.016965  0  3.932823  0
C  C100  1  0.38881653  0.83983465  0.91291281  1  0  -0.125774  0  3.718933  0  0  -0.138759  0  3.974483  0  0  -0.145549  0  3.994938  0  0  -0.083291  -0.13385  0  3.960521  0
C  C101  1  0.11118570  0.83983493  0.41291314  1  0  -0.125757  0  3.718891  0  0  -0.138763  0  3.974418  0  0  -0.145555  0  3.994872  0  0  -0.083298  -0.133853  0  3.960455  0
C  C102  1  0.61118505  0.16016692  0.08708694  1  0  -0.125795  0  3.718867  0  0  -0.138775  0  3.97441  0  0  -0.145566  0  3.994864  0  0  -0.083301  -0.133871  0  3.960458  0
C  C103  1  0.88881812  0.16016491  0.58708683  1  0  -0.125795  0  3.718955  0  0  -0.138774  0  3.974492  0  0  -0.145564  0  3.994944  0  0  -0.083276  -0.133862  0  3.960519  0
C  C104  1  0.52405825  0.87007632  0.87806069  1  0  0.137785  0  3.707813  0  0  0.102969  0  3.966209  0  0  0.110297  0  3.982942  0  0  0.050386  0.099065  0  3.953583  0
C  C105  1  0.97594503  0.87007612  0.37806148  1  0  0.13776  0  3.70776  0  0  0.102963  0  3.966175  0  0  0.110291  0  3.982908  0  0  0.0504  0.099047  0  3.953558  0
C  C106  1  0.47594333  0.12992438  0.12193881  1  0  0.137738  0  3.70792  0  0  0.102904  0  3.966331  0  0  0.11023  0  3.983066  0  0  0.050361  0.098988  0  3.953724  0
C  C107  1  0.02405879  0.12992285  0.62193969  1  0  0.137722  0  3.707837  0  0  0.102948  0  3.966233  0  0  0.110275  0  3.982966  0  0  0.050364  0.09904  0  3.953603  0
C  C108  1  0.78899808  0.83736715  0.60666499  1  0  -0.680528  0  3.504774  0  0  -0.732139  0  3.747239  0  0  -0.747954  0  3.754869  0  0  -0.32496  -0.72077  0  3.742858  0
C  C109  1  0.71100087  0.83736840  0.10666484  1  0  -0.680471  0  3.504763  0  0  -0.73207  0  3.747232  0  0  -0.747883  0  3.754863  0  0  -0.324935  -0.720706  0  3.742863  0
C  C110  1  0.21100013  0.16263268  0.39333571  1  0  -0.680535  0  3.504803  0  0  -0.732147  0  3.747278  0  0  -0.747961  0  3.754908  0  0  -0.324977  -0.720779  0  3.742904  0
C  C111  1  0.28899959  0.16263144  0.89333585  1  0  -0.6805  0  3.50479  0  0  -0.732103  0  3.747248  0  0  -0.747916  0  3.754879  0  0  -0.324939  -0.720735  0  3.742871  0
C  C112  1  0.95538790  0.82595410  0.89202341  1  0  -0.674674  0  3.478292  0  0  -0.726255  0  3.71519  0  0  -0.741969  0  3.721841  0  0  -0.320932  -0.714675  0  3.710731  0
C  C113  1  0.54461191  0.82595344  0.39202348  1  0  -0.674666  0  3.478299  0  0  -0.726236  0  3.715206  0  0  -0.741946  0  3.721854  0  0  -0.320934  -0.714652  0  3.710744  0
C  C114  1  0.04461032  0.17404573  0.10797657  1  0  -0.67463  0  3.478268  0  0  -0.726216  0  3.715179  0  0  -0.741931  0  3.721831  0  0  -0.320925  -0.714636  0  3.710724  0
C  C115  1  0.45538630  0.17404640  0.60797722  1  0  -0.674714  0  3.478349  0  0  -0.726291  0  3.715259  0  0  -0.742002  0  3.721905  0  0  -0.320963  -0.714707  0  3.710798  0
N  N116  1  0.09831472  0.72470194  0.66059936  1  0  -0.332304  0  3.220445  0  0  -0.260127  0  3.454091  0  0  -0.2767  0  3.476733  0  0  -0.281216  -0.247861  0  3.43828  0
N  N117  1  0.40168524  0.72470166  0.16059725  1  0  -0.332245  0  3.220427  0  0  -0.260093  0  3.454035  0  0  -0.276665  0  3.476675  0  0  -0.281228  -0.247826  0  3.438217  0
N  N118  1  0.90168461  0.27529790  0.33940206  1  0  -0.332247  0  3.220357  0  0  -0.260083  0  3.453966  0  0  -0.276656  0  3.476605  0  0  -0.281205  -0.247817  0  3.438152  0
N  N119  1  0.59831522  0.27529731  0.83940102  1  0  -0.332218  0  3.220381  0  0  -0.260071  0  3.453998  0  0  -0.276643  0  3.476638  0  0  -0.281205  -0.247803  0  3.438178  0
N  N120  1  0.61466389  0.79147332  0.81346132  1  0  -0.341825  0  3.254334  0  0  -0.269732  0  3.491902  0  0  -0.286354  0  3.513706  0  0  -0.28636  -0.2571  0  3.475161  0
N  N121  1  0.88533703  0.79147390  0.31346309  1  0  -0.34178  0  3.254248  0  0  -0.269687  0  3.491771  0  0  -0.286309  0  3.513574  0  0  -0.286352  -0.257056  0  3.475034  0
N  N122  1  0.38533544  0.20852651  0.18653720  1  0  -0.341758  0  3.254299  0  0  -0.26967  0  3.491871  0  0  -0.28629  0  3.513672  0  0  -0.286329  -0.25704  0  3.475132  0
N  N123  1  0.11466567  0.20852594  0.68653833  1  0  -0.341773  0  3.254235  0  0  -0.269691  0  3.491796  0  0  -0.286314  0  3.5136  0  0  -0.286356  -0.257059  0  3.475055  0
O  O124  1  0.06430624  0.95856531  0.74536442  1  0  -0.598719  0  2.031841  0  0  -0.537055  0  2.270672  0  0  -0.563066  0  2.265112  0  0  -0.277135  -0.519032  0  2.274166  0
O  O125  1  0.43569413  0.95856420  0.24536350  1  0  -0.598691  0  2.031816  0  0  -0.53703  0  2.270661  0  0  -0.563038  0  2.265094  0  0  -0.277123  -0.519006  0  2.274154  0
O  O126  1  0.93569309  0.04143799  0.25463512  1  0  -0.598775  0  2.031734  0  0  -0.537122  0  2.270578  0  0  -0.563135  0  2.265023  0  0  -0.277178  -0.519104  0  2.274076  0
O  O127  1  0.56430408  0.04143563  0.75463574  1  0  -0.598729  0  2.031768  0  0  -0.537074  0  2.270624  0  0  -0.56309  0  2.265077  0  0  -0.277153  -0.519055  0  2.274119  0
O  O128  1  0.27938505  0.98576614  0.66896003  1  0  -0.613206  0  2.050545  0  0  -0.545105  0  2.294005  0  0  -0.571297  0  2.285631  0  0  -0.283635  -0.526506  0  2.299543  0
O  O129  1  0.22061657  0.98576740  0.16895988  1  0  -0.613218  0  2.050596  0  0  -0.545095  0  2.294038  0  0  -0.571289  0  2.28566  0  0  -0.283647  -0.526499  0  2.299601  0
O  O130  1  0.72061541  0.01423543  0.33104191  1  0  -0.613177  0  2.050577  0  0  -0.545067  0  2.294034  0  0  -0.571261  0  2.285672  0  0  -0.283627  -0.526477  0  2.299578  0
O  O131  1  0.77938388  0.01423331  0.83104035  1  0  -0.61323  0  2.05055  0  0  -0.545128  0  2.294029  0  0  -0.571315  0  2.285647  0  0  -0.283651  -0.526539  0  2.299573  0
O  O132  1  0.80466732  0.63468174  0.69022524  1  0  -0.641559  0  2.071724  0  0  -0.573001  0  2.317715  0  0  -0.600766  0  2.309904  0  0  -0.292547  -0.553448  0  2.322293  0
O  O133  1  0.69533451  0.63468297  0.19022219  1  0  -0.641613  0  2.071659  0  0  -0.573042  0  2.317653  0  0  -0.600811  0  2.309843  0  0  -0.292594  -0.553486  0  2.322218  0
O  O134  1  0.19532977  0.36531810  0.30977400  1  0  -0.641635  0  2.071732  0  0  -0.573029  0  2.317699  0  0  -0.6008  0  2.309889  0  0  -0.292598  -0.553465  0  2.322239  0
O  O135  1  0.30466483  0.36531774  0.80977948  1  0  -0.641565  0  2.0717  0  0  -0.573023  0  2.31771  0  0  -0.600792  0  2.309899  0  0  -0.292578  -0.553462  0  2.322267  0
O  O136  1  0.63530016  0.49146845  0.66914582  1  0  -0.575232  0  1.924004  0  0  -0.537209  0  2.152053  0  0  -0.559174  0  2.146135  0  0  -0.309631  -0.52215  0  2.155707  0
O  O137  1  0.86469803  0.49146986  0.16914640  1  0  -0.575292  0  1.92399  0  0  -0.53727  0  2.152048  0  0  -0.559222  0  2.146106  0  0  -0.309621  -0.522212  0  2.155706  0
O  O138  1  0.36469918  0.50852879  0.33085556  1  0  -0.575261  0  1.92408  0  0  -0.537231  0  2.152142  0  0  -0.559192  0  2.146214  0  0  -0.309585  -0.522185  0  2.155803  0
O  O139  1  0.13530131  0.50852997  0.83085212  1  0  -0.57523  0  1.92408  0  0  -0.537207  0  2.152135  0  0  -0.559165  0  2.146202  0  0  -0.309605  -0.522154  0  2.155792  0
