# generated using pymatgen
data_AgPH16C20NO2F3
_symmetry_space_group_name_H-M   'P 1'
_cell_length_a   7.63204938
_cell_length_b   10.37894944
_cell_length_c   27.08051262
_cell_angle_alpha   90.00103713
_cell_angle_beta   90.00115704
_cell_angle_gamma   100.25287791
_symmetry_Int_Tables_number   1
_chemical_formula_structural   AgPH16C20NO2F3
_chemical_formula_sum   'Ag4 P4 H64 C80 N4 O8 F12'
_cell_volume   2110.86551072
_cell_formula_units_Z   4
loop_
 _symmetry_equiv_pos_site_id
 _symmetry_equiv_pos_as_xyz
  1  'x, y, z'
loop_
 _atom_site_type_symbol
 _atom_site_label
 _atom_site_symmetry_multiplicity
 _atom_site_fract_x
 _atom_site_fract_y
 _atom_site_fract_z
 _atom_site_occupancy
 _atom_site_pbe_bader_charge
 _atom_site_pbe_bader_spin_density
 _atom_site_pbe_cm5_charge
 _atom_site_pbe_ddec_charge
 _atom_site_pbe_ddec_spin_density
 _atom_site_pbe_ddec_sum_bond_order
 _atom_site_pbe_magmom
Ag  Ag0  1  0.86448727  0.48992315  0.45864429  1  0.405648  0  0.436902  0.214901  0  2.214338  0
Ag  Ag1  1  0.13550214  0.01009287  0.95864328  1  0.405149  0  0.43691  0.214927  0  2.21439  0
Ag  Ag2  1  0.13551276  0.51007771  0.54135528  1  0.40525  0  0.436917  0.214879  0  2.214317  0
Ag  Ag3  1  0.86447900  0.98991158  0.04135703  1  0.405491  0  0.436912  0.214964  0  2.214227  0
P  P4  1  0.80451806  0.32760821  0.39718128  1  1.378602  0  -0.01356  0.284954  0  4.175648  0
P  P5  1  0.19548060  0.17239860  0.89718210  1  1.379082  0  -0.013541  0.285004  0  4.175669  0
P  P6  1  0.19548502  0.67239464  0.60281829  1  1.378668  0  -0.013564  0.285031  0  4.17553  0
P  P7  1  0.80451023  0.82760211  0.10281894  1  1.37915  0  -0.01355  0.28491  0  4.175628  0
H  H8  1  0.65967178  0.44445089  0.33725405  1  0.106492  0  0.115707  0.160652  0  0.963577  0
H  H9  1  0.34029893  0.05553156  0.83725747  1  0.106127  0  0.115684  0.160535  0  0.963723  0
H  H10  1  0.34031849  0.55554103  0.66274293  1  0.106368  0  0.115699  0.160638  0  0.963628  0
H  H11  1  0.65968060  0.94445921  0.16274321  1  0.106283  0  0.115691  0.160597  0  0.963599  0
H  H12  1  0.55930182  0.27467086  0.33778234  1  0.064785  0  0.104444  0.133563  0  1.002299  0
H  H13  1  0.44068278  0.22530892  0.83778049  1  0.063547  0  0.104478  0.133504  0  1.002406  0
H  H14  1  0.44069329  0.72531919  0.66222019  1  0.063413  0  0.104477  0.133565  0  1.00242  0
H  H15  1  0.55930291  0.77468000  0.16221723  1  0.063457  0  0.10446  0.133493  0  1.002447  0
H  H16  1  0.54430084  0.60091144  0.38669424  1  0.127846  0  0.110187  0.136659  0  1.017669  0
H  H17  1  0.45567809  0.89907686  0.88669553  1  0.127615  0  0.11016  0.136698  0  1.017698  0
H  H18  1  0.45569378  0.39908250  0.61330459  1  0.127732  0  0.110181  0.136675  0  1.017599  0
H  H19  1  0.54431654  0.10091708  0.11330293  1  0.127735  0  0.110166  0.136714  0  1.017612  0
H  H20  1  0.32636340  0.64952249  0.45042080  1  0.110146  0  0.113114  0.086993  0  1.015772  0
H  H21  1  0.67363174  0.85047068  0.95042077  1  0.110138  0  0.113098  0.087055  0  1.015767  0
H  H22  1  0.67364521  0.35047558  0.54958098  1  0.11009  0  0.113092  0.086993  0  1.015723  0
H  H23  1  0.32636372  0.14952718  0.04957879  1  0.11014  0  0.113086  0.087027  0  1.015811  0
H  H24  1  0.15775754  0.25571452  0.47973339  1  0.111804  0  0.115606  0.090937  0  1.015825  0
H  H25  1  0.84225518  0.24428064  0.97973322  1  0.111758  0  0.115659  0.091038  0  1.015828  0
H  H26  1  0.84224076  0.74428436  0.52026691  1  0.111812  0  0.115628  0.090987  0  1.01576  0
H  H27  1  0.15773149  0.75571902  0.02026451  1  0.111806  0  0.115642  0.091009  0  1.015743  0
H  H28  1  0.35972882  0.19031258  0.41512935  1  0.078593  0  0.106056  0.121131  0  1.009246  0
H  H29  1  0.64027703  0.30967879  0.91512774  1  0.078735  0  0.106022  0.121087  0  1.009163  0
H  H30  1  0.64027079  0.80968632  0.58487133  1  0.078625  0  0.10607  0.121154  0  1.009231  0
H  H31  1  0.35970728  0.69031596  0.08486887  1  0.078809  0  0.106037  0.121046  0  1.009204  0
H  H32  1  0.83123653  0.20224854  0.49238924  1  0.126922  0  0.093819  0.094877  0  1.077735  0
H  H33  1  0.16877530  0.29776879  0.99238635  1  0.127147  0  0.09393  0.095108  0  1.0776  0
H  H34  1  0.16876461  0.79775136  0.50761144  1  0.126981  0  0.093836  0.094906  0  1.077713  0
H  H35  1  0.83122874  0.70222627  0.00761285  1  0.127162  0  0.093945  0.095056  0  1.077582  0
H  H36  1  0.75770149  0.97366907  0.52041149  1  0.059716  0  0.097601  0.100565  0  1.022756  0
H  H37  1  0.24231881  0.52635070  0.02041018  1  0.058986  0  0.097532  0.100454  0  1.022763  0
H  H38  1  0.24229175  0.02633070  0.47958771  1  0.059671  0  0.09758  0.100541  0  1.022749  0
H  H39  1  0.75769270  0.47364254  0.97959087  1  0.058923  0  0.097563  0.100521  0  1.022704  0
H  H40  1  0.62410430  0.79687278  0.46187283  1  0.047938  0  0.098201  0.089751  0  1.029757  0
H  H41  1  0.37591684  0.70314000  0.96187341  1  0.047687  0  0.098177  0.089794  0  1.029762  0
H  H42  1  0.37589421  0.20312708  0.53812563  1  0.047872  0  0.098205  0.089799  0  1.029794  0
H  H43  1  0.62408894  0.29685705  0.03812800  1  0.047664  0  0.098187  0.089801  0  1.029688  0
H  H44  1  0.56152299  0.85315441  0.37514073  1  0.103616  0  0.100049  0.104714  0  1.008871  0
H  H45  1  0.43849179  0.64685235  0.87514091  1  0.104257  0  0.100065  0.104662  0  1.008917  0
H  H46  1  0.43850072  0.14684683  0.62485477  1  0.104197  0  0.100083  0.104735  0  1.008892  0
H  H47  1  0.56148955  0.35315309  0.12485755  1  0.1041  0  0.100068  0.104653  0  1.008944  0
H  H48  1  0.63468523  0.08206342  0.34646451  1  0.044772  0  0.102365  0.099663  0  0.996076  0
H  H49  1  0.36532442  0.41793872  0.84646394  1  0.04495  0  0.102351  0.099683  0  0.996108  0
H  H50  1  0.36535183  0.91793901  0.65353358  1  0.04503  0  0.102326  0.099709  0  0.996035  0
H  H51  1  0.63464903  0.58206658  0.15353452  1  0.045228  0  0.102369  0.099771  0  0.995894  0
H  H52  1  0.98323423  0.11610921  0.35641188  1  0.065119  0  0.091214  0.090624  0  1.069023  0
H  H53  1  0.01676244  0.38389622  0.85641464  1  0.065046  0  0.091202  0.09061  0  1.069091  0
H  H54  1  0.01679128  0.88390669  0.64358362  1  0.064655  0  0.091146  0.090501  0  1.069261  0
H  H55  1  0.98321682  0.61609943  0.14358715  1  0.064874  0  0.091165  0.090555  0  1.069037  0
H  H56  1  0.22376944  0.12064609  0.29598179  1  0.059809  0  0.095027  0.088236  0  1.029612  0
H  H57  1  0.77621130  0.37935466  0.79598587  1  0.05968  0  0.094969  0.088142  0  1.029617  0
H  H58  1  0.77625636  0.87938347  0.70401261  1  0.059617  0  0.094934  0.088154  0  1.02977  0
H  H59  1  0.22376013  0.62063501  0.20401665  1  0.059722  0  0.095032  0.088265  0  1.0297  0
H  H60  1  0.35907392  0.33104479  0.25487807  1  0.057099  0  0.100094  0.096764  0  0.99319  0
H  H61  1  0.64090392  0.16895649  0.75487696  1  0.05677  0  0.100055  0.096755  0  0.993164  0
H  H62  1  0.64093009  0.66899320  0.74512224  1  0.056887  0  0.100022  0.096734  0  0.993045  0
H  H63  1  0.35909188  0.83103064  0.24512334  1  0.056813  0  0.100039  0.096767  0  0.993051  0
H  H64  1  0.24970150  0.53662361  0.27690464  1  0.067546  0  0.09944  0.095197  0  1.013435  0
H  H65  1  0.75028573  0.96338003  0.77690030  1  0.067818  0  0.099427  0.095182  0  1.013487  0
H  H66  1  0.75028270  0.46340138  0.72309677  1  0.067803  0  0.099418  0.095103  0  1.013322  0
H  H67  1  0.24972731  0.03661421  0.22309779  1  0.067847  0  0.09943  0.095181  0  1.01355  0
H  H68  1  0.00371814  0.53123918  0.33648035  1  0.104497  0  0.098057  0.105062  0  1.047639  0
H  H69  1  0.99627532  0.96876698  0.83647780  1  0.104612  0  0.098095  0.105174  0  1.047555  0
H  H70  1  0.99625726  0.46876909  0.66351885  1  0.104722  0  0.098108  0.105254  0  1.047422  0
H  H71  1  0.00374070  0.03123511  0.16352213  1  0.104664  0  0.098107  0.105186  0  1.047558  0
C  C72  1  0.60935786  0.36012966  0.36091011  1  -0.421346  0  -0.158781  -0.354913  0  3.88656  0
C  C73  1  0.39062402  0.13986018  0.86090997  1  -0.419834  0  -0.158805  -0.354814  0  3.886625  0
C  C74  1  0.39063981  0.63986628  0.63908983  1  -0.419849  0  -0.158776  -0.35486  0  3.886589  0
C  C75  1  0.60935966  0.86013164  0.13908849  1  -0.419996  0  -0.158757  -0.354776  0  3.886616  0
C  C76  1  0.47117670  0.39135604  0.39595052  1  -0.040674  0  0.011907  0.188074  0  3.97163  0
C  C77  1  0.52882072  0.10863312  0.89595094  1  -0.04069  0  0.011912  0.188189  0  3.971538  0
C  C78  1  0.52882602  0.60863901  0.60404905  1  -0.040674  0  0.011882  0.188062  0  3.971845  0
C  C79  1  0.47116844  0.89135975  0.10404899  1  -0.040856  0  0.011936  0.188207  0  3.971497  0
C  C80  1  0.45867995  0.52186191  0.40612578  1  0.008756  0  -0.086376  -0.187498  0  3.931869  0
C  C81  1  0.54131201  0.97813161  0.90612404  1  0.008538  0  -0.086426  -0.18762  0  3.931848  0
C  C82  1  0.54132098  0.47813701  0.59387416  1  0.00893  0  -0.086352  -0.187513  0  3.931858  0
C  C83  1  0.45868019  0.02186327  0.09387405  1  0.008657  0  -0.086384  -0.187627  0  3.93191  0
C  C84  1  0.34158486  0.54938007  0.44217471  1  0.432351  0  0.037692  0.086492  0  3.949269  0
C  C85  1  0.65841526  0.95061466  0.94217493  1  0.433159  0  0.03778  0.086397  0  3.949156  0
C  C86  1  0.65842417  0.45061996  0.55782559  1  0.432577  0  0.037762  0.086485  0  3.949225  0
C  C87  1  0.34158041  0.04938417  0.05782464  1  0.432771  0  0.037772  0.086439  0  3.949429  0
C  C88  1  0.24608530  0.32878767  0.45814236  1  0.431499  0  0.036445  0.076419  0  3.955952  0
C  C89  1  0.75392626  0.17120332  0.95814191  1  0.431582  0  0.036489  0.076269  0  3.956211  0
C  C90  1  0.75391763  0.67120836  0.54185832  1  0.431552  0  0.036435  0.076328  0  3.956018  0
C  C91  1  0.24606588  0.82879741  0.04185618  1  0.431262  0  0.03648  0.07639  0  3.956209  0
C  C92  1  0.35858970  0.29346438  0.42220786  1  0.018016  0  -0.084224  -0.178754  0  3.928954  0
C  C93  1  0.64140867  0.20652629  0.92220628  1  0.018147  0  -0.084217  -0.178702  0  3.928793  0
C  C94  1  0.64140950  0.70653256  0.57779282  1  0.018063  0  -0.084236  -0.17877  0  3.929026  0
C  C95  1  0.35857301  0.79346841  0.07778960  1  0.018367  0  -0.084238  -0.17871  0  3.928764  0
C  C96  1  0.73884532  0.15856219  0.41734261  1  -0.504715  0  -0.030939  -0.06639  0  3.99705  0
C  C97  1  0.26116933  0.34144505  0.91734239  1  -0.505138  0  -0.030953  -0.06609  0  3.996814  0
C  C98  1  0.26117312  0.84143897  0.58265807  1  -0.504747  0  -0.031048  -0.066399  0  3.997225  0
C  C99  1  0.73882939  0.65855578  0.08265755  1  -0.505056  0  -0.030896  -0.066053  0  3.996791  0
C  C100  1  0.77225591  0.12644388  0.46632726  1  -0.09982  0  -0.087262  -0.100446  0  3.97364  0
C  C101  1  0.22776178  0.37357304  0.96632597  1  -0.099592  0  -0.087364  -0.100858  0  3.973822  0
C  C102  1  0.22775201  0.87355711  0.53367231  1  -0.099597  0  -0.087251  -0.1005  0  3.973524  0
C  C103  1  0.77224026  0.62642492  0.03367470  1  -0.099201  0  -0.087441  -0.10078  0  3.973834  0
C  C104  1  0.73066654  0.99653231  0.48222536  1  -0.002431  0  -0.0893  -0.069933  0  3.978102  0
C  C105  1  0.26935524  0.50348262  0.98222469  1  -0.001334  0  -0.089309  -0.069754  0  3.977985  0
C  C106  1  0.26933307  0.00346659  0.51777384  1  -0.002543  0  -0.089272  -0.069826  0  3.978347  0
C  C107  1  0.73065400  0.49651839  0.01777636  1  -0.001565  0  -0.08935  -0.069912  0  3.978  0
C  C108  1  0.65527235  0.89831911  0.44954484  1  -0.042909  0  -0.085502  -0.062892  0  3.977695  0
C  C109  1  0.34474703  0.60169586  0.94954492  1  -0.042961  0  -0.085475  -0.063074  0  3.977593  0
C  C110  1  0.34472899  0.10168176  0.55045177  1  -0.042793  0  -0.085554  -0.063107  0  3.977892  0
C  C111  1  0.65525127  0.39830302  0.05045465  1  -0.043103  0  -0.085501  -0.063082  0  3.977345  0
C  C112  1  0.61977499  0.92965456  0.40080095  1  0.001879  0  -0.090788  -0.078763  0  3.996704  0
C  C113  1  0.38024352  0.57035469  0.90080100  1  0.001226  0  -0.090731  -0.078484  0  3.996471  0
C  C114  1  0.38024386  0.07034855  0.59919678  1  0.001311  0  -0.090723  -0.078575  0  3.996426  0
C  C115  1  0.61975035  0.42964802  0.09919857  1  0.001361  0  -0.090716  -0.07846  0  3.996479  0
C  C116  1  0.66103134  0.05908567  0.38478542  1  -0.083744  0  -0.086018  -0.093782  0  3.986182  0
C  C117  1  0.33898272  0.44091776  0.88478523  1  -0.084083  0  -0.086017  -0.094009  0  3.986136  0
C  C118  1  0.33898863  0.94091649  0.61521304  1  -0.084164  0  -0.086017  -0.09397  0  3.986192  0
C  C119  1  0.66100222  0.55907993  0.11521471  1  -0.08442  0  -0.086048  -0.094118  0  3.985899  0
C  C120  1  0.97470262  0.32278252  0.35014423  1  -0.525758  0  -0.028506  -0.053554  0  3.966379  0
C  C121  1  0.02529046  0.17722054  0.85014412  1  -0.525487  0  -0.028564  -0.053674  0  3.966444  0
C  C122  1  0.02529603  0.67722417  0.64985423  1  -0.525539  0  -0.028495  -0.053549  0  3.966388  0
C  C123  1  0.97470521  0.82277829  0.14985618  1  -0.525464  0  -0.028421  -0.053439  0  3.966505  0
C  C124  1  0.03872486  0.20804650  0.33854871  1  0.058373  0  -0.091447  -0.096761  0  3.99027  0
C  C125  1  0.96126543  0.29195975  0.83854991  1  0.058305  0  -0.091361  -0.096793  0  3.990199  0
C  C126  1  0.96129013  0.79196923  0.66144864  1  0.059136  0  -0.091249  -0.096594  0  3.990209  0
C  C127  1  0.03871488  0.70804078  0.16145114  1  0.058875  0  -0.091351  -0.096666  0  3.990116  0
C  C128  1  0.17611855  0.21122605  0.30431748  1  -0.033986  0  -0.095375  -0.08489  0  4.017155  0
C  C129  1  0.82386575  0.28877620  0.80431788  1  -0.034234  0  -0.09527  -0.084527  0  4.01712  0
C  C130  1  0.82389348  0.78880036  0.69567987  1  -0.03422  0  -0.095342  -0.084743  0  4.017426  0
C  C131  1  0.17611752  0.71121365  0.19568316  1  -0.034689  0  -0.095402  -0.084895  0  4.017262  0
C  C132  1  0.25177262  0.32872319  0.28166196  1  -0.066124  0  -0.091709  -0.080991  0  4.01715  0
C  C133  1  0.74821099  0.17128362  0.78166296  1  -0.066383  0  -0.09176  -0.081199  0  4.017398  0
C  C134  1  0.74822647  0.67130399  0.71833613  1  -0.066763  0  -0.091714  -0.081105  0  4.017348  0
C  C135  1  0.25178052  0.82871418  0.21833735  1  -0.066339  0  -0.09173  -0.081068  0  4.017451  0
C  C136  1  0.18962889  0.44365372  0.29357333  1  -0.052295  0  -0.090534  -0.072898  0  4.002454  0
C  C137  1  0.81035885  0.05634993  0.79357056  1  -0.052126  0  -0.090403  -0.072695  0  4.002162  0
C  C138  1  0.81035379  0.55637027  0.70642550  1  -0.051896  0  -0.090424  -0.072591  0  4.002183  0
C  C139  1  0.18965134  0.94364329  0.20642864  1  -0.051741  0  -0.090417  -0.072732  0  4.00256  0
C  C140  1  0.05169502  0.44119905  0.32746741  1  -0.110414  0  -0.086577  -0.08993  0  3.950861  0
C  C141  1  0.94829937  0.05880567  0.82746655  1  -0.11027  0  -0.086684  -0.090137  0  3.950913  0
C  C142  1  0.94828557  0.55881515  0.67253104  1  -0.110562  0  -0.086723  -0.090334  0  3.950969  0
C  C143  1  0.05170903  0.94119142  0.17253338  1  -0.110732  0  -0.086748  -0.090281  0  3.951083  0
C  C144  1  0.96552743  0.73078435  0.39540104  1  1.693099  0  0.176987  0.406578  0  4.381166  0
C  C145  1  0.03448459  0.76921473  0.89540347  1  1.693291  0  0.177085  0.406705  0  4.381218  0
C  C146  1  0.03446859  0.26922229  0.60460185  1  1.692898  0  0.176855  0.406486  0  4.381008  0
C  C147  1  0.96551945  0.23078034  0.10460016  1  1.69309  0  0.176978  0.406602  0  4.38106  0
C  C148  1  0.09401000  0.84092394  0.36750620  1  1.658557  0  0.29377  0.585572  0  3.981393  0
C  C149  1  0.90599774  0.65906471  0.86751244  1  1.65839  0  0.293791  0.585981  0  3.981236  0
C  C150  1  0.90598650  0.15907881  0.63249484  1  1.659023  0  0.293732  0.585558  0  3.98131  0
C  C151  1  0.09402054  0.34091108  0.13249414  1  1.658136  0  0.293761  0.585683  0  3.981354  0
N  N152  1  0.23876990  0.45470144  0.46870203  1  -1.222874  0  -0.357782  -0.205069  0  3.613372  0
N  N153  1  0.76123703  0.04529495  0.96870185  1  -1.223515  0  -0.357904  -0.205035  0  3.613782  0
N  N154  1  0.76123629  0.54529757  0.53129865  1  -1.223265  0  -0.357868  -0.205069  0  3.613603  0
N  N155  1  0.23875379  0.95470576  0.03129698  1  -1.223214  0  -0.357918  -0.205176  0  3.613961  0
O  O156  1  0.01500196  0.70920745  0.43888637  1  -1.15781  0  -0.333725  -0.502616  0  2.309472  0
O  O157  1  0.98501767  0.79080009  0.93888880  1  -1.158105  0  -0.333691  -0.502685  0  2.309643  0
O  O158  1  0.98500637  0.29079549  0.56111468  1  -1.157761  0  -0.333695  -0.502553  0  2.30944  0
O  O159  1  0.01497420  0.20920551  0.06111150  1  -1.157829  0  -0.333704  -0.50265  0  2.30938  0
O  O160  1  0.83696763  0.67269754  0.37082746  1  -1.171564  0  -0.328646  -0.527682  0  2.214324  0
O  O161  1  0.16303943  0.82729909  0.87082991  1  -1.171232  0  -0.328717  -0.527798  0  2.214364  0
O  O162  1  0.16302375  0.32731196  0.62917691  1  -1.171795  0  -0.328544  -0.527661  0  2.2142  0
O  O163  1  0.83696004  0.17269298  0.12917298  1  -1.171685  0  -0.328624  -0.52772  0  2.214314  0
F  F164  1  0.01634662  0.89135333  0.32859404  1  -0.626556  0  -0.101168  -0.198834  0  1.347346  0
F  F165  1  0.98365901  0.60862038  0.82860111  1  -0.62629  0  -0.101192  -0.199004  0  1.347179  0
F  F166  1  0.98365120  0.10864944  0.67140737  1  -0.626579  0  -0.101191  -0.19886  0  1.347322  0
F  F167  1  0.01638611  0.39134609  0.17141064  1  -0.626471  0  -0.101194  -0.198862  0  1.347345  0
F  F168  1  0.16504252  0.94427990  0.39700029  1  -0.636831  0  -0.104133  -0.211448  0  1.340811  0
F  F169  1  0.83496936  0.55572415  0.89701021  1  -0.636905  0  -0.104111  -0.211502  0  1.340945  0
F  F170  1  0.83496824  0.05572211  0.60300038  1  -0.636757  0  -0.104087  -0.211388  0  1.340881  0
F  F171  1  0.16506021  0.44426157  0.10300043  1  -0.636726  0  -0.104125  -0.211526  0  1.340786  0
F  F172  1  0.23541125  0.79021307  0.34878374  1  -0.623455  0  -0.112319  -0.220322  0  1.291975  0
F  F173  1  0.76459937  0.70976480  0.84878620  1  -0.623736  0  -0.112369  -0.220473  0  1.292051  0
F  F174  1  0.76458006  0.20978375  0.65121657  1  -0.623558  0  -0.112285  -0.220331  0  1.291941  0
F  F175  1  0.23542415  0.29019253  0.15121262  1  -0.623118  0  -0.11231  -0.220319  0  1.29201  0
