# generated using pymatgen
data_Zr3H8C36(O4F3)4
_symmetry_space_group_name_H-M   'P 1'
_cell_length_a   17.08903538
_cell_length_b   17.15595541
_cell_length_c   17.03756069
_cell_angle_alpha   59.96901534
_cell_angle_beta   60.35915974
_cell_angle_gamma   59.67159530
_symmetry_Int_Tables_number   1
_chemical_formula_structural   Zr3H8C36(O4F3)4
_chemical_formula_sum   'Zr6 H16 C72 O32 F24'
_cell_volume   3531.77176942
_cell_formula_units_Z   2
loop_
 _symmetry_equiv_pos_site_id
 _symmetry_equiv_pos_as_xyz
  1  'x, y, z'
loop_
 _atom_site_type_symbol
 _atom_site_label
 _atom_site_symmetry_multiplicity
 _atom_site_fract_x
 _atom_site_fract_y
 _atom_site_fract_z
 _atom_site_occupancy
 _atom_site_pbe_bader_charge
 _atom_site_pbe_bader_spin_density
 _atom_site_pbe_cm5_charge
 _atom_site_pbe_ddec_charge
 _atom_site_pbe_ddec_spin_density
 _atom_site_pbe_ddec_sum_bond_order
 _atom_site_pbe_magmom
Zr  Zr0  1  0.89569406  0.39568989  0.60430842  1  2.643591  0  1.61999  2.384932  0  2.667989  0
Zr  Zr1  1  0.10430088  0.60430496  0.39569564  1  2.642054  0  1.619946  2.384906  0  2.66809  0
Zr  Zr2  1  0.10248491  0.39751343  0.60248981  1  2.632204  0  1.64344  2.369767  0  2.832324  0
Zr  Zr3  1  0.89750874  0.60248481  0.39751429  1  2.633599  0  1.64341  2.369685  0  2.832351  0
Zr  Zr4  1  0.89646563  0.60352563  0.60353134  1  2.638039  0  1.631078  2.376327  0  2.751227  0
Zr  Zr5  1  0.10352564  0.39646555  0.39647507  1  2.633501  0  1.631061  2.376364  0  2.751137  0
H  H6  1  0.91930004  0.41840913  0.74439354  1  0.627197  0  0.331487  0.422757  0  0.858575  0
H  H7  1  0.91788845  0.74438875  0.41841034  1  0.595263  0  0.331484  0.422832  0  0.858471  0
H  H8  1  0.24438563  0.41789395  0.41930539  1  0.619273  0  0.331538  0.422873  0  0.858491  0
H  H9  1  0.91840843  0.41929901  0.41789781  1  0.616273  0  0.331521  0.422728  0  0.858323  0
H  H10  1  0.65615092  0.63932206  0.84022244  1  0.167627  0  0.125205  0.161209  0  0.970551  0
H  H11  1  0.34021943  0.36430324  0.15615420  1  0.119084  0  0.125186  0.161166  0  0.970591  0
H  H12  1  0.13931998  0.15615084  0.36430260  1  0.124019  0  0.125219  0.161226  0  0.970516  0
H  H13  1  0.86429449  0.84022497  0.63931886  1  0.17114  0  0.125169  0.161183  0  0.97062  0
H  H14  1  0.65726175  0.83975092  0.36329365  1  0.126044  0  0.122809  0.155579  0  0.977475  0
H  H15  1  0.33974510  0.15725578  0.63970656  1  0.141654  0  0.122818  0.155635  0  0.977487  0
H  H16  1  0.86329874  0.63969866  0.15725670  1  0.104659  0  0.122809  0.155559  0  0.977577  0
H  H17  1  0.13969987  0.36329630  0.83974798  1  0.146487  0  0.122804  0.155552  0  0.97756  0
H  H18  1  0.13880933  0.15633944  0.84043585  1  0.161663  0  0.121239  0.154425  0  0.978724  0
H  H19  1  0.86440981  0.84044037  0.15634765  1  0.113119  0  0.121238  0.154391  0  0.978733  0
H  H20  1  0.65634403  0.63880416  0.36441507  1  0.115058  0  0.121256  0.154444  0  0.978704  0
H  H21  1  0.34043751  0.36441298  0.63880147  1  0.163637  0  0.121257  0.154418  0  0.97871  0
C  C22  1  0.73407144  0.50637474  0.76018348  1  1.565058  0  0.238023  0.658577  0  4.080688  0
C  C23  1  0.99935967  0.76018404  0.50637453  1  1.575669  0  0.238107  0.658771  0  4.080252  0
C  C24  1  0.26018110  0.49936374  0.23407602  1  1.569415  0  0.238004  0.65857  0  4.080563  0
C  C25  1  0.00637658  0.23407319  0.49936335  1  1.581591  0  0.23801  0.658433  0  4.080605  0
C  C26  1  0.00531000  0.23464128  0.76033253  1  1.566112  0  0.238632  0.661094  0  4.089017  0
C  C27  1  0.73464210  0.50530363  0.49972151  1  1.578231  0  0.238701  0.661037  0  4.088867  0
C  C28  1  0.99970976  0.76033197  0.23464751  1  1.563934  0  0.238669  0.660981  0  4.089001  0
C  C29  1  0.26033061  0.49971537  0.50530715  1  1.574252  0  0.23879  0.661191  0  4.088866  0
C  C30  1  0.00562506  0.49879084  0.76063024  1  1.577472  0  0.236975  0.658446  0  4.100091  0
C  C31  1  0.26062100  0.23495020  0.50563596  1  1.572705  0  0.236931  0.658329  0  4.100203  0
C  C32  1  0.99878732  0.50562845  0.23495487  1  1.58371  0  0.236984  0.658444  0  4.100028  0
C  C33  1  0.73494887  0.76062077  0.49879054  1  1.573089  0  0.236978  0.658596  0  4.099824  0
C  C34  1  0.59628511  0.45124069  0.90043934  1  0.564978  0  0.116951  0.24928  0  3.991251  0
C  C35  1  0.61659725  0.58995404  0.88002894  1  0.064699  0  -0.093667  -0.210567  0  3.986281  0
C  C36  1  0.53848481  0.60201353  0.95952878  1  0.486368  0  0.100349  0.256413  0  4.06523  0
C  C37  1  0.48329340  0.54037129  0.01439617  1  0.05389  0  -0.012558  -0.106356  0  4.004535  0
C  C38  1  0.40043601  0.55203535  0.09628510  1  0.533993  0  0.116938  0.249141  0  3.991552  0
C  C39  1  0.38002772  0.41341677  0.11660089  1  0.126422  0  -0.093626  -0.210443  0  3.986162  0
C  C40  1  0.45952290  0.39997632  0.03848491  1  0.439991  0  0.100333  0.256339  0  4.065226  0
C  C41  1  0.51439187  0.46193960  0.98329633  1  0.036674  0  -0.01255  -0.106419  0  4.004445  0
C  C42  1  0.64750207  0.51382510  0.84803006  1  -0.012799  0  -0.022958  -0.131908  0  3.970001  0
C  C43  1  0.34802670  0.49064038  0.14750791  1  -0.013909  0  -0.022962  -0.13185  0  3.969916  0
C  C44  1  0.95123481  0.09628727  0.55203164  1  0.547211  0  0.116923  0.249238  0  3.990987  0
C  C45  1  0.08995274  0.11659833  0.41341714  1  0.092495  0  -0.093627  -0.21057  0  3.986169  0
C  C46  1  0.10200929  0.03848559  0.39997298  1  0.436763  0  0.100321  0.256461  0  4.065363  0
C  C47  1  0.04036407  0.98329880  0.46193815  1  0.07903  0  -0.012521  -0.106488  0  4.004671  0
C  C48  1  0.05202337  0.90044290  0.45123670  1  0.549325  0  0.116827  0.249208  0  3.991373  0
C  C49  1  0.91341132  0.88003148  0.58995100  1  0.027381  0  -0.093589  -0.210456  0  3.986204  0
C  C50  1  0.89996751  0.95952768  0.60201330  1  0.486347  0  0.100384  0.256408  0  4.065212  0
C  C51  1  0.96193238  0.01439650  0.54037047  1  0.014009  0  -0.0126  -0.106486  0  4.00469  0
C  C52  1  0.01382097  0.14750407  0.49063830  1  0.022901  0  -0.022988  -0.13179  0  3.969691  0
C  C53  1  0.99063120  0.84803239  0.51382129  1  0.026464  0  -0.022983  -0.131894  0  3.969883  0
C  C54  1  0.59686324  0.90037853  0.55219334  1  0.575483  0  0.116753  0.249699  0  3.998906  0
C  C55  1  0.61714011  0.88005810  0.41246035  1  0.114866  0  -0.093743  -0.208025  0  3.995936  0
C  C56  1  0.53845869  0.95977098  0.39895179  1  0.447286  0  0.100205  0.255001  0  4.07322  0
C  C57  1  0.48341914  0.01458057  0.46146972  1  0.056925  0  -0.011271  -0.10377  0  4.010707  0
C  C58  1  0.40037705  0.09686280  0.45057081  1  0.556571  0  0.116799  0.249711  0  3.998875  0
C  C59  1  0.38005224  0.11713410  0.59035391  1  0.087574  0  -0.093715  -0.208058  0  3.995973  0
C  C60  1  0.45976734  0.03845378  0.60282398  1  0.442622  0  0.100175  0.254978  0  4.073246  0
C  C61  1  0.51458052  0.98341662  0.54053509  1  0.078307  0  -0.011187  -0.10371  0  4.010731  0
C  C62  1  0.64804331  0.84827525  0.49016776  1  -0.048346  0  -0.022815  -0.1316  0  3.987365  0
C  C63  1  0.34827273  0.14804301  0.51351982  1  -0.004635  0  -0.022784  -0.131429  0  3.987402  0
C  C64  1  0.05219216  0.45056670  0.09686292  1  0.545195  0  0.116776  0.24984  0  3.998763  0
C  C65  1  0.91246278  0.59034565  0.11713926  1  0.059187  0  -0.093798  -0.208073  0  3.995872  0
C  C66  1  0.89895310  0.60282274  0.03845788  1  0.466441  0  0.10021  0.255136  0  4.073128  0
C  C67  1  0.96146525  0.54053124  0.98342255  1  0.079743  0  -0.01123  -0.103829  0  4.010566  0
C  C68  1  0.95056035  0.55218451  0.90038602  1  0.530148  0  0.116715  0.249766  0  3.998717  0
C  C69  1  0.09034491  0.41246074  0.88005414  1  0.045127  0  -0.093772  -0.208035  0  3.995746  0
C  C70  1  0.10282493  0.39895399  0.95976635  1  0.472246  0  0.100194  0.255075  0  4.073285  0
C  C71  1  0.04053477  0.46146748  0.01457977  1  0.033382  0  -0.011224  -0.103792  0  4.010674  0
C  C72  1  0.99016846  0.51351169  0.14804537  1  0.039169  0  -0.022764  -0.13155  0  3.987248  0
C  C73  1  0.01350713  0.49016377  0.84828014  1  0.059348  0  -0.022777  -0.131518  0  3.987258  0
C  C74  1  0.95039093  0.09684926  0.90020930  1  0.543708  0  0.118121  0.250897  0  3.993959  0
C  C75  1  0.08961277  0.11662276  0.88036111  1  0.029364  0  -0.095626  -0.212344  0  3.99937  0
C  C76  1  0.10227808  0.03815792  0.95999995  1  0.437714  0  0.099667  0.255126  0  4.069592  0
C  C77  1  0.04050548  0.98321632  0.01465656  1  0.114547  0  -0.011742  -0.104493  0  4.0047  0
C  C78  1  0.05255042  0.90020466  0.09685284  1  0.543439  0  0.118112  0.250748  0  3.994208  0
C  C79  1  0.91340166  0.88035923  0.11662971  1  0.139487  0  -0.095626  -0.212282  0  3.999359  0
C  C80  1  0.89956246  0.95999811  0.03816357  1  0.445159  0  0.099679  0.255195  0  4.06952  0
C  C81  1  0.96162341  0.01465156  0.98322252  1  0.041759  0  -0.011716  -0.104731  0  4.004711  0
C  C82  1  0.01300217  0.14785146  0.84816008  1  0.010525  0  -0.02303  -0.13166  0  3.979416  0
C  C83  1  0.99098411  0.84816024  0.14785536  1  -0.007397  0  -0.023036  -0.131637  0  3.979549  0
C  C84  1  0.59684768  0.45039148  0.55255124  1  0.540955  0  0.118079  0.250796  0  3.99413  0
C  C85  1  0.61662546  0.58960961  0.41340430  1  0.036932  0  -0.095647  -0.212339  0  3.999371  0
C  C86  1  0.53816639  0.60227048  0.39955739  1  0.489595  0  0.099691  0.255153  0  4.069522  0
C  C87  1  0.48322310  0.54050258  0.46161696  1  0.073326  0  -0.011712  -0.104481  0  4.004613  0
C  C88  1  0.40020368  0.55255063  0.45039127  1  0.529103  0  0.118098  0.250719  0  3.993975  0
C  C89  1  0.38035955  0.41340411  0.58960669  1  0.03562  0  -0.095637  -0.21229  0  3.999415  0
C  C90  1  0.45999767  0.39956505  0.60227128  1  0.436705  0  0.099687  0.255231  0  4.06953  0
C  C91  1  0.51465298  0.46162024  0.54050097  1  0.065513  0  -0.011649  -0.104667  0  4.004818  0
C  C92  1  0.64784858  0.51299835  0.49098878  1  0.040333  0  -0.023069  -0.131641  0  3.979518  0
C  C93  1  0.34815844  0.49098894  0.51299613  1  0.058069  0  -0.023134  -0.131748  0  3.979721  0
O  O94  1  0.76630011  0.43906239  0.72834334  1  -1.155506  0  -0.340182  -0.60343  0  2.252385  0
O  O95  1  0.06628789  0.72834045  0.43906304  1  -1.158523  0  -0.340223  -0.603506  0  2.252354  0
O  O96  1  0.22833433  0.56629191  0.26630384  1  -1.1568  0  -0.340183  -0.603422  0  2.252445  0
O  O97  1  0.93906434  0.26629761  0.56629556  1  -1.165038  0  -0.340183  -0.603407  0  2.252269  0
O  O98  1  0.07033836  0.27070692  0.72440657  1  -1.172912  0  -0.360357  -0.61995  0  2.314327  0
O  O99  1  0.77070250  0.57033923  0.43455121  1  -1.185071  0  -0.360379  -0.619916  0  2.314224  0
O  O100  1  0.93454142  0.72440817  0.27070907  1  -1.174205  0  -0.360393  -0.61991  0  2.314298  0
O  O101  1  0.22440376  0.43455029  0.57033874  1  -1.180661  0  -0.360373  -0.619962  0  2.314433  0
O  O102  1  0.93765562  0.56607462  0.72899505  1  -1.166062  0  -0.343924  -0.606969  0  2.278277  0
O  O103  1  0.22898712  0.26726221  0.43766924  1  -1.1632  0  -0.343934  -0.606944  0  2.278424  0
O  O104  1  0.06607580  0.43765785  0.26727312  1  -1.169206  0  -0.343941  -0.60701  0  2.278268  0
O  O105  1  0.76726662  0.72898205  0.56608203  1  -1.160428  0  -0.343918  -0.606998  0  2.278215  0
O  O106  1  0.22440127  0.27153320  0.57084785  1  -1.182901  0  -0.36385  -0.620527  0  2.323527  0
O  O107  1  0.93321328  0.57083766  0.27153817  1  -1.190153  0  -0.36385  -0.620546  0  2.323612  0
O  O108  1  0.77152500  0.72440358  0.43321801  1  -1.185655  0  -0.363855  -0.620623  0  2.323473  0
O  O109  1  0.07083745  0.43321764  0.72440886  1  -1.185083  0  -0.363831  -0.62058  0  2.323542  0
O  O110  1  0.93745544  0.26741415  0.72815073  1  -1.1645  0  -0.345284  -0.607259  0  2.26397  0
O  O111  1  0.22814934  0.56697436  0.43744898  1  -1.166261  0  -0.345358  -0.607314  0  2.263828  0
O  O112  1  0.06696824  0.72815100  0.26742565  1  -1.164374  0  -0.345273  -0.607184  0  2.263991  0
O  O113  1  0.76741761  0.43744861  0.56697927  1  -1.169689  0  -0.345278  -0.607245  0  2.264117  0
O  O114  1  0.07139287  0.27055741  0.43424432  1  -1.178307  0  -0.36137  -0.618257  0  2.296602  0
O  O115  1  0.77055568  0.57139296  0.72380043  1  -1.176661  0  -0.361384  -0.618296  0  2.296589  0
O  O116  1  0.93423865  0.72380132  0.57139290  1  -1.182846  0  -0.361353  -0.618388  0  2.296259  0
O  O117  1  0.22380124  0.43424130  0.27056428  1  -1.179069  0  -0.361371  -0.618352  0  2.296354  0
O  O118  1  0.94170903  0.44126042  0.44209028  1  -1.245874  0  -0.694183  -1.071655  0  2.367435  0
O  O119  1  0.17493172  0.44208530  0.44126802  1  -1.248228  0  -0.694178  -1.071813  0  2.36761  0
O  O120  1  0.94208028  0.67493315  0.44171348  1  -1.224751  0  -0.694131  -1.07178  0  2.367567  0
O  O121  1  0.94126426  0.44170883  0.67493714  1  -1.257234  0  -0.694141  -1.071672  0  2.367748  0
O  O122  1  0.04285805  0.54375169  0.54200524  1  -1.198567  0  -0.790831  -1.151331  0  2.132242  0
O  O123  1  0.87138290  0.54200077  0.54375262  1  -1.196882  0  -0.79086  -1.151392  0  2.132306  0
O  O124  1  0.04374828  0.54285862  0.37138558  1  -1.194377  0  -0.790793  -1.151339  0  2.132209  0
O  O125  1  0.04200523  0.37138293  0.54286299  1  -1.19776  0  -0.790835  -1.151403  0  2.132299  0
F  F126  1  0.48583816  0.32440044  0.01358834  1  -0.614897  0  -0.097082  -0.133364  0  1.346139  0
F  F127  1  0.62355544  0.37750282  0.87322931  1  -0.605693  0  -0.078972  -0.104472  0  1.403422  0
F  F128  1  0.51359618  0.67616400  0.98584877  1  -0.615221  0  -0.097104  -0.133404  0  1.346184  0
F  F129  1  0.37321737  0.62571645  0.12355578  1  -0.606624  0  -0.078946  -0.104424  0  1.40357  0
F  F130  1  0.82439001  0.98584392  0.67616815  1  -0.618056  0  -0.097153  -0.133435  0  1.346166  0
F  F131  1  0.87749814  0.12355898  0.62571214  1  -0.610577  0  -0.078924  -0.10443  0  1.403255  0
F  F132  1  0.17615978  0.01359323  0.32439375  1  -0.619337  0  -0.09709  -0.133411  0  1.346346  0
F  F133  1  0.12570248  0.87322911  0.37750024  1  -0.610277  0  -0.078853  -0.104397  0  1.403503  0
F  F134  1  0.48629255  0.01303489  0.67763949  1  -0.617766  0  -0.096781  -0.133622  0  1.347509  0
F  F135  1  0.62456387  0.87268928  0.62642169  1  -0.611115  0  -0.080935  -0.107966  0  1.401762  0
F  F136  1  0.51304532  0.98630167  0.32302657  1  -0.618603  0  -0.096753  -0.133589  0  1.347553  0
F  F137  1  0.37269218  0.12456430  0.37632726  1  -0.612431  0  -0.080973  -0.108028  0  1.401717  0
F  F138  1  0.17763968  0.32303731  0.98628942  1  -0.619499  0  -0.096737  -0.133616  0  1.347639  0
F  F139  1  0.12642119  0.37632218  0.12456486  1  -0.611771  0  -0.080945  -0.108037  0  1.401705  0
F  F140  1  0.82302685  0.67763145  0.01304462  1  -0.618264  0  -0.096755  -0.133655  0  1.347537  0
F  F141  1  0.87630972  0.62641212  0.87270408  1  -0.612059  0  -0.080922  -0.108039  0  1.401658  0
F  F142  1  0.82362971  0.98660452  0.01284772  1  -0.617159  0  -0.096526  -0.133255  0  1.346593  0
F  F143  1  0.87635562  0.12453587  0.87254023  1  -0.606296  0  -0.076124  -0.100991  0  1.403158  0
F  F144  1  0.17692096  0.01284105  0.98660571  1  -0.615849  0  -0.096473  -0.133195  0  1.346552  0
F  F145  1  0.12656809  0.87253081  0.12453970  1  -0.608541  0  -0.076104  -0.100932  0  1.403171  0
F  F146  1  0.48660410  0.32363016  0.67691791  1  -0.618117  0  -0.096549  -0.133295  0  1.346393  0
F  F147  1  0.62453367  0.37635809  0.62657040  1  -0.608678  0  -0.076109  -0.100954  0  1.40319  0
F  F148  1  0.51285588  0.67691133  0.32361860  1  -0.617441  0  -0.096535  -0.13325  0  1.346496  0
F  F149  1  0.37253284  0.62657344  0.37635822  1  -0.608696  0  -0.076074  -0.100917  0  1.403038  0
