# generated using pymatgen
data_Al6H80(C11O4)9
_symmetry_space_group_name_H-M   'P 1'
_cell_length_a   12.80134316
_cell_length_b   12.49081353
_cell_length_c   27.72089495
_cell_angle_alpha   88.52430523
_cell_angle_beta   90.16288026
_cell_angle_gamma   60.80294735
_symmetry_Int_Tables_number   1
_chemical_formula_structural   Al6H80(C11O4)9
_chemical_formula_sum   'Al6 H80 C99 O36'
_cell_volume   3867.49471011
_cell_formula_units_Z   1
loop_
 _symmetry_equiv_pos_site_id
 _symmetry_equiv_pos_as_xyz
  1  'x, y, z'
loop_
 _atom_site_type_symbol
 _atom_site_label
 _atom_site_symmetry_multiplicity
 _atom_site_fract_x
 _atom_site_fract_y
 _atom_site_fract_z
 _atom_site_occupancy
 _atom_site_pbe_bader_charge
 _atom_site_pbe_bader_spin_density
 _atom_site_pbe_cm5_charge
 _atom_site_pbe_ddec_charge
 _atom_site_pbe_ddec_spin_density
 _atom_site_pbe_ddec_sum_bond_order
 _atom_site_pbe_magmom
Al  Al0  1  0.58976053  0.81885613  0.50460163  1  2.492871  0  0.39805  1.686624  0  2.554044  0
Al  Al1  1  0.34162006  0.06929473  0.49809398  1  2.478574  0  0.505483  1.653299  0  2.513149  0
Al  Al2  1  0.56670278  0.08646416  0.50088595  1  2.476023  0  0.505554  1.664102  0  2.509436  0
Al  Al3  1  0.09766489  0.83527819  0.01597374  1  2.491871  0  0.397058  1.688404  0  2.544984  0
Al  Al4  1  0.08543637  0.58473759  0.01890490  1  2.483204  0  0.504035  1.659959  0  2.506643  0
Al  Al5  1  0.32598705  0.56608841  0.01542338  1  2.48023  0  0.498338  1.655035  0  2.519068  0
H  H6  1  0.49180568  0.32501590  0.21868114  1  0.127426  0  0.102953  0.109645  0  1.077655  0
H  H7  1  0.22727448  0.94437491  0.12626722  1  0.111783  0  0.112099  0.114889  0  1.001488  0
H  H8  1  0.44385527  0.59095307  0.24170011  1  0.070672  0  0.100745  0.09766  0  1.019073  0
H  H9  1  0.43424056  0.55598965  0.15453999  1  0.06946  0  0.1053  0.105458  0  1.040013  0
H  H10  1  0.51126959  0.20214585  0.72138103  1  0.082229  0  0.10754  0.1165  0  0.99934  0
H  H11  1  0.84521653  0.00248160  0.72032511  1  0.075572  0  0.113151  0.121681  0  0.979807  0
H  H12  1  0.87225078  0.97470496  0.81000624  1  0.093113  0  0.116012  0.122529  0  0.971302  0
H  H13  1  0.02753995  0.44856367  0.70604406  1  0.035045  0  0.097747  0.133958  0  0.996733  0
H  H14  1  0.06385195  0.56624778  0.69575522  1  0.095208  0  0.099649  0.141243  0  0.980898  0
H  H15  1  0.11922001  0.44029153  0.65626779  1  0.060336  0  0.095596  0.134711  0  1.007471  0
H  H16  1  0.51717466  0.46809131  0.78971987  1  0.034497  0  0.091714  0.088654  0  0.99133  0
H  H17  1  0.14090855  0.40211242  0.29389616  1  0.080293  0  0.105517  0.113195  0  1.047889  0
H  H18  1  0.43757872  0.46079601  0.84216025  1  0.081348  0  0.10161  0.109367  0  1.022069  0
H  H19  1  0.50244098  0.55899583  0.84134293  1  0.047027  0  0.093178  0.089328  0  1.024519  0
H  H20  1  0.33892042  0.99022706  0.85791601  1  0.051889  0  0.094495  0.134843  0  1.002497  0
H  H21  1  0.46031802  0.97999416  0.82388442  1  0.015034  0  0.092297  0.127666  0  1.000332  0
H  H22  1  0.31306371  0.08989725  0.80624718  1  0.096823  0  0.094877  0.135296  0  1.009607  0
H  H23  1  0.50803394  0.90594252  0.67627844  1  0.06702  0  0.096053  0.09787  0  1.020177  0
H  H24  1  0.54085909  0.96755611  0.72846770  1  0.028459  0  0.086134  0.080182  0  1.028677  0
H  H25  1  0.46363733  0.06536948  0.67697248  1  0.071782  0  0.098422  0.103652  0  1.030907  0
H  H26  1  0.03748638  0.44271252  0.36380794  1  0.023774  0  0.092115  0.128424  0  0.99862  0
H  H27  1  0.10569206  0.31521818  0.40556664  1  0.032885  0  0.095804  0.134527  0  1.02662  0
H  H28  1  0.52825699  0.23697430  0.37854960  1  0.133379  0  0.114027  0.127515  0  1.02292  0
H  H29  1  0.10718276  0.45173504  0.41797879  1  0.049253  0  0.100422  0.142378  0  0.975245  0
H  H30  1  0.59436797  0.29454200  0.15243898  1  0.005531  0  0.092095  0.128787  0  0.992729  0
H  H31  1  0.54964158  0.26047672  0.09648947  1  0.050616  0  0.09782  0.141504  0  0.986024  0
H  H32  1  0.50378514  0.41358525  0.10973493  1  0.081072  0  0.098325  0.141361  0  1.029763  0
H  H33  1  0.22611098  0.14173865  0.25371409  1  0.051508  0  0.09576  0.09202  0  1.002147  0
H  H34  1  0.14377138  0.16975495  0.19744227  1  0.079216  0  0.098982  0.096905  0  1.019943  0
H  H35  1  0.06546566  0.21879622  0.25298089  1  0.060662  0  0.104997  0.110232  0  0.984114  0
H  H36  1  0.18552877  0.26411089  0.06340671  1  0.085871  0  0.101291  0.106905  0  1.020494  0
H  H37  1  0.21204755  0.14455044  0.10736751  1  0.045386  0  0.097466  0.092748  0  1.007348  0
H  H38  1  0.06276811  0.24987517  0.08649279  1  0.102075  0  0.119235  0.13342  0  0.954738  0
H  H39  1  0.73332809  0.07581885  0.37187945  1  0.066764  0  0.102713  0.105981  0  1.016195  0
H  H40  1  0.62728538  0.32012195  0.34497042  1  0.054139  0  0.101744  0.101183  0  0.994966  0
H  H41  1  0.52118455  0.45219986  0.31032481  1  0.067219  0  0.100827  0.100363  0  1.000032  0
H  H42  1  0.66091596  0.34415967  0.28435871  1  0.040265  0  0.108039  0.11131  0  0.985602  0
H  H43  1  0.03806210  0.35257836  0.81353606  1  0.034966  0  0.095983  0.093735  0  0.986363  0
H  H44  1  0.94613836  0.50693019  0.83281345  1  0.113947  0  0.103721  0.115341  0  1.033192  0
H  H45  1  0.08758844  0.41000768  0.86240410  1  0.072479  0  0.093458  0.097948  0  1.037646  0
H  H46  1  0.63449078  0.00935593  0.12515699  1  0.050219  0  0.09094  0.126585  0  1.005315  0
H  H47  1  0.75417382  0.99424120  0.08796920  1  0.057672  0  0.101082  0.144663  0  0.983252  0
H  H48  1  0.70875179  0.88124514  0.08744718  1  0.048223  0  0.095888  0.134339  0  0.984881  0
H  H49  1  0.87897159  0.02809731  0.25386528  1  0.043494  0  0.092184  0.132581  0  1.009445  0
H  H50  1  0.68740693  0.96268942  0.20836696  1  0.087793  0  0.099959  0.107177  0  1.003454  0
H  H51  1  0.72137810  0.11925977  0.25543855  1  0.088193  0  0.091472  0.128991  0  1.024658  0
H  H52  1  0.81095072  0.13220321  0.30144063  1  5.8e-05  0  0.087532  0.118214  0  1.014807  0
H  H53  1  0.19607945  0.59402964  0.19786995  1  0.034799  0  0.087486  0.125113  0  1.017882  0
H  H54  1  0.13987115  0.55034771  0.14779303  1  0.072238  0  0.092459  0.129289  0  1.054134  0
H  H55  1  0.17735185  0.66835123  0.14063739  1  0.049021  0  0.092632  0.127127  0  1.031814  0
H  H56  1  0.65984590  0.61399271  0.35895243  1  0.022547  0  0.083387  0.115792  0  1.029609  0
H  H57  1  0.63776681  0.73274710  0.39839775  1  0.0746  0  0.100546  0.142853  0  1.049848  0
H  H58  1  0.58631558  0.63227097  0.41511274  1  0.098438  0  0.105549  0.163109  0  0.978092  0
H  H59  1  0.50172712  0.17021381  0.85355834  1  0.056994  0  0.095193  0.134933  0  0.998467  0
H  H60  1  0.59202496  0.11664554  0.80132081  1  0.033715  0  0.089272  0.125764  0  1.023081  0
H  H61  1  0.04347908  0.69220792  0.25419202  1  0.037073  0  0.099216  0.105567  0  1.007983  0
H  H62  1  0.56613872  0.25474195  0.82790523  1  0.04354  0  0.096668  0.134743  0  0.997372  0
H  H63  1  0.64931644  0.71194472  0.29244617  1  0.024943  0  0.090451  0.129173  0  1.020585  0
H  H64  1  0.62341011  0.58795188  0.28144205  1  -0.02131  0  0.084792  0.109828  0  1.019151  0
H  H65  1  0.56417086  0.71679260  0.24120754  1  0.041785  0  0.0907  0.129395  0  1.014305  0
H  H66  1  0.06502799  0.93140162  0.31903662  1  0.07513  0  0.095827  0.136902  0  1.001788  0
H  H67  1  0.09004991  0.01392052  0.27186896  1  0.071809  0  0.08496  0.108175  0  1.033128  0
H  H68  1  0.12754832  0.85997869  0.26353911  1  0.048056  0  0.090344  0.128428  0  1.01365  0
H  H69  1  0.06574761  0.12600391  0.33979864  1  0.020833  0  0.085692  0.073854  0  1.035241  0
H  H70  1  0.17056761  0.13280727  0.38132709  1  0.074575  0  0.095819  0.096104  0  1.036678  0
H  H71  1  0.03414188  0.14341895  0.40303086  1  0.051223  0  0.108238  0.11472  0  0.967551  0
H  H72  1  0.87095991  0.66632543  0.30353730  1  0.078763  0  0.101591  0.100705  0  1.004114  0
H  H73  1  0.58941400  0.75869934  0.82948150  1  0.090694  0  0.092373  0.090942  0  1.043298  0
H  H74  1  0.69082459  0.76252286  0.87389934  1  0.062802  0  0.096625  0.09819  0  1.030287  0
H  H75  1  0.69013980  0.62233340  0.86333691  1  0.052166  0  0.111798  0.121447  0  0.967638  0
H  H76  1  0.72903633  0.71320914  0.67192555  1  0.07896  0  0.098443  0.14348  0  1.003012  0
H  H77  1  0.80971045  0.59314781  0.71576333  1  0.061941  0  0.100357  0.141282  0  0.989251  0
H  H78  1  0.65739074  0.69721943  0.72467540  1  0.071236  0  0.097054  0.135156  0  0.997596  0
H  H79  1  0.33099272  0.56685296  0.71707906  1  0.082292  0  0.09231  0.130185  0  1.030681  0
H  H80  1  0.24850486  0.68923788  0.67433816  1  0.064292  0  0.098478  0.138714  0  0.97906  0
H  H81  1  0.40558572  0.60494375  0.67078090  1  0.063625  0  0.099381  0.139878  0  0.979051  0
H  H82  1  0.81165396  0.70175847  0.39007440  1  0.105328  0  0.113967  0.118829  0  1.000187  0
H  H83  1  0.24689845  0.98023087  0.21334497  1  0.053542  0  0.09699  0.090432  0  1.063262  0
H  H84  1  0.72540400  0.61953584  0.53333660  1  0.585705  0  0.291302  0.379856  0  0.928074  0
H  H85  1  0.01382919  0.03502412  0.98359810  1  0.580903  0  0.291002  0.379942  0  0.928006  0
C  C86  1  0.37604969  0.89452853  0.56848844  1  1.671769  0  0.280619  0.716204  0  4.153345  0
C  C87  1  0.83001180  0.93457999  0.73977300  1  0.047121  0  -0.084951  -0.139028  0  4.003529  0
C  C88  1  0.84367923  0.92020844  0.78935668  1  -0.053837  0  -0.076436  -0.104931  0  3.994185  0
C  C89  1  0.38170287  0.21569116  0.56787340  1  1.669752  0  0.278985  0.717192  0  4.15525  0
C  C90  1  0.78677561  0.76006988  0.78791426  1  0.486664  0  0.097392  0.153248  0  3.977152  0
C  C91  1  0.77559459  0.77093840  0.73735929  1  0.04175  0  0.001994  0.040996  0  3.921864  0
C  C92  1  0.79715247  0.85986329  0.71340794  1  0.120703  0  0.003594  0.07256  0  4.097478  0
C  C93  1  0.82396139  0.83167023  0.81436933  1  0.082669  0  -0.003854  0.022178  0  4.117429  0
C  C94  1  0.85178487  0.81062356  0.86421504  1  -0.103109  0  -0.013654  -0.003866  0  4.099718  0
C  C95  1  0.77978774  0.87846991  0.66282515  1  -0.335694  0  -0.01398  -0.013597  0  4.085509  0
C  C96  1  0.88382950  0.79324112  0.90652217  1  -0.173445  0  -0.032663  -0.192914  0  3.921876  0
C  C97  1  0.41560492  0.26866812  0.78704115  1  0.076699  0  0.002429  0.147582  0  3.976455  0
C  C98  1  0.34130405  0.87352956  0.61554754  1  0.186063  0  -0.032177  -0.200684  0  3.897435  0
C  C99  1  0.34169223  0.73083329  0.72892566  1  0.070205  0  -0.006909  0.046509  0  3.968259  0
C  C100  1  0.35005816  0.71402575  0.77902301  1  0.503422  0  0.083186  0.137777  0  4.02616  0
C  C101  1  0.71036611  0.91392765  0.57131077  1  1.663637  0  0.276474  0.71048  0  4.166147  0
C  C102  1  0.35974736  0.90470702  0.78960626  1  0.057227  0  -0.01101  0.036643  0  3.980051  0
C  C103  1  0.35567552  0.91896533  0.73938701  1  0.534068  0  0.081352  0.137207  0  4.035031  0
C  C104  1  0.34346094  0.83573371  0.70934628  1  0.047962  0  -0.008101  -0.033169  0  4.119333  0
C  C105  1  0.35584998  0.80110873  0.80930028  1  0.065746  0  -0.012714  -0.041894  0  4.12941  0
C  C106  1  0.35175039  0.78411841  0.85966475  1  -0.44418  0  -0.008168  0.022413  0  4.110234  0
C  C107  1  0.33887080  0.85618530  0.65889810  1  -0.45185  0  -0.006702  0.024116  0  4.097416  0
C  C108  1  0.42456627  0.26050296  0.73727148  1  -0.052057  0  -0.087571  -0.203588  0  3.947344  0
C  C109  1  0.34279707  0.76721751  0.90261510  1  0.189659  0  -0.037741  -0.209525  0  3.905477  0
C  C110  1  0.34276262  0.29197312  0.38608275  1  -0.003529  0  -0.014402  -0.089005  0  3.95316  0
C  C111  1  0.22955879  0.34703454  0.36237961  1  0.034069  0  -0.002269  0.157257  0  3.958386  0
C  C112  1  0.22729607  0.36342161  0.31228224  1  0.010699  0  -0.092177  -0.191046  0  3.935355  0
C  C113  1  0.39009693  0.88573356  0.43266999  1  1.570238  0  0.275401  0.666338  0  4.053215  0
C  C114  1  0.32915348  0.33234014  0.28351094  1  -0.042284  0  -0.003606  0.002279  0  3.917671  0
C  C115  1  0.43611508  0.29971967  0.31028841  1  0.497918  0  0.0853  0.204607  0  3.998021  0
C  C116  1  0.44216063  0.27538294  0.35976479  1  -0.069287  0  -0.092915  -0.208277  0  4.002354  0
C  C117  1  0.41433023  0.32984191  0.20075217  1  -0.002473  0  -0.108219  -0.228131  0  3.974436  0
C  C118  1  0.41243607  0.33332364  0.15059961  1  -0.11087  0  0.00121  0.187403  0  3.954119  0
C  C119  1  0.32306551  0.32319105  0.70645395  1  0.132939  0  0.006501  0.085853  0  4.09183  0
C  C120  1  0.22546533  0.32724977  0.15344701  1  0.524547  0  0.094611  0.162036  0  4.020936  0
C  C121  1  0.22957950  0.32592692  0.20455949  1  0.551387  0  0.076243  0.090311  0  3.975934  0
C  C122  1  0.32242150  0.33262982  0.22986776  1  0.018006  0  -0.000792  0.028038  0  3.961726  0
C  C123  1  0.30975053  0.34452704  0.12561654  1  0.034399  0  -0.030836  -0.23917  0  3.92801  0
C  C124  1  0.76214518  0.89314129  0.38524351  1  0.019303  0  -0.020494  -0.053893  0  4.014038  0
C  C125  1  0.36899760  0.23577320  0.43559965  1  1.512148  0  0.279766  0.655004  0  4.05517  0
C  C126  1  0.76188397  0.98677734  0.35618644  1  -0.040364  0  -0.083591  -0.147251  0  3.936843  0
C  C127  1  0.79666257  0.96823137  0.30802410  1  0.020673  0  -0.006315  0.125805  0  3.942133  0
C  C128  1  0.83031119  0.85271173  0.28848830  1  -0.053992  0  0.001496  0.025599  0  3.945921  0
C  C129  1  0.83946511  0.75651187  0.31872710  1  -0.033989  0  -0.090954  -0.137193  0  4.022464  0
C  C130  1  0.30124380  0.34511851  0.80693653  1  0.039931  0  -0.008043  -0.053503  0  4.069348  0
C  C131  1  0.80632381  0.77569547  0.36672428  1  -0.105585  0  -0.081249  -0.091648  0  3.997513  0
C  C132  1  0.77879682  0.89465472  0.19957896  1  -0.094162  0  -0.096325  -0.210536  0  3.953263  0
C  C133  1  0.81046801  0.87351983  0.15103501  1  0.03257  0  -0.003214  0.164682  0  3.989717  0
C  C134  1  0.01287145  0.71963797  0.17743018  1  -0.011766  0  -0.004516  0.171742  0  3.989846  0
C  C135  1  0.97791575  0.74205211  0.22533094  1  -0.007833  0  -0.097561  -0.211665  0  3.972946  0
C  C136  1  0.86162726  0.82988687  0.23699596  1  -0.053406  0  -0.011645  0.080219  0  4.067431  0
C  C137  1  0.70695324  0.91855474  0.43361407  1  1.529408  0  0.269426  0.636464  0  4.083505  0
C  C138  1  0.92834504  0.78536660  0.14051762  1  -0.041335  0  -0.013757  -0.160636  0  3.883831  0
C  C139  1  0.37545267  0.84708138  0.38378021  1  -0.041028  0  -0.023321  -0.212809  0  3.928607  0
C  C140  1  0.47849402  0.76209799  0.35880942  1  0.069982  0  0.005486  0.132346  0  3.902441  0
C  C141  1  0.29115621  0.36731800  0.85684903  1  -0.525816  0  0.000758  0.035837  0  4.08771  0
C  C142  1  0.46916224  0.75286165  0.30852609  1  0.036994  0  -0.018358  0.039341  0  3.931621  0
C  C143  1  0.35545446  0.80875096  0.28552787  1  -0.125871  0  -0.009929  -0.038819  0  3.972563  0
C  C144  1  0.25022724  0.87932430  0.31161405  1  0.066155  0  -0.024587  0.006789  0  3.977934  0
C  C145  1  0.26260931  0.90240285  0.35996024  1  0.473974  0  0.083018  0.180333  0  4.026819  0
C  C146  1  0.28697516  0.88731121  0.20041469  1  -0.10194  0  -0.08849  -0.13254  0  3.973489  0
C  C147  1  0.27791133  0.86810750  0.15179856  1  -0.001748  0  -0.075618  -0.076559  0  3.965828  0
C  C148  1  0.39466926  0.64881041  0.16754910  1  -0.042919  0  -0.079103  -0.081935  0  3.980991  0
C  C149  1  0.35220273  0.27134767  0.61419574  1  0.07496  0  -0.032032  -0.202277  0  3.910656  0
C  C150  1  0.39947326  0.66879191  0.21629536  1  -0.060893  0  -0.085911  -0.128426  0  3.973436  0
C  C151  1  0.34668493  0.78840792  0.23356379  1  0.020852  0  0.003586  0.101001  0  3.981984  0
C  C152  1  0.33725962  0.30036464  0.65636942  1  -0.383039  0  0.00071  0.014171  0  4.043952  0
C  C153  1  0.33256232  0.74829475  0.13500695  1  -0.001028  0  -0.018403  -0.059343  0  4.003305  0
C  C154  1  0.94428728  0.76461263  0.95263903  1  1.649446  0  0.275557  0.707952  0  4.166748  0
C  C155  1  0.26285782  0.44530193  0.94613030  1  1.645934  0  0.277661  0.71862  0  4.156127  0
C  C156  1  0.30384597  0.74621844  0.94870470  1  1.638521  0  0.278208  0.718397  0  4.158717  0
C  C157  1  0.97305298  0.76172808  0.08976828  1  1.577408  0  0.278296  0.670596  0  4.064908  0
C  C158  1  0.27589327  0.40803000  0.07768152  1  1.509024  0  0.270482  0.649545  0  4.077421  0
C  C159  1  0.31040119  0.72670379  0.08462998  1  1.535541  0  0.269217  0.629594  0  4.107501  0
C  C160  1  0.20870436  0.39842031  0.72553904  1  0.025819  0  0.00044  0.037047  0  3.925466  0
C  C161  1  0.19897598  0.40731637  0.77593641  1  0.536051  0  0.100278  0.163451  0  3.99897  0
C  C162  1  0.09928074  0.46655002  0.69393849  1  -0.057277  0  -0.233028  -0.394446  0  3.976612  0
C  C163  1  0.28205412  0.39252344  0.89945675  1  0.256611  0  -0.035514  -0.216377  0  3.905592  0
C  C164  1  0.45811262  0.52047879  0.81921655  1  0.379224  0  -0.141778  -0.173628  0  3.912041  0
C  C165  1  0.36774844  0.99637301  0.82120552  1  -0.063871  0  -0.237924  -0.395209  0  3.96781  0
C  C166  1  0.47549456  0.98635626  0.69908866  1  0.369607  0  -0.145807  -0.174383  0  3.903697  0
C  C167  1  0.11376622  0.39115984  0.38869677  1  -0.03904  0  -0.236613  -0.412127  0  3.967331  0
C  C168  1  0.52065804  0.32536679  0.12593948  1  -0.028289  0  -0.238494  -0.417472  0  3.957708  0
C  C169  1  0.14449448  0.20590973  0.23310921  1  0.356363  0  -0.13747  -0.174264  0  3.922312  0
C  C170  1  0.15053112  0.23985626  0.09536014  1  0.344387  0  -0.132699  -0.171755  0  3.881607  0
C  C171  1  0.58922661  0.35469002  0.30859269  1  0.383042  0  -0.132067  -0.174577  0  3.90978  0
C  C172  1  0.03807465  0.43389878  0.82793610  1  0.339584  0  -0.141611  -0.17815  0  3.884688  0
C  C173  1  0.72183481  0.94365390  0.11090866  1  -0.074427  0  -0.235378  -0.415144  0  3.968756  0
C  C174  1  0.75902632  0.89581071  0.61952519  1  0.025043  0  -0.033758  -0.193791  0  3.923347  0
C  C175  1  0.80228362  0.06735849  0.27803705  1  -0.058736  0  -0.24313  -0.420056  0  3.989375  0
C  C176  1  0.13850909  0.62820383  0.16551873  1  -0.074206  0  -0.247807  -0.422059  0  3.961902  0
C  C177  1  0.59680238  0.68111341  0.38370617  1  -0.076834  0  -0.246574  -0.424697  0  3.957101  0
C  C178  1  0.52435808  0.19855790  0.81912536  1  -0.056807  0  -0.236138  -0.416188  0  3.970769  0
C  C179  1  0.58203270  0.68870284  0.27941839  1  -0.006994  0  -0.242953  -0.401302  0  3.9943  0
C  C180  1  0.12703763  0.92335753  0.29032237  1  -0.144834  0  -0.24298  -0.398194  0  3.995035  0
C  C181  1  0.10520286  0.10081328  0.37652657  1  0.395254  0  -0.140798  -0.168958  0  3.929729  0
C  C182  1  0.67890877  0.70758383  0.84638937  1  0.351738  0  -0.135579  -0.177235  0  3.886328  0
C  C183  1  0.74078230  0.68988472  0.71064548  1  -0.080642  0  -0.234655  -0.405907  0  3.974751  0
C  C184  1  0.33132771  0.64238358  0.69631628  1  -0.080303  0  -0.236454  -0.397395  0  3.971947  0
O  O185  1  0.68803043  0.83178974  0.55693224  1  -1.212274  0  -0.212423  -0.568116  0  2.299998  0
O  O186  1  0.34484169  0.46665067  0.96215646  1  -1.245259  0  -0.232334  -0.59126  0  2.246586  0
O  O187  1  0.37735189  0.64912750  0.97346137  1  -1.25192  0  -0.245296  -0.610417  0  2.230978  0
O  O188  1  0.48351143  0.82385407  0.55783039  1  -1.213261  0  -0.205748  -0.551357  0  2.292734  0
O  O189  1  0.22525424  0.81375756  0.06114936  1  -1.24055  0  -0.215397  -0.562761  0  2.342206  0
O  O190  1  0.00374153  0.83519927  0.07099514  1  -1.243949  0  -0.210306  -0.556978  0  2.31304  0
O  O191  1  0.98329995  0.66495306  0.06999434  1  -1.270154  0  -0.24418  -0.61111  0  2.258118  0
O  O192  1  0.16654761  0.45291780  0.06270341  1  -1.274234  0  -0.235313  -0.606579  0  2.359229  0
O  O193  1  0.35149476  0.42911054  0.05499722  1  -1.266998  0  -0.232978  -0.594268  0  2.343707  0
O  O194  1  0.37577375  0.61705406  0.06888371  1  -1.280854  0  -0.2485  -0.615822  0  2.297416  0
O  O195  1  0.16979318  0.66110477  0.01643258  1  -1.61413  0  -0.391566  -1.267686  0  2.307027  0
O  O196  1  0.29641987  0.20361721  0.45423386  1  -1.261998  0  -0.227983  -0.585898  0  2.302851  0
O  O197  1  0.29747230  0.98630235  0.54255868  1  -1.261201  0  -0.241748  -0.60423  0  2.220905  0
O  O198  1  0.31006505  0.18385808  0.54913584  1  -1.234721  0  -0.227778  -0.585519  0  2.241602  0
O  O199  1  0.48133397  0.19726324  0.55022527  1  -1.240822  0  -0.230495  -0.590826  0  2.24897  0
O  O200  1  0.68864081  0.01316846  0.54778396  1  -1.247987  0  -0.240732  -0.599407  0  2.225814  0
O  O201  1  0.68856100  0.83710630  0.45359299  1  -1.248143  0  -0.216268  -0.568258  0  2.362259  0
O  O202  1  0.48136921  0.81384626  0.45791140  1  -1.258883  0  -0.212149  -0.557467  0  2.384576  0
O  O203  1  0.31384727  0.99486814  0.44588744  1  -1.279469  0  -0.245084  -0.618435  0  2.327677  0
O  O204  1  0.34541094  0.61509347  0.79974283  1  -1.078989  0  -0.205191  -0.180669  0  2.542505  0
O  O205  1  0.36020397  0.01801010  0.71865382  1  -1.075842  0  -0.208464  -0.186582  0  2.533413  0
O  O206  1  0.13595661  0.32440603  0.22828928  1  -1.067793  0  -0.201888  -0.168927  0  2.594915  0
O  O207  1  0.46880213  0.21210230  0.45547611  1  -1.268477  0  -0.235304  -0.602259  0  2.313574  0
O  O208  1  0.13065851  0.32068840  0.13467999  1  -1.069369  0  -0.183805  -0.150552  0  2.594161  0
O  O209  1  0.53817356  0.28579884  0.28806236  1  -1.071985  0  -0.196322  -0.176568  0  2.596464  0
O  O210  1  0.08730317  0.48351756  0.79265675  1  -1.074182  0  -0.192515  -0.167045  0  2.551925  0
O  O211  1  0.16097543  0.97110793  0.38614976  1  -1.075399  0  -0.209101  -0.183817  0  2.541016  0
O  O212  1  0.76870451  0.67089292  0.80969369  1  -1.081707  0  -0.190212  -0.168388  0  2.584823  0
O  O213  1  0.67549409  0.02496341  0.45129987  1  -1.271727  0  -0.252445  -0.619101  0  2.27544  0
O  O214  1  0.49892735  0.99345908  0.50175369  1  -1.612153  0  -0.391549  -1.27082  0  2.306252  0
O  O215  1  0.19828413  0.82249409  0.96007928  1  -1.21922  0  -0.210045  -0.561756  0  2.294185  0
O  O216  1  0.97936090  0.83669991  0.96743885  1  -1.20521  0  -0.210642  -0.561015  0  2.278596  0
O  O217  1  0.96163627  0.66379848  0.97425891  1  -1.252731  0  -0.245669  -0.607007  0  2.216604  0
O  O218  1  0.16491586  0.47150619  0.96721377  1  -1.244685  0  -0.230556  -0.593298  0  2.244224  0
O  O219  1  0.67470409  0.65778149  0.50518627  1  -1.374132  0  -0.57433  -0.992411  0  1.812695  0
O  O220  1  0.03021830  0.99621592  0.01542221  1  -1.369563  0  -0.579282  -0.996775  0  1.79363  0
