# generated using pymatgen
data_Zn4H23C28NO15
_symmetry_space_group_name_H-M   'P 1'
_cell_length_a   10.82745585
_cell_length_b   11.25989331
_cell_length_c   19.45242520
_cell_angle_alpha   111.04283138
_cell_angle_beta   89.98995469
_cell_angle_gamma   118.73548192
_symmetry_Int_Tables_number   1
_chemical_formula_structural   Zn4H23C28NO15
_chemical_formula_sum   'Zn8 H46 C56 N2 O30'
_cell_volume   1897.24318447
_cell_formula_units_Z   2
loop_
 _symmetry_equiv_pos_site_id
 _symmetry_equiv_pos_as_xyz
  1  'x, y, z'
loop_
 _atom_site_type_symbol
 _atom_site_label
 _atom_site_symmetry_multiplicity
 _atom_site_fract_x
 _atom_site_fract_y
 _atom_site_fract_z
 _atom_site_occupancy
 _atom_site_pbe_bader_charge
 _atom_site_pbe_bader_spin_density
 _atom_site_pbe_cm5_charge
 _atom_site_pbe_ddec_charge
 _atom_site_pbe_ddec_spin_density
 _atom_site_pbe_ddec_sum_bond_order
 _atom_site_pbe_magmom
Zn  Zn0  1  0.86755382  0.16146216  0.76050074  1  1.302638  0  0.660948  0.945898  0  2.391617  0
Zn  Zn1  1  0.29399862  0.16165248  0.26048730  1  1.299558  0  0.660979  0.945801  0  2.391781  0
Zn  Zn2  1  0.01038292  0.45792405  0.90920731  1  1.316003  0  0.664692  0.978949  0  2.278192  0
Zn  Zn3  1  0.44761328  0.45817273  0.40921744  1  1.315515  0  0.664795  0.979089  0  2.277779  0
Zn  Zn4  1  0.15264519  0.45265821  0.76921872  1  1.312405  0  0.668888  0.96187  0  2.372791  0
Zn  Zn5  1  0.30008199  0.45270054  0.26912092  1  1.313297  0  0.668689  0.961659  0  2.373364  0
Zn  Zn6  1  0.85034984  0.43980169  0.76031583  1  1.363  0  0.675418  1.008997  0  2.292727  0
Zn  Zn7  1  0.58954617  0.43994830  0.26029853  1  1.363429  0  0.675502  1.009001  0  2.293543  0
H  H8  1  0.21493085  0.27495721  0.55342353  1  0.11948  0  0.110869  0.120523  0  1.000876  0
H  H9  1  0.06001047  0.27482608  0.05335010  1  0.083795  0  0.111017  0.1208  0  1.000349  0
H  H10  1  0.00112522  0.88419258  0.34561356  1  0.094861  0  0.111767  0.113416  0  0.993969  0
H  H11  1  0.88271497  0.88381763  0.84561425  1  0.113968  0  0.111754  0.113577  0  0.992635  0
H  H12  1  0.82509895  0.74968590  0.40984516  1  0.113728  0  0.103097  0.109861  0  1.052174  0
H  H13  1  0.92423183  0.74939276  0.90988441  1  0.11501  0  0.103213  0.10981  0  1.052214  0
H  H14  1  0.84882354  0.87839874  0.55032080  1  0.095141  0  0.105153  0.10186  0  1.016458  0
H  H15  1  0.02954602  0.87828102  0.05029476  1  0.083154  0  0.105291  0.101982  0  1.017024  0
H  H16  1  0.52768245  0.48634626  0.85624544  1  0.128204  0  0.109558  0.118327  0  1.01405  0
H  H17  1  0.95890517  0.48697962  0.35622727  1  0.149735  0  0.109408  0.11813  0  1.013602  0
H  H18  1  0.78274322  0.60091087  0.06403846  1  0.108863  0  0.107288  0.108645  0  0.994562  0
H  H19  1  0.81821026  0.60117206  0.56402499  1  0.107727  0  0.107417  0.108785  0  0.994848  0
H  H20  1  0.60284103  0.63895773  0.13335572  1  0.069574  0  0.10104  0.101991  0  1.038837  0
H  H21  1  0.03636119  0.63966719  0.63336162  1  0.070929  0  0.101236  0.102166  0  1.038748  0
H  H22  1  0.38128663  0.59505608  0.06305024  1  0.078283  0  0.108293  0.11296  0  0.992989  0
H  H23  1  0.21422151  0.59609715  0.56303110  1  0.113219  0  0.108311  0.112964  0  0.993237  0
H  H24  1  0.42175510  0.85645106  0.75570395  1  0.119264  0  0.10816  0.120286  0  1.003585  0
H  H25  1  0.43479111  0.85661743  0.25564190  1  0.131643  0  0.108072  0.120171  0  1.003824  0
H  H26  1  0.42449306  0.23846293  0.75372302  1  0.104318  0  0.105257  0.108929  0  1.009589  0
H  H27  1  0.81405009  0.23857659  0.25367136  1  0.086403  0  0.105278  0.108748  0  1.009542  0
H  H28  1  0.16977646  0.13355916  0.77151375  1  0.096903  0  0.098801  0.104574  0  1.021962  0
H  H29  1  0.96384992  0.13363472  0.27143058  1  0.064091  0  0.098796  0.104501  0  1.022308  0
H  H30  1  0.04121676  0.88624945  0.77688596  1  0.096272  0  0.103377  0.103509  0  1.027008  0
H  H31  1  0.84506541  0.88627891  0.27678347  1  0.091662  0  0.103366  0.103674  0  1.02652  0
H  H32  1  0.61932192  0.43819932  0.68048882  1  0.05699  0  0.107576  0.16526  0  0.978703  0
H  H33  1  0.81890973  0.43846570  0.18044336  1  0.03814  0  0.107492  0.165183  0  0.9788  0
H  H34  1  0.48574631  0.25894342  0.61401768  1  0.081649  0  0.110056  0.168303  0  0.972801  0
H  H35  1  0.77343483  0.25917962  0.11408068  1  0.081518  0  0.110153  0.168434  0  0.972994  0
H  H36  1  0.56522882  0.40930593  0.58622261  1  0.086489  0  0.10817  0.16463  0  0.986294  0
H  H37  1  0.84401617  0.40933945  0.08613940  1  0.084323  0  0.108028  0.164508  0  0.986531  0
H  H38  1  0.49420619  0.21345652  0.48589996  1  0.099094  0  0.108881  0.131556  0  1.033488  0
H  H39  1  0.71923737  0.21311501  0.98587262  1  0.112168  0  0.108824  0.131779  0  1.033605  0
H  H40  1  0.50867546  0.05122110  0.44905200  1  0.116363  0  0.106471  0.12056  0  0.970742  0
H  H41  1  0.54258821  0.05082856  0.94907963  1  0.065158  0  0.106492  0.12057  0  0.969763  0
H  H42  1  0.60513878  0.19853148  0.42017911  1  0.053132  0  0.104521  0.119558  0  0.996758  0
H  H43  1  0.59327543  0.19809114  0.92019035  1  0.063578  0  0.104343  0.119797  0  0.996471  0
H  H44  1  0.89165882  0.26492565  0.55431909  1  0.119846  0  0.109171  0.130993  0  1.017618  0
H  H45  1  0.37301573  0.26419393  0.05433134  1  0.104003  0  0.10938  0.131196  0  1.018311  0
H  H46  1  0.84341692  0.24545040  0.46120486  1  0.084362  0  0.103453  0.116849  0  1.003501  0
H  H47  1  0.40168113  0.24450858  0.96117875  1  0.053504  0  0.103905  0.117472  0  1.002359  0
H  H48  1  0.75850491  0.08740396  0.48343871  1  0.014806  0  0.101195  0.113622  0  0.995529  0
H  H49  1  0.32890174  0.08666635  0.98356513  1  0.070757  0  0.101319  0.113698  0  0.995613  0
H  H50  1  0.14047710  0.80257939  0.97723433  1  0.594728  0  0.300222  0.375342  0  0.947472  0
H  H51  1  0.66213423  0.80305484  0.47754328  1  0.600814  0  0.300237  0.375206  0  0.947604  0
H  H52  1  0.23651742  0.73423484  0.97794627  1  0.611007  0  0.30905  0.391092  0  0.914252  0
H  H53  1  0.49759225  0.73431797  0.47789062  1  0.609284  0  0.308668  0.390628  0  0.914666  0
C  C54  1  0.03346201  0.16383143  0.63965378  1  1.560287  0  0.225731  0.601543  0  4.18028  0
C  C55  1  0.13044729  0.16377188  0.13961370  1  1.55349  0  0.225601  0.601117  0  4.178321  0
C  C56  1  0.21831876  0.16703162  0.40349527  1  1.568262  0  0.222561  0.598177  0  4.170017  0
C  C57  1  0.94849287  0.16674049  0.90346898  1  1.548127  0  0.222667  0.598421  0  4.17052  0
C  C58  1  0.03135223  0.08379255  0.55932769  1  -0.052566  0  -0.019813  -0.046155  0  3.997199  0
C  C59  1  0.05243448  0.08364678  0.05927072  1  -0.042008  0  -0.020091  -0.04634  0  3.996896  0
C  C60  1  0.13117294  0.15907030  0.52249811  1  -0.07085  0  -0.071335  -0.096309  0  3.915754  0
C  C61  1  0.02785973  0.15891785  0.02245990  1  -0.001679  0  -0.071258  -0.096181  0  3.916032  0
C  C62  1  0.11951684  0.08665735  0.44539787  1  -0.02412  0  -0.016868  -0.041386  0  3.983194  0
C  C63  1  0.96699162  0.08646372  0.94538544  1  -0.031644  0  -0.016775  -0.041505  0  3.983168  0
C  C64  1  0.00906807  0.93886948  0.40565908  1  -0.009113  0  -0.06858  -0.061582  0  3.931315  0
C  C65  1  0.92959642  0.93862863  0.90568630  1  -0.050688  0  -0.068253  -0.061468  0  3.929353  0
C  C66  1  0.91097100  0.86324600  0.44251193  1  -0.005342  0  -0.092013  -0.087333  0  4.002851  0
C  C67  1  0.95209628  0.86300740  0.94253891  1  0.025731  0  -0.092347  -0.087568  0  4.003548  0
C  C68  1  0.92252054  0.93498578  0.51933872  1  -0.079735  0  -0.082393  -0.101423  0  3.980516  0
C  C69  1  0.01242853  0.93480530  0.01932455  1  -0.099058  0  -0.082414  -0.101438  0  3.98194  0
C  C70  1  0.30922480  0.51126110  0.91231789  1  1.541881  0  0.224232  0.601135  0  4.159159  0
C  C71  1  0.20228482  0.51190502  0.41227915  1  1.553111  0  0.22474  0.601671  0  4.161636  0
C  C72  1  0.77219934  0.51491095  0.91364762  1  1.569322  0  0.223872  0.597318  0  4.172769  0
C  C73  1  0.74277543  0.51523567  0.41366124  1  1.548471  0  0.223469  0.59661  0  4.17354  0
C  C74  1  0.44078926  0.53784693  0.95528908  1  -0.046839  0  -0.022316  -0.055976  0  3.999894  0
C  C75  1  0.09739874  0.53864828  0.45526381  1  -0.050841  0  -0.022579  -0.05605  0  3.999708  0
C  C76  1  0.54332023  0.51851805  0.91681760  1  0.023187  0  -0.072426  -0.097424  0  3.93055  0
C  C77  1  0.97546466  0.51919756  0.41681514  1  -0.034921  0  -0.072126  -0.097056  0  3.928991  0
C  C78  1  0.66535553  0.53942119  0.95583940  1  -0.067359  0  -0.021492  -0.055123  0  3.997983  0
C  C79  1  0.87423596  0.53994719  0.45585959  1  -0.009399  0  -0.021482  -0.054721  0  3.997595  0
C  C80  1  0.68646812  0.58363260  0.03411897  1  -0.084609  0  -0.073722  -0.071991  0  3.939968  0
C  C81  1  0.89729506  0.58414345  0.53412155  1  -0.090097  0  -0.073851  -0.07247  0  3.941289  0
C  C82  1  0.58564484  0.60543309  0.07275331  1  0.02917  0  -0.085875  -0.07264  0  3.984581  0
C  C83  1  0.02002513  0.60619114  0.57275634  1  0.031401  0  -0.08585  -0.072375  0  3.98381  0
C  C84  1  0.46218812  0.58124919  0.03360146  1  -0.030628  0  -0.072795  -0.073441  0  3.935678  0
C  C85  1  0.11941566  0.58217325  0.53358675  1  -0.068664  0  -0.072908  -0.073947  0  3.934983  0
C  C86  1  0.14355757  0.70480200  0.76827199  1  1.581198  0  0.219551  0.59884  0  4.173213  0
C  C87  1  0.56132420  0.70488947  0.26818372  1  1.556906  0  0.219425  0.59885  0  4.173379  0
C  C88  1  0.59144106  0.11952715  0.74421303  1  1.563072  0  0.209365  0.586703  0  4.194373  0
C  C89  1  0.52822950  0.11972360  0.24420711  1  1.558913  0  0.210027  0.587492  0  4.191713  0
C  C90  1  0.22289704  0.85564797  0.76672021  1  0.033631  0  -0.021814  -0.053826  0  3.980614  0
C  C91  1  0.63279415  0.85571754  0.26662232  1  -0.022761  0  -0.021831  -0.053904  0  3.980486  0
C  C92  1  0.36638193  0.91664719  0.75863359  1  -0.091707  0  -0.074833  -0.099171  0  3.923844  0
C  C93  1  0.55033458  0.91672716  0.25854303  1  0.008522  0  -0.074626  -0.098917  0  3.923202  0
C  C94  1  0.43832936  0.05383196  0.75341999  1  -0.041049  0  -0.024417  -0.052298  0  3.995392  0
C  C95  1  0.61562278  0.05394102  0.25334390  1  -0.082391  0  -0.024531  -0.052583  0  3.99444  0
C  C96  1  0.36687991  0.13160752  0.75764957  1  -0.012999  0  -0.077828  -0.082618  0  3.954086  0
C  C97  1  0.76483086  0.13172206  0.25759046  1  -0.054371  0  -0.077828  -0.082083  0  3.953771  0
C  C98  1  0.22496125  0.07265517  0.76721364  1  -0.096689  0  -0.092546  -0.085808  0  3.996425  0
C  C99  1  0.84778439  0.07276117  0.26714346  1  -0.088215  0  -0.092466  -0.085793  0  3.996836  0
C  C100  1  0.15282558  0.93459471  0.77101125  1  -0.058719  0  -0.075527  -0.072986  0  3.944984  0
C  C101  1  0.78183510  0.93468457  0.27092543  1  0.040821  0  -0.075553  -0.073243  0  3.943758  0
C  C102  1  0.70490049  0.32879557  0.60021298  1  1.363068  0  0.251311  0.528213  0  4.017043  0
C  C103  1  0.62386803  0.32865307  0.10020022  1  1.365727  0  0.251252  0.527528  0  4.017696  0
C  C104  1  0.58665342  0.36059576  0.62120842  1  -0.071415  0  -0.230781  -0.512019  0  3.905847  0
C  C105  1  0.77401013  0.36071590  0.12119308  1  -0.048887  0  -0.230779  -0.511923  0  3.906091  0
C  C106  1  0.56737953  0.17275497  0.46829141  1  0.208222  0  -0.130266  -0.264684  0  3.889677  0
C  C107  1  0.60535238  0.17235699  0.96830034  1  0.234657  0  -0.129898  -0.264982  0  3.888191  0
C  C108  1  0.80324832  0.20796752  0.50588929  1  0.244501  0  -0.135248  -0.267753  0  3.89478  0
C  C109  1  0.40453142  0.20724605  0.00592535  1  0.235844  0  -0.135977  -0.268656  0  3.894795  0
N  N110  1  0.69109559  0.24121948  0.52863824  1  -1.184978  0  -0.272471  -0.018912  0  3.648372  0
N  N111  1  0.55003710  0.24078343  0.02866463  1  -1.186162  0  -0.272782  -0.018749  0  3.648361  0
O  O112  1  0.92939107  0.09134466  0.66656525  1  -1.177058  0  -0.318484  -0.551993  0  2.343434  0
O  O113  1  0.16207099  0.09131132  0.16651318  1  -1.173607  0  -0.31815  -0.551502  0  2.34364  0
O  O114  1  0.16755578  0.73348369  0.94526182  1  -1.196744  0  -0.572035  -0.742312  0  2.021267  0
O  O115  1  0.56616988  0.73400473  0.44536907  1  -1.201476  0  -0.5722  -0.742003  0  2.02067  0
O  O116  1  0.13659023  0.29789432  0.67374249  1  -1.179781  0  -0.314582  -0.543787  0  2.326606  0
O  O117  1  0.16132431  0.29787974  0.17371531  1  -1.176338  0  -0.314678  -0.543819  0  2.324922  0
O  O118  1  0.33911927  0.28364773  0.44038122  1  -1.18571  0  -0.31405  -0.560359  0  2.317713  0
O  O119  1  0.94414124  0.28325881  0.94032287  1  -1.180079  0  -0.314219  -0.560591  0  2.318369  0
O  O120  1  0.17084577  0.11066447  0.33237136  1  -1.160208  0  -0.315272  -0.549011  0  2.342446  0
O  O121  1  0.93972116  0.11042255  0.83234972  1  -1.160774  0  -0.315271  -0.549115  0  2.341601  0
O  O122  1  0.21681671  0.52686106  0.94982121  1  -1.177174  0  -0.315841  -0.565924  0  2.346925  0
O  O123  1  0.31021019  0.52740556  0.44976144  1  -1.181529  0  -0.316394  -0.566201  0  2.347623  0
O  O124  1  0.29912103  0.47517162  0.84158298  1  -1.172525  0  -0.311134  -0.538955  0  2.330204  0
O  O125  1  0.17625848  0.47563804  0.34153272  1  -1.172877  0  -0.311301  -0.539409  0  2.33148  0
O  O126  1  0.86599303  0.50794511  0.94962253  1  -1.172786  0  -0.319319  -0.559089  0  2.339683  0
O  O127  1  0.64198783  0.50819587  0.44964588  1  -1.170688  0  -0.318917  -0.558953  0  2.340794  0
O  O128  1  0.76232842  0.50596406  0.84660977  1  -1.17952  0  -0.310359  -0.549502  0  2.36245  0
O  O129  1  0.74367221  0.50622352  0.34660871  1  -1.178145  0  -0.310046  -0.548958  0  2.3622  0
O  O130  1  0.21465434  0.63779989  0.75897204  1  -1.165948  0  -0.323889  -0.554597  0  2.32621  0
O  O131  1  0.42322871  0.63786520  0.25888066  1  -1.163584  0  -0.324038  -0.554962  0  2.32624  0
O  O132  1  0.01427375  0.65431193  0.77653418  1  -1.177589  0  -0.310542  -0.55649  0  2.308906  0
O  O133  1  0.64011398  0.65441746  0.27646119  1  -1.177486  0  -0.310287  -0.556051  0  2.30916  0
O  O134  1  0.96745636  0.37802034  0.79914701  1  -1.217644  0  -0.57329  -1.018257  0  2.510587  0
O  O135  1  0.41065859  0.37821257  0.29915163  1  -1.213576  0  -0.573308  -1.01834  0  2.510761  0
O  O136  1  0.64445630  0.22941619  0.72679004  1  -1.193745  0  -0.316261  -0.574932  0  2.333304  0
O  O137  1  0.58517204  0.22963347  0.22677750  1  -1.19492  0  -0.316667  -0.575436  0  2.332353  0
O  O138  1  0.65972787  0.05824237  0.75534610  1  -1.162478  0  -0.330214  -0.554631  0  2.292543  0
O  O139  1  0.39870254  0.05854415  0.25538844  1  -1.161969  0  -0.330282  -0.5548  0  2.292475  0
O  O140  1  0.81862384  0.38646370  0.64848638  1  -1.175768  0  -0.307279  -0.539304  0  2.371344  0
O  O141  1  0.56776091  0.38636701  0.14844668  1  -1.179077  0  -0.307268  -0.539211  0  2.372015  0
