# generated using pymatgen
data_ZnH17C21(NO)5
_symmetry_space_group_name_H-M   'P 1'
_cell_length_a   8.39345281
_cell_length_b   11.00346868
_cell_length_c   11.09230536
_cell_angle_alpha   90.00005451
_cell_angle_beta   104.42213118
_cell_angle_gamma   89.99977757
_symmetry_Int_Tables_number   1
_chemical_formula_structural   ZnH17C21(NO)5
_chemical_formula_sum   'Zn2 H34 C42 N10 O10'
_cell_volume   992.16954103
_cell_formula_units_Z   2
loop_
 _symmetry_equiv_pos_site_id
 _symmetry_equiv_pos_as_xyz
  1  'x, y, z'
loop_
 _atom_site_type_symbol
 _atom_site_label
 _atom_site_symmetry_multiplicity
 _atom_site_fract_x
 _atom_site_fract_y
 _atom_site_fract_z
 _atom_site_occupancy
 _atom_site_hle17_bader_spin_density
 _atom_site_hle17_ddec_charge
 _atom_site_hle17_ddec_spin_density
 _atom_site_hle17_ddec_sum_bond_order
 _atom_site_hle17_magmom
 _atom_site_hse06_10hf_bader_spin_density
 _atom_site_hse06_10hf_ddec_charge
 _atom_site_hse06_10hf_ddec_spin_density
 _atom_site_hse06_10hf_ddec_sum_bond_order
 _atom_site_hse06_10hf_magmom
 _atom_site_hse06_bader_spin_density
 _atom_site_hse06_ddec_charge
 _atom_site_hse06_ddec_spin_density
 _atom_site_hse06_ddec_sum_bond_order
 _atom_site_hse06_magmom
 _atom_site_pbe_bader_spin_density
 _atom_site_pbe_cm5_charge
 _atom_site_pbe_ddec_charge
 _atom_site_pbe_ddec_spin_density
 _atom_site_pbe_ddec_sum_bond_order
 _atom_site_pbe_magmom
Zn  Zn0  1  0.20972087  0.34612636  0.76905989  1  0  1.009299  0  1.850048  0  0  0.823028  0  2.313117  0  0  0.868411  0  2.261118  0  0  0.695187  0.791388  0  2.348676  0
Zn  Zn1  1  0.79027970  0.84612576  0.23093987  1  0  1.009241  0  1.850156  0  0  0.822932  0  2.313237  0  0  0.868317  0  2.261238  0  0  0.695171  0.791291  0  2.348806  0
H  H2  1  0.42884492  0.06857730  0.99263566  1  0  0.1268  0  0.952182  0  0  0.133465  0  1.015517  0  0  0.138224  0  1.010052  0  0  0.128721  0.129842  0  1.019755  0
H  H3  1  0.57116323  0.56857078  0.00736704  1  0  0.126797  0  0.952182  0  0  0.133448  0  1.015532  0  0  0.138208  0  1.010064  0  0  0.128711  0.129832  0  1.019763  0
H  H4  1  0.67326758  0.94533319  0.97252055  1  0  0.119581  0  0.971608  0  0  0.127515  0  1.031885  0  0  0.131427  0  1.030045  0  0  0.110842  0.124612  0  1.033541  0
H  H5  1  0.32673992  0.44533001  0.02748599  1  0  0.119558  0  0.971669  0  0  0.127462  0  1.031969  0  0  0.131373  0  1.030132  0  0  0.110837  0.12456  0  1.033629  0
H  H6  1  0.89306479  0.04843837  0.88677622  1  0  0.106855  0  0.929854  0  0  0.119407  0  0.986889  0  0  0.123013  0  0.983717  0  0  0.111603  0.116618  0  0.989506  0
H  H7  1  0.10694719  0.54843695  0.11323168  1  0  0.106861  0  0.929829  0  0  0.119409  0  0.986881  0  0  0.123013  0  0.983713  0  0  0.111625  0.116623  0  0.989498  0
H  H8  1  0.34950795  0.61339459  0.73212254  1  0  0.111539  0  0.984567  0  0  0.117633  0  1.049982  0  0  0.121173  0  1.047327  0  0  0.11692  0.114955  0  1.052117  0
H  H9  1  0.65049877  0.11339886  0.26788354  1  0  0.111482  0  0.984655  0  0  0.117585  0  1.050074  0  0  0.121114  0  1.047417  0  0  0.116922  0.114904  0  1.052209  0
H  H10  1  0.18968966  0.82061224  0.79110087  1  0  0.114928  0  0.944185  0  0  0.129929  0  0.99588  0  0  0.132557  0  0.994735  0  0  0.126404  0.127948  0  0.996967  0
H  H11  1  0.81031227  0.32061143  0.20889912  1  0  0.114967  0  0.944316  0  0  0.129978  0  0.996002  0  0  0.132605  0  0.994862  0  0  0.12642  0.128  0  0.997095  0
H  H12  1  0.90895597  0.50880224  0.82288082  1  0  0.112038  0  0.989146  0  0  0.117412  0  1.05789  0  0  0.120562  0  1.054339  0  0  0.134121  0.115035  0  1.060418  0
H  H13  1  0.09104635  0.00880172  0.17712256  1  0  0.112058  0  0.989224  0  0  0.117481  0  1.057918  0  0  0.120633  0  1.054363  0  0  0.134128  0.115103  0  1.060446  0
H  H14  1  0.95639837  0.82674014  0.91965137  1  0  0.094345  0  0.910657  0  0  0.110775  0  0.968685  0  0  0.111572  0  0.967806  0  0  0.115149  0.110056  0  0.969598  0
H  H15  1  0.04359614  0.32674058  0.08034726  1  0  0.094339  0  0.910679  0  0  0.110767  0  0.9687  0  0  0.111564  0  0.967822  0  0  0.115133  0.110039  0  0.96961  0
H  H16  1  0.82510451  0.70017751  0.90409262  1  0  0.116734  0  0.912721  0  0  0.128043  0  0.976599  0  0  0.130438  0  0.973876  0  0  0.123111  0.126163  0  0.978778  0
H  H17  1  0.17489558  0.20017939  0.09590782  1  0  0.116764  0  0.912646  0  0  0.128048  0  0.976555  0  0  0.130442  0  0.973831  0  0  0.123102  0.126157  0  0.978731  0
H  H18  1  0.94899035  0.90617680  0.66397451  1  0  0.07853  0  0.977317  0  0  0.088205  0  1.044218  0  0  0.090487  0  1.044057  0  0  0.094305  0.086509  0  1.044541  0
H  H19  1  0.05100258  0.40617291  0.33602932  1  0  0.078511  0  0.977363  0  0  0.088177  0  1.044274  0  0  0.090455  0  1.044111  0  0  0.094328  0.086484  0  1.044598  0
H  H20  1  0.74292884  0.01736639  0.50436104  1  0  0.095947  0  0.947734  0  0  0.111364  0  1.002566  0  0  0.113881  0  1.001823  0  0  0.103303  0.109483  0  1.003296  0
H  H21  1  0.25706236  0.51736489  0.49564030  1  0  0.096088  0  0.947683  0  0  0.111502  0  1.002494  0  0  0.114019  0  1.00175  0  0  0.103382  0.109581  0  1.003279  0
H  H22  1  0.35359327  0.86000041  0.64128532  1  0  0.08807  0  0.960168  0  0  0.101067  0  1.019481  0  0  0.103692  0  1.0188  0  0  0.098479  0.099204  0  1.020013  0
H  H23  1  0.64640107  0.36000569  0.35871241  1  0  0.08811  0  0.960172  0  0  0.101102  0  1.019485  0  0  0.103726  0  1.018805  0  0  0.098506  0.09924  0  1.020017  0
H  H24  1  0.56134795  0.74794552  0.80334787  1  0  0.097733  0  0.959497  0  0  0.105819  0  1.026283  0  0  0.108817  0  1.024768  0  0  0.101543  0.103651  0  1.027404  0
H  H25  1  0.43864822  0.24794762  0.19665370  1  0  0.09773  0  0.959417  0  0  0.105824  0  1.026194  0  0  0.10882  0  1.02468  0  0  0.101527  0.103656  0  1.027318  0
H  H26  1  0.33625780  0.95747231  0.39897644  1  0  0.115013  0  0.960327  0  0  0.128005  0  1.023036  0  0  0.129813  0  1.021713  0  0  0.117427  0.126579  0  1.024109  0
H  H27  1  0.66373605  0.45747141  0.60102219  1  0  0.115048  0  0.960289  0  0  0.128026  0  1.023  0  0  0.129835  0  1.021676  0  0  0.117433  0.126598  0  1.024079  0
H  H28  1  0.47301165  0.08282247  0.41782871  1  0  0.090739  0  0.927463  0  0  0.102747  0  0.994417  0  0  0.104026  0  0.993298  0  0  0.11201  0.101728  0  0.995353  0
H  H29  1  0.52698413  0.58282480  0.58217173  1  0  0.090708  0  0.927494  0  0  0.102783  0  0.994366  0  0  0.104062  0  0.993247  0  0  0.112037  0.101765  0  0.995302  0
H  H30  1  0.45463136  0.23210643  0.61656999  1  0  0.105813  0  0.94429  0  0  0.11184  0  1.013333  0  0  0.114305  0  1.010669  0  0  0.13681  0.109968  0  1.01527  0
H  H31  1  0.54536359  0.73210397  0.38342322  1  0  0.105866  0  0.94416  0  0  0.111878  0  1.013222  0  0  0.114343  0  1.010558  0  0  0.136832  0.110011  0  1.015161  0
H  H32  1  0.07716293  0.98313645  0.45680619  1  0  0.124655  0  0.958199  0  0  0.131438  0  1.024167  0  0  0.134847  0  1.021724  0  0  0.123604  0.128858  0  1.026156  0
H  H33  1  0.92283206  0.48313836  0.54319718  1  0  0.124679  0  0.958449  0  0  0.131431  0  1.024434  0  0  0.134836  0  1.021999  0  0  0.123638  0.128878  0  1.026392  0
H  H34  1  0.95499474  0.15898328  0.59553038  1  0  0.107586  0  0.986663  0  0  0.11549  0  1.049597  0  0  0.117928  0  1.048739  0  0  0.113898  0.113705  0  1.050284  0
H  H35  1  0.04500187  0.65897687  0.40447028  1  0  0.107714  0  0.986524  0  0  0.115493  0  1.049589  0  0  0.117931  0  1.048731  0  0  0.113896  0.113708  0  1.050279  0
C  C36  1  0.52514850  0.10375150  0.95193186  1  0  0.016708  0  3.578872  0  0  -0.02885  0  3.843819  0  0  -0.019774  0  3.852256  0  0  0.038661  -0.034883  0  3.838721  0
C  C37  1  0.47485699  0.60374803  0.04806858  1  0  0.016742  0  3.578903  0  0  -0.028797  0  3.843829  0  0  -0.019722  0  3.852269  0  0  0.03868  -0.034837  0  3.838739  0
C  C38  1  0.66257143  0.03947702  0.94141160  1  0  -0.087408  0  3.76063  0  0  -0.103341  0  4.026512  0  0  -0.107542  0  4.043704  0  0  -0.080975  -0.101071  0  4.015354  0
C  C39  1  0.33743440  0.53947396  0.05859064  1  0  -0.087491  0  3.760755  0  0  -0.103386  0  4.026643  0  0  -0.107587  0  4.043836  0  0  -0.081013  -0.101128  0  4.015513  0
C  C40  1  0.78188263  0.09608987  0.89324465  1  0  -0.035629  0  3.700343  0  0  -0.074527  0  3.967274  0  0  -0.067894  0  3.980338  0  0  -0.073923  -0.078561  0  3.958434  0
C  C41  1  0.21812414  0.59608903  0.10675692  1  0  -0.035523  0  3.700282  0  0  -0.074448  0  3.967212  0  0  -0.067816  0  3.980276  0  0  -0.073888  -0.078483  0  3.95838  0
C  C42  1  0.75736495  0.21585667  0.85142517  1  0  -0.077237  0  3.721702  0  0  -0.063861  0  3.970252  0  0  -0.070355  0  3.98701  0  0  -0.002771  -0.060194  0  3.959497  0
C  C43  1  0.24263748  0.71585761  0.14857121  1  0  -0.077255  0  3.721916  0  0  -0.063828  0  3.970408  0  0  -0.070319  0  3.987163  0  0  -0.002727  -0.06016  0  3.959655  0
C  C44  1  0.61706199  0.27863163  0.86292096  1  0  -0.019295  0  3.622544  0  0  -0.032012  0  3.873229  0  0  -0.027394  0  3.885425  0  0  0.106742  -0.035212  0  3.865482  0
C  C45  1  0.38293887  0.77863397  0.13707338  1  0  -0.019256  0  3.622746  0  0  -0.031978  0  3.87342  0  0  -0.02736  0  3.88561  0  0  0.106687  -0.035176  0  3.865674  0
C  C46  1  0.87511745  0.27454886  0.78510322  1  0  0.647051  0  3.945121  0  0  0.596569  0  4.247169  0  0  0.629759  0  4.239807  0  0  0.202999  0.574064  0  4.251389  0
C  C47  1  0.12488345  0.77454840  0.21489293  1  0  0.64702  0  3.945134  0  0  0.59651  0  4.247212  0  0  0.629699  0  4.239856  0  0  0.203013  0.574003  0  4.251439  0
C  C48  1  0.57982018  0.40849072  0.81993931  1  0  0.633667  0  3.988907  0  0  0.577718  0  4.301457  0  0  0.61194  0  4.290703  0  0  0.203526  0.554433  0  4.307796  0
C  C49  1  0.42019727  0.90848662  0.18006091  1  0  0.633543  0  3.988743  0  0  0.577593  0  4.301313  0  0  0.611817  0  4.290554  0  0  0.203516  0.554303  0  4.307651  0
C  C50  1  0.23344136  0.62378968  0.75685047  1  0  -0.002868  0  3.763576  0  0  -0.0381  0  4.031047  0  0  -0.036568  0  4.052382  0  0  -0.006307  -0.039037  0  4.016587  0
C  C51  1  0.76655795  0.12378994  0.24315697  1  0  -0.002634  0  3.763343  0  0  -0.03787  0  4.03079  0  0  -0.03632  0  4.05211  0  0  -0.00621  -0.038795  0  4.016322  0
C  C52  1  0.15567529  0.72543775  0.78570517  1  0  -0.076657  0  3.694217  0  0  -0.118681  0  3.95584  0  0  -0.118951  0  3.977563  0  0  -0.002044  -0.118363  0  3.9411  0
C  C53  1  0.84432713  0.22544321  0.21429663  1  0  -0.076861  0  3.694062  0  0  -0.118926  0  3.955718  0  0  -0.119195  0  3.977436  0  0  -0.002124  -0.118615  0  3.940993  0
C  C54  1  0.00859502  0.56256116  0.80393163  1  0  0.16843  0  3.626752  0  0  0.105495  0  3.890356  0  0  0.119432  0  3.902864  0  0  0.146289  0.096571  0  3.881631  0
C  C55  1  0.99140826  0.06256071  0.19607287  1  0  0.168343  0  3.627073  0  0  0.105302  0  3.890719  0  0  0.119237  0  3.903236  0  0  0.146275  0.096376  0  3.881995  0
C  C56  1  0.88997288  0.75918605  0.85258807  1  0  -0.046209  0  3.624649  0  0  -0.11179  0  3.87255  0  0  -0.107051  0  3.881912  0  0  -0.043791  -0.114905  0  3.866421  0
C  C57  1  0.11002323  0.25918636  0.14741260  1  0  -0.04633  0  3.624736  0  0  -0.111889  0  3.872583  0  0  -0.107153  0  3.881957  0  0  -0.043768  -0.11495  0  3.866381  0
C  C58  1  0.76871045  0.81978344  0.74582674  1  0  0.066987  0  3.745085  0  0  0.083874  0  3.98776  0  0  0.082665  0  4.01272  0  0  -0.015236  0.084684  0  3.970731  0
C  C59  1  0.23128534  0.31978621  0.25417302  1  0  0.066984  0  3.74501  0  0  0.083909  0  3.98762  0  0  0.082701  0  4.012579  0  0  -0.015276  0.084701  0  3.970588  0
C  C60  1  0.81876702  0.89511411  0.66039838  1  0  -0.115416  0  3.763442  0  0  -0.136313  0  4.014839  0  0  -0.139023  0  4.037447  0  0  -0.095646  -0.134341  0  3.999561  0
C  C61  1  0.18122594  0.39511439  0.33960183  1  0  -0.115343  0  3.76352  0  0  -0.136239  0  4.014894  0  0  -0.138944  0  4.037497  0  0  -0.095645  -0.134264  0  3.99961  0
C  C62  1  0.70307553  0.95885959  0.57066122  1  0  -0.104035  0  3.741146  0  0  -0.123304  0  3.987881  0  0  -0.12612  0  4.010216  0  0  -0.088773  -0.121583  0  3.973009  0
C  C63  1  0.29691588  0.45886143  0.42933967  1  0  -0.10426  0  3.7412  0  0  -0.123538  0  3.987959  0  0  -0.126354  0  4.010291  0  0  -0.088872  -0.121788  0  3.973102  0
C  C64  1  0.53503863  0.94888390  0.56403053  1  0  0.078811  0  3.742072  0  0  0.095449  0  3.985758  0  0  0.094961  0  4.010188  0  0  -0.009922  0.095805  0  3.969333  0
C  C65  1  0.46495281  0.44888797  0.43596765  1  0  0.078862  0  3.741899  0  0  0.095493  0  3.985601  0  0  0.095005  0  4.010031  0  0  -0.00994  0.095848  0  3.969168  0
C  C66  1  0.48456552  0.87070866  0.64706448  1  0  -0.116726  0  3.750121  0  0  -0.136924  0  3.99626  0  0  -0.139792  0  4.018474  0  0  -0.095007  -0.135079  0  3.981224  0
C  C67  1  0.51542630  0.37071432  0.35293280  1  0  -0.116811  0  3.750236  0  0  -0.137005  0  3.996382  0  0  -0.139874  0  4.018597  0  0  -0.095033  -0.135154  0  3.981341  0
C  C68  1  0.60015920  0.80704952  0.73699193  1  0  -0.115285  0  3.757841  0  0  -0.133548  0  4.007902  0  0  -0.136336  0  4.030071  0  0  -0.091276  -0.131433  0  3.992673  0
C  C69  1  0.39983664  0.30705362  0.26300692  1  0  -0.115241  0  3.757785  0  0  -0.133516  0  4.007814  0  0  -0.136301  0  4.029984  0  0  -0.091233  -0.131398  0  3.99259  0
C  C70  1  0.41126802  0.01962615  0.46755343  1  0  -0.055551  0  3.631577  0  0  -0.122569  0  3.878049  0  0  -0.118312  0  3.887331  0  0  -0.051722  -0.125358  0  3.871942  0
C  C71  1  0.58872806  0.51962916  0.53244521  1  0  -0.055615  0  3.631604  0  0  -0.12264  0  3.878038  0  0  -0.118386  0  3.887325  0  0  -0.051744  -0.125425  0  3.871931  0
C  C72  1  0.33513682  0.18832949  0.59466586  1  0  0.170474  0  3.633928  0  0  0.106915  0  3.899897  0  0  0.120531  0  3.914107  0  0  0.143474  0.098179  0  3.889995  0
C  C73  1  0.66486205  0.68832761  0.40532893  1  0  0.170405  0  3.633937  0  0  0.106832  0  3.89993  0  0  0.120445  0  3.91414  0  0  0.143454  0.098094  0  3.890038  0
C  C74  1  0.13426920  0.05984208  0.51242465  1  0  -0.065818  0  3.666945  0  0  -0.105723  0  3.925628  0  0  -0.104865  0  3.945158  0  0  -0.0011  -0.1062  0  3.912539  0
C  C75  1  0.86572674  0.55983514  0.48758120  1  0  -0.065916  0  3.666871  0  0  -0.105802  0  3.925564  0  0  -0.10494  0  3.945089  0  0  -0.001167  -0.106301  0  3.912456  0
C  C76  1  0.07673162  0.14570967  0.58098286  1  0  -0.01009  0  3.751652  0  0  -0.043908  0  4.014038  0  0  -0.04243  0  4.034722  0  0  -0.009904  -0.044851  0  4.000087  0
C  C77  1  0.92327117  0.64570976  0.41901442  1  0  -0.010106  0  3.751174  0  0  -0.043813  0  4.013569  0  0  -0.042336  0  4.034249  0  0  -0.009847  -0.04475  0  3.999626  0
N  N78  1  0.20345115  0.22511810  0.63216503  1  0  -0.387589  0  3.319166  0  0  -0.305028  0  3.615746  0  0  -0.325156  0  3.628199  0  0  -0.361229  -0.291457  0  3.607051  0
N  N79  1  0.79654263  0.72511307  0.36783067  1  0  -0.387656  0  3.319307  0  0  -0.305068  0  3.61584  0  0  -0.325196  0  3.628293  0  0  -0.361246  -0.2915  0  3.607155  0
N  N80  1  0.14074687  0.52257810  0.76902261  1  0  -0.398834  0  3.330555  0  0  -0.314107  0  3.623713  0  0  -0.335152  0  3.637636  0  0  -0.360413  -0.299866  0  3.613969  0
N  N81  1  0.85925908  0.02257990  0.23098235  1  0  -0.398791  0  3.330714  0  0  -0.314007  0  3.623858  0  0  -0.335053  0  3.637781  0  0  -0.360372  -0.299766  0  3.614108  0
N  N82  1  0.01395628  0.68497164  0.81489050  1  0  -0.045921  0  3.57177  0  0  0.048445  0  3.789546  0  0  0.033309  0  3.817322  0  0  -0.237186  0.058488  0  3.770589  0
N  N83  1  0.98604511  0.18497030  0.18511017  1  0  -0.045816  0  3.571835  0  0  0.048584  0  3.789602  0  0  0.033446  0  3.817387  0  0  -0.2372  0.058617  0  3.770629  0
N  N84  1  0.29730618  0.08853553  0.52211885  1  0  -0.049372  0  3.571393  0  0  0.045812  0  3.788333  0  0  0.03082  0  3.815143  0  0  -0.237539  0.055745  0  3.770005  0
N  N85  1  0.70268831  0.58853633  0.47787866  1  0  -0.04925  0  3.571464  0  0  0.045932  0  3.788398  0  0  0.030943  0  3.815207  0  0  -0.237514  0.055871  0  3.770068  0
N  N86  1  0.50480252  0.22137533  0.91369887  1  0  0.240481  0  3.699063  0  0  0.28936  0  3.958225  0  0  0.288174  0  3.979376  0  0  -0.114426  0.289451  0  3.94408  0
N  N87  1  0.49520112  0.72137365  0.08629864  1  0  0.240513  0  3.699022  0  0  0.289379  0  3.958194  0  0  0.288191  0  3.979342  0  0  -0.114393  0.289474  0  3.944045  0
O  O88  1  0.37266255  0.28048326  0.92959471  1  0  -0.540013  0  1.831957  0  0  -0.484641  0  2.085662  0  0  -0.506897  0  2.079269  0  0  -0.243911  -0.46875  0  2.089652  0
O  O89  1  0.62734200  0.78048026  0.07040122  1  0  -0.540109  0  1.831979  0  0  -0.484714  0  2.08564  0  0  -0.50698  0  2.079281  0  0  -0.243968  -0.468819  0  2.089621  0
O  O90  1  0.44557769  0.42398781  0.73775474  1  0  -0.637027  0  2.040331  0  0  -0.573117  0  2.299101  0  0  -0.60062  0  2.288962  0  0  -0.312917  -0.55326  0  2.305134  0
O  O91  1  0.55442241  0.92398339  0.26223689  1  0  -0.636788  0  2.040652  0  0  -0.572882  0  2.299413  0  0  -0.600382  0  2.289274  0  0  -0.312809  -0.553031  0  2.305449  0
O  O92  1  0.68438767  0.48757474  0.86751761  1  0  -0.601006  0  1.907066  0  0  -0.560867  0  2.134655  0  0  -0.584489  0  2.124684  0  0  -0.321834  -0.543738  0  2.140717  0
O  O93  1  0.31560968  0.98758090  0.13247719  1  0  -0.601103  0  1.906458  0  0  -0.560965  0  2.134031  0  0  -0.584594  0  2.124061  0  0  -0.321906  -0.543824  0  2.140086  0
O  O94  1  0.81679661  0.31190167  0.67608359  1  0  -0.614888  0  1.903306  0  0  -0.571093  0  2.125954  0  0  -0.593679  0  2.117433  0  0  -0.32359  -0.554913  0  2.131069  0
O  O95  1  0.18320660  0.81190113  0.32391662  1  0  -0.614913  0  1.90326  0  0  -0.571097  0  2.125913  0  0  -0.593681  0  2.117389  0  0  -0.323608  -0.554909  0  2.131024  0
O  O96  1  0.02631323  0.27622871  0.84635536  1  0  -0.635928  0  2.021163  0  0  -0.570516  0  2.285126  0  0  -0.598362  0  2.2727  0  0  -0.323728  -0.550693  0  2.292719  0
O  O97  1  0.97369015  0.77623022  0.15364395  1  0  -0.635878  0  2.021184  0  0  -0.570448  0  2.285147  0  0  -0.598293  0  2.272725  0  0  -0.323712  -0.550618  0  2.292732  0
