# generated using pymatgen
data_Cu2H11C14N5Cl2
_symmetry_space_group_name_H-M   'P 1'
_cell_length_a   8.04312389
_cell_length_b   9.46974018
_cell_length_c   10.97225462
_cell_angle_alpha   66.97053382
_cell_angle_beta   85.86628999
_cell_angle_gamma   67.33927915
_symmetry_Int_Tables_number   1
_chemical_formula_structural   Cu2H11C14N5Cl2
_chemical_formula_sum   'Cu4 H22 C28 N10 Cl4'
_cell_volume   706.68985568
_cell_formula_units_Z   2
loop_
 _symmetry_equiv_pos_site_id
 _symmetry_equiv_pos_as_xyz
  1  'x, y, z'
loop_
 _atom_site_type_symbol
 _atom_site_label
 _atom_site_symmetry_multiplicity
 _atom_site_fract_x
 _atom_site_fract_y
 _atom_site_fract_z
 _atom_site_occupancy
 _atom_site_pbe_bader_spin_density
 _atom_site_pbe_cm5_charge
 _atom_site_pbe_ddec_charge
 _atom_site_pbe_ddec_spin_density
 _atom_site_pbe_ddec_sum_bond_order
 _atom_site_pbe_magmom
Cu  Cu0  1  0.50044861  0.23540874  0.69356453  1  0  0.43489  0.34117  0  2.546943  0
Cu  Cu1  1  0.49955010  0.76458512  0.30644005  1  0  0.434899  0.341287  0  2.546731  0
Cu  Cu2  1  0.75562396  0.46358211  0.50675402  1  0  0.367562  0.303042  0  2.390683  0
Cu  Cu3  1  0.24435804  0.53643082  0.49323628  1  0  0.367598  0.303056  0  2.390803  0
H  H4  1  0.55712339  0.51734868  0.89487995  1  0  0.292338  0.291192  0  1.020736  0
H  H5  1  0.44288260  0.48265159  0.10511582  1  0  0.292287  0.291132  0  1.020664  0
H  H6  1  0.58055334  0.43693589  0.77135969  1  0  0.279711  0.292566  0  1.011706  0
H  H7  1  0.41944644  0.56306434  0.22863824  1  0  0.279711  0.292586  0  1.011666  0
H  H8  1  0.18472416  0.07978307  0.10819156  1  0  0.096766  0.122807  0  1.073161  0
H  H9  1  0.81529324  0.92021079  0.89180927  1  0  0.096754  0.122796  0  1.073147  0
H  H10  1  0.15317328  0.93427233  0.01788332  1  0  0.098802  0.112509  0  1.042054  0
H  H11  1  0.84684381  0.06572235  0.98212820  1  0  0.098735  0.112428  0  1.042199  0
H  H12  1  0.13798402  0.76087942  0.89963383  1  0  0.102739  0.098814  0  1.015448  0
H  H13  1  0.86202278  0.23910407  0.10038363  1  0  0.102685  0.098794  0  1.015532  0
H  H14  1  0.28481266  0.78711676  0.68568836  1  0  0.097494  0.112789  0  1.035881  0
H  H15  1  0.71518163  0.21288179  0.31432318  1  0  0.097499  0.112764  0  1.035795  0
H  H16  1  0.44289327  0.98272168  0.60137938  1  0  0.104915  0.080475  0  1.020174  0
H  H17  1  0.55709742  0.01727347  0.39862523  1  0  0.104919  0.080499  0  1.020157  0
H  H18  1  0.93723808  0.63473170  0.30342646  1  0  0.107559  0.083586  0  1.029859  0
H  H19  1  0.06275171  0.36527750  0.69656370  1  0  0.107475  0.083493  0  1.029901  0
H  H20  1  0.12337127  0.57807889  0.12495417  1  0  0.107494  0.115465  0  1.019941  0
H  H21  1  0.87663013  0.42192641  0.87503933  1  0  0.107539  0.115494  0  1.019911  0
H  H22  1  0.17184877  0.06649918  0.31625939  1  0  0.095497  0.109629  0  1.057459  0
H  H23  1  0.82813998  0.93350961  0.68374190  1  0  0.095472  0.109658  0  1.057429  0
H  H24  1  0.98449130  0.14514360  0.48872689  1  0  0.109167  0.086604  0  1.011596  0
H  H25  1  0.01549203  0.85486919  0.51126704  1  0  0.109218  0.086594  0  1.011506  0
C  C26  1  0.41528777  0.37043218  0.91079318  1  0  0.342561  0.579614  0  4.076248  0
C  C27  1  0.58471485  0.62956424  0.08920763  1  0  0.34255  0.579504  0  4.076778  0
C  C28  1  0.25310424  0.28793917  0.08853417  1  0  0.123765  0.24691  0  4.029192  0
C  C29  1  0.74690164  0.71205840  0.91146793  1  0  0.12379  0.246917  0  4.029385  0
C  C30  1  0.24579473  0.16637948  0.04915039  1  0  -0.106882  -0.300113  0  3.948679  0
C  C31  1  0.75421206  0.83361588  0.95084506  1  0  -0.106852  -0.300022  0  3.948495  0
C  C32  1  0.31444603  0.16454167  0.92872851  1  0  0.116323  0.212266  0  4.011111  0
C  C33  1  0.68556221  0.83545327  0.07127794  1  0  0.116295  0.212002  0  4.011065  0
C  C34  1  0.30198020  0.05355020  0.86912382  1  0  0.107617  0.157368  0  3.952497  0
C  C35  1  0.69803587  0.94644983  0.13087602  1  0  0.107697  0.157693  0  3.952266  0
C  C36  1  0.21245078  0.94500742  0.92385688  1  0  -0.081846  -0.138158  0  3.91624  0
C  C37  1  0.78756665  0.05499240  0.07614843  1  0  -0.081818  -0.138255  0  3.916697  0
C  C38  1  0.20450834  0.84806258  0.85824857  1  0  -0.074915  -0.02686  0  3.961447  0
C  C39  1  0.79550640  0.15192870  0.14175596  1  0  -0.074904  -0.026833  0  3.961484  0
C  C40  1  0.28461866  0.86256795  0.73920421  1  0  -0.086195  -0.11666  0  3.951116  0
C  C41  1  0.71538823  0.13742720  0.26079677  1  0  -0.086137  -0.116519  0  3.950874  0
C  C42  1  0.37394896  0.97080185  0.69194637  1  0  0.041194  0.098061  0  3.937683  0
C  C43  1  0.62605477  0.02919195  0.30805886  1  0  0.041069  0.097842  0  3.937694  0
C  C44  1  0.99098391  0.51081587  0.30234506  1  0  0.029688  0.077675  0  3.972623  0
C  C45  1  0.00899985  0.48919584  0.69764463  1  0  0.029802  0.077743  0  3.972852  0
C  C46  1  0.09514811  0.47821895  0.20296833  1  0  -0.084087  -0.14213  0  3.917844  0
C  C47  1  0.90485290  0.52178132  0.79702861  1  0  -0.084178  -0.142124  0  3.917978  0
C  C48  1  0.15821509  0.31866985  0.20141141  1  0  0.008543  0.076229  0  3.939215  0
C  C49  1  0.84178173  0.68132551  0.79858641  1  0  0.008667  0.076333  0  3.938997  0
C  C50  1  0.12123101  0.19491749  0.30812248  1  0  -0.082573  -0.156196  0  3.918282  0
C  C51  1  0.87876120  0.80508896  0.69187480  1  0  -0.082551  -0.156259  0  3.918198  0
C  C52  1  0.01670688  0.23711812  0.40445757  1  0  0.038191  0.092679  0  3.915962  0
C  C53  1  0.98327643  0.76289470  0.59553543  1  0  0.038058  0.092613  0  3.915947  0
N  N54  1  0.39250877  0.27121118  0.85597726  1  0  -0.368286  -0.401668  0  3.539026  0
N  N55  1  0.60749161  0.72878454  0.14401023  1  0  -0.368335  -0.401618  0  3.539446  0
N  N56  1  0.33947272  0.38807011  0.02070199  1  0  -0.323516  -0.433749  0  3.254264  0
N  N57  1  0.66053130  0.61193493  0.97929784  1  0  -0.323596  -0.433763  0  3.254361  0
N  N58  1  0.51565982  0.45761117  0.84965542  1  0  -0.573472  -0.625095  0  3.378655  0
N  N59  1  0.48435249  0.54238892  0.15034370  1  0  -0.573327  -0.624966  0  3.378651  0
N  N60  1  0.38573880  0.06244307  0.75580730  1  0  -0.352124  -0.249005  0  3.6043  0
N  N61  1  0.61426994  0.93754463  0.24419596  1  0  -0.352012  -0.249009  0  3.604172  0
N  N62  1  0.94577952  0.39400369  0.40034499  1  0  -0.377221  -0.208219  0  3.707167  0
N  N63  1  0.05420556  0.60600788  0.59964831  1  0  -0.377256  -0.208196  0  3.707333  0
Cl  Cl64  1  0.79816117  0.21071131  0.70515549  1  0  -0.303804  -0.470385  0  1.606798  0
Cl  Cl65  1  0.20183234  0.78928900  0.29484185  1  0  -0.303813  -0.470421  0  1.6069  0
Cl  Cl66  1  0.45397251  0.32454504  0.46514608  1  0  -0.287914  -0.423219  0  1.867572  0
Cl  Cl67  1  0.54601046  0.67545371  0.53486236  1  0  -0.28792  -0.42324  0  1.867489  0
