# generated using pymatgen
data_ZnH16C8N2(ClO2)2
_symmetry_space_group_name_H-M   'P 1'
_cell_length_a   9.71926203
_cell_length_b   9.99431080
_cell_length_c   13.05878258
_cell_angle_alpha   89.99995903
_cell_angle_beta   101.50387178
_cell_angle_gamma   90.00004541
_symmetry_Int_Tables_number   1
_chemical_formula_structural   ZnH16C8N2(ClO2)2
_chemical_formula_sum   'Zn4 H64 C32 N8 Cl8 O16'
_cell_volume   1243.01270503
_cell_formula_units_Z   4
loop_
 _symmetry_equiv_pos_site_id
 _symmetry_equiv_pos_as_xyz
  1  'x, y, z'
loop_
 _atom_site_type_symbol
 _atom_site_label
 _atom_site_symmetry_multiplicity
 _atom_site_fract_x
 _atom_site_fract_y
 _atom_site_fract_z
 _atom_site_occupancy
 _atom_site_hle17_bader_spin_density
 _atom_site_hle17_ddec_charge
 _atom_site_hle17_ddec_spin_density
 _atom_site_hle17_ddec_sum_bond_order
 _atom_site_hle17_magmom
 _atom_site_hse06_10hf_bader_spin_density
 _atom_site_hse06_10hf_ddec_charge
 _atom_site_hse06_10hf_ddec_spin_density
 _atom_site_hse06_10hf_ddec_sum_bond_order
 _atom_site_hse06_10hf_magmom
 _atom_site_hse06_bader_spin_density
 _atom_site_hse06_ddec_charge
 _atom_site_hse06_ddec_spin_density
 _atom_site_hse06_ddec_sum_bond_order
 _atom_site_hse06_magmom
 _atom_site_pbe_bader_spin_density
 _atom_site_pbe_cm5_charge
 _atom_site_pbe_ddec_charge
 _atom_site_pbe_ddec_spin_density
 _atom_site_pbe_ddec_sum_bond_order
 _atom_site_pbe_magmom
Zn  Zn0  1  0.22981688  0.07359587  0.20007098  1  0  0.972268  0  2.002887  0  0  0.806171  0  2.50468  0  0  0.852438  0  2.445283  0  0  0.537593  0.77469  0  2.544379  0
Zn  Zn1  1  0.77018153  0.57359649  0.29992916  1  0  0.972216  0  2.002939  0  0  0.806114  0  2.504729  0  0  0.852388  0  2.445335  0  0  0.537575  0.774636  0  2.544432  0
Zn  Zn2  1  0.77018433  0.92640197  0.79993028  1  0  0.972187  0  2.002945  0  0  0.806112  0  2.504698  0  0  0.852379  0  2.445305  0  0  0.537575  0.774632  0  2.544398  0
Zn  Zn3  1  0.22981759  0.42640335  0.70007101  1  0  0.972246  0  2.002899  0  0  0.80614  0  2.504686  0  0  0.852411  0  2.445286  0  0  0.537588  0.774663  0  2.544385  0
H  H4  1  0.23213498  0.96175898  0.57886027  1  0  0.278631  0  0.89589  0  0  0.26016  0  0.955816  0  0  0.26897  0  0.948994  0  0  0.309486  0.253944  0  0.960633  0
H  H5  1  0.76786487  0.46175757  0.92113992  1  0  0.278618  0  0.895888  0  0  0.260152  0  0.955801  0  0  0.268961  0  0.948981  0  0  0.309492  0.253936  0  0.960619  0
H  H6  1  0.76786518  0.03824286  0.42114006  1  0  0.278638  0  0.895854  0  0  0.26017  0  0.955782  0  0  0.268979  0  0.948959  0  0  0.309499  0.253954  0  0.9606  0
H  H7  1  0.23213425  0.53824227  0.07885949  1  0  0.278655  0  0.89587  0  0  0.260182  0  0.955796  0  0  0.268993  0  0.948972  0  0  0.309505  0.253967  0  0.960614  0
H  H8  1  0.90419529  0.63524849  0.55575656  1  0  0.318415  0  0.89187  0  0  0.296319  0  0.961794  0  0  0.302889  0  0.957202  0  0  0.283097  0.291679  0  0.965027  0
H  H9  1  0.09580433  0.13524954  0.94424301  1  0  0.318308  0  0.891986  0  0  0.296269  0  0.961836  0  0  0.302832  0  0.957266  0  0  0.283072  0.291628  0  0.965068  0
H  H10  1  0.09580593  0.36475134  0.44424316  1  0  0.318409  0  0.891897  0  0  0.29633  0  0.961812  0  0  0.302896  0  0.957235  0  0  0.283089  0.291691  0  0.965043  0
H  H11  1  0.90419479  0.86475130  0.05575716  1  0  0.318411  0  0.891892  0  0  0.296334  0  0.961804  0  0  0.302901  0  0.957218  0  0  0.28309  0.291693  0  0.965037  0
H  H12  1  0.80478442  0.76065679  0.58629485  1  0  0.34674  0  0.84018  0  0  0.324212  0  0.905771  0  0  0.331897  0  0.899293  0  0  0.315923  0.318656  0  0.910601  0
H  H13  1  0.19521424  0.26065694  0.91370451  1  0  0.346753  0  0.840167  0  0  0.324217  0  0.90577  0  0  0.331904  0  0.899291  0  0  0.315933  0.318662  0  0.9106  0
H  H14  1  0.19521470  0.23934305  0.41370456  1  0  0.346744  0  0.840166  0  0  0.324216  0  0.905753  0  0  0.331902  0  0.899275  0  0  0.315931  0.31866  0  0.910582  0
H  H15  1  0.80478487  0.73934390  0.08629566  1  0  0.346724  0  0.840198  0  0  0.324194  0  0.905791  0  0  0.33188  0  0.899314  0  0  0.315921  0.318638  0  0.910622  0
H  H16  1  0.86878863  0.77273774  0.47664037  1  0  0.336399  0  0.895286  0  0  0.311648  0  0.965572  0  0  0.320013  0  0.958767  0  0  0.300569  0.305728  0  0.970434  0
H  H17  1  0.13121097  0.27273821  0.02335908  1  0  0.336398  0  0.895298  0  0  0.311645  0  0.965584  0  0  0.320009  0  0.958779  0  0  0.300561  0.305724  0  0.970446  0
H  H18  1  0.13121154  0.22726210  0.52335920  1  0  0.336396  0  0.895288  0  0  0.311641  0  0.965583  0  0  0.320004  0  0.958781  0  0  0.300574  0.305721  0  0.970445  0
H  H19  1  0.86878815  0.72726263  0.97664110  1  0  0.3364  0  0.895285  0  0  0.311653  0  0.965562  0  0  0.320018  0  0.958759  0  0  0.300579  0.305733  0  0.970425  0
H  H20  1  0.31235960  0.72222180  0.43240845  1  0  0.116097  0  0.935692  0  0  0.130386  0  0.998893  0  0  0.132185  0  0.998952  0  0  0.104543  0.128945  0  0.999039  0
H  H21  1  0.68763996  0.22222166  0.06759178  1  0  0.116116  0  0.935661  0  0  0.130405  0  0.99886  0  0  0.132201  0  0.998917  0  0  0.104554  0.128962  0  0.999007  0
H  H22  1  0.68764057  0.27777603  0.56759188  1  0  0.116124  0  0.935672  0  0  0.130403  0  0.998881  0  0  0.132201  0  0.998939  0  0  0.10455  0.12896  0  0.999028  0
H  H23  1  0.31235916  0.77777818  0.93240763  1  0  0.116107  0  0.935688  0  0  0.130387  0  0.99889  0  0  0.132185  0  0.998946  0  0  0.104536  0.128944  0  0.999036  0
H  H24  1  0.47982383  0.78880174  0.44100794  1  0  0.131698  0  0.920322  0  0  0.145663  0  0.978848  0  0  0.148319  0  0.977657  0  0  0.105412  0.143679  0  0.979743  0
H  H25  1  0.52017578  0.28880148  0.05899226  1  0  0.131673  0  0.920338  0  0  0.14563  0  0.978862  0  0  0.148284  0  0.977674  0  0  0.105412  0.143648  0  0.979756  0
H  H26  1  0.52017634  0.21119609  0.55899315  1  0  0.131704  0  0.92035  0  0  0.14566  0  0.978873  0  0  0.148313  0  0.977686  0  0  0.105409  0.143674  0  0.97977  0
H  H27  1  0.47982334  0.71119836  0.94100715  1  0  0.131695  0  0.920363  0  0  0.145651  0  0.978881  0  0  0.148305  0  0.977692  0  0  0.10541  0.143665  0  0.979778  0
H  H28  1  0.43059377  0.73376333  0.61536815  1  0  0.095573  0  0.916802  0  0  0.109331  0  0.979471  0  0  0.110795  0  0.978778  0  0  0.115114  0.108198  0  0.979962  0
H  H29  1  0.56940592  0.23376280  0.88463138  1  0  0.09559  0  0.916827  0  0  0.109361  0  0.979475  0  0  0.110824  0  0.978783  0  0  0.115129  0.108213  0  0.979983  0
H  H30  1  0.56940640  0.26623751  0.38463218  1  0  0.095571  0  0.916789  0  0  0.109327  0  0.979462  0  0  0.110792  0  0.978773  0  0  0.115117  0.108194  0  0.979954  0
H  H31  1  0.43059320  0.76623704  0.11536803  1  0  0.095555  0  0.91679  0  0  0.109321  0  0.979472  0  0  0.110785  0  0.978779  0  0  0.115097  0.108188  0  0.979963  0
H  H32  1  0.47299134  0.90550706  0.60503779  1  0  0.084881  0  0.92996  0  0  0.100539  0  0.989826  0  0  0.100979  0  0.990556  0  0  0.114255  0.100134  0  0.989462  0
H  H33  1  0.52700847  0.40550749  0.89496320  1  0  0.084869  0  0.929952  0  0  0.100528  0  0.989826  0  0  0.100968  0  0.990558  0  0  0.114254  0.100124  0  0.989459  0
H  H34  1  0.52700883  0.09449378  0.39496178  1  0  0.084845  0  0.929974  0  0  0.100501  0  0.989849  0  0  0.100941  0  0.99058  0  0  0.114243  0.100097  0  0.989483  0
H  H35  1  0.47299065  0.59449335  0.10503774  1  0  0.084847  0  0.929953  0  0  0.100514  0  0.989833  0  0  0.100955  0  0.990562  0  0  0.11425  0.100111  0  0.989467  0
H  H36  1  0.36579964  0.80809553  0.76295981  1  0  0.092292  0  0.933716  0  0  0.104174  0  0.998645  0  0  0.105809  0  0.997831  0  0  0.113453  0.103472  0  0.998423  0
H  H37  1  0.63419906  0.30809518  0.73704029  1  0  0.09229  0  0.933729  0  0  0.104178  0  0.998653  0  0  0.105811  0  0.997841  0  0  0.113451  0.103477  0  0.998431  0
H  H38  1  0.63419843  0.19190531  0.23703944  1  0  0.092283  0  0.933727  0  0  0.104167  0  0.998652  0  0  0.105801  0  0.997841  0  0  0.113443  0.103465  0  0.998431  0
H  H39  1  0.36580111  0.69190466  0.26295927  1  0  0.092295  0  0.933721  0  0  0.104176  0  0.998658  0  0  0.105811  0  0.997842  0  0  0.113442  0.103475  0  0.998437  0
H  H40  1  0.19503365  0.87424810  0.75671561  1  0  0.078259  0  0.974678  0  0  0.093268  0  1.037809  0  0  0.093977  0  1.038154  0  0  0.10146  0.092675  0  1.037657  0
H  H41  1  0.80496614  0.37424888  0.74328463  1  0  0.078267  0  0.974703  0  0  0.093284  0  1.037828  0  0  0.093992  0  1.038172  0  0  0.101466  0.09269  0  1.037677  0
H  H42  1  0.80496652  0.12575274  0.24328396  1  0  0.078281  0  0.974695  0  0  0.093302  0  1.037805  0  0  0.094011  0  1.03815  0  0  0.10147  0.092709  0  1.037652  0
H  H43  1  0.19503403  0.62575196  0.25671570  1  0  0.078287  0  0.974672  0  0  0.0933  0  1.037802  0  0  0.094009  0  1.038145  0  0  0.101467  0.092706  0  1.03765  0
H  H44  1  0.37204263  0.02901325  0.84883202  1  0  0.132486  0  0.934945  0  0  0.14399  0  0.997717  0  0  0.146468  0  0.997077  0  0  0.098877  0.142202  0  0.998193  0
H  H45  1  0.62795796  0.52901490  0.65117005  1  0  0.132515  0  0.934837  0  0  0.144006  0  0.99762  0  0  0.146495  0  0.996967  0  0  0.098859  0.142218  0  0.998096  0
H  H46  1  0.62795753  0.97098558  0.15116831  1  0  0.132502  0  0.934934  0  0  0.144013  0  0.997703  0  0  0.146489  0  0.997064  0  0  0.098884  0.142224  0  0.998179  0
H  H47  1  0.37204221  0.47098493  0.34883028  1  0  0.132509  0  0.934841  0  0  0.144  0  0.997624  0  0  0.146489  0  0.996971  0  0  0.098865  0.142211  0  0.9981  0
H  H48  1  0.45453231  0.04307734  0.74237665  1  0  0.121333  0  0.948653  0  0  0.13109  0  1.016581  0  0  0.133902  0  1.015315  0  0  0.100486  0.128915  0  1.017695  0
H  H49  1  0.54546830  0.54307682  0.75762389  1  0  0.121364  0  0.948615  0  0  0.131095  0  1.016564  0  0  0.133907  0  1.0153  0  0  0.100486  0.12892  0  1.017679  0
H  H50  1  0.54546786  0.95692250  0.25762291  1  0  0.12134  0  0.948652  0  0  0.131103  0  1.016578  0  0  0.133917  0  1.015309  0  0  0.100486  0.128928  0  1.017691  0
H  H51  1  0.45453292  0.45692301  0.24237584  1  0  0.121373  0  0.94859  0  0  0.131102  0  1.016542  0  0  0.133912  0  1.015283  0  0  0.100495  0.128928  0  1.017656  0
H  H52  1  0.18469484  0.67043522  0.59545095  1  0  0.085702  0  0.956623  0  0  0.093362  0  1.03062  0  0  0.094566  0  1.030211  0  0  0.102785  0.092182  0  1.031345  0
H  H53  1  0.81530481  0.17043485  0.90454938  1  0  0.085686  0  0.956641  0  0  0.093344  0  1.030631  0  0  0.094549  0  1.030226  0  0  0.102775  0.092164  0  1.031356  0
H  H54  1  0.81530428  0.32956562  0.40454923  1  0  0.085709  0  0.956648  0  0  0.093355  0  1.030631  0  0  0.094559  0  1.030225  0  0  0.102777  0.092176  0  1.031354  0
H  H55  1  0.18469431  0.82956498  0.09545080  1  0  0.085685  0  0.956627  0  0  0.093335  0  1.03062  0  0  0.094539  0  1.030212  0  0  0.102745  0.092153  0  1.031346  0
H  H56  1  0.12220603  0.77837165  0.48869296  1  0  0.094174  0  0.92606  0  0  0.108527  0  0.984582  0  0  0.109474  0  0.984761  0  0  0.114043  0.107661  0  0.984656  0
H  H57  1  0.87779462  0.27837170  0.01130664  1  0  0.094183  0  0.926042  0  0  0.108539  0  0.984562  0  0  0.109484  0  0.984741  0  0  0.11405  0.107671  0  0.984636  0
H  H58  1  0.87779414  0.22162919  0.51130661  1  0  0.094126  0  0.925967  0  0  0.108447  0  0.984512  0  0  0.109391  0  0.984694  0  0  0.11401  0.107582  0  0.984587  0
H  H59  1  0.12220555  0.72162913  0.98869293  1  0  0.094176  0  0.92609  0  0  0.108493  0  0.984627  0  0  0.109437  0  0.984807  0  0  0.114039  0.107627  0  0.984703  0
H  H60  1  0.02405226  0.77219000  0.69779202  1  0  0.079359  0  0.939332  0  0  0.09078  0  1.003303  0  0  0.091815  0  1.003104  0  0  0.106188  0.089967  0  1.003477  0
H  H61  1  0.97594536  0.27218785  0.80220718  1  0  0.079456  0  0.939233  0  0  0.090802  0  1.003277  0  0  0.091839  0  1.003075  0  0  0.106195  0.090001  0  1.003456  0
H  H62  1  0.97594581  0.22781284  0.30220724  1  0  0.079459  0  0.939212  0  0  0.0908  0  1.003269  0  0  0.091835  0  1.003067  0  0  0.106194  0.089997  0  1.003447  0
H  H63  1  0.02405376  0.72780998  0.19779299  1  0  0.079458  0  0.93921  0  0  0.090803  0  1.003257  0  0  0.091839  0  1.003057  0  0  0.106193  0.089998  0  1.003433  0
H  H64  1  0.99453579  0.91344877  0.61405012  1  0  0.095285  0  0.916788  0  0  0.106369  0  0.979955  0  0  0.108123  0  0.979114  0  0  0.115706  0.105029  0  0.980703  0
H  H65  1  0.00546298  0.41344781  0.88594764  1  0  0.095253  0  0.916833  0  0  0.106364  0  0.979964  0  0  0.108103  0  0.97914  0  0  0.115722  0.105034  0  0.98072  0
H  H66  1  0.00546228  0.08655306  0.38594760  1  0  0.095273  0  0.916826  0  0  0.106381  0  0.979953  0  0  0.108119  0  0.97913  0  0  0.115726  0.105051  0  0.980707  0
H  H67  1  0.99453614  0.58655203  0.11405100  1  0  0.095246  0  0.916828  0  0  0.106366  0  0.979945  0  0  0.108123  0  0.979099  0  0  0.115711  0.105032  0  0.980698  0
C  C68  1  0.31146462  0.93099960  0.39400504  1  0  0.692685  0  3.859187  0  0  0.645297  0  4.161971  0  0  0.678393  0  4.155037  0  0  0.204247  0.622678  0  4.166034  0
C  C69  1  0.68853509  0.43100042  0.10599586  1  0  0.692825  0  3.859052  0  0  0.645385  0  4.161904  0  0  0.678483  0  4.154967  0  0  0.204333  0.622768  0  4.165966  0
C  C70  1  0.68853765  0.06899824  0.60599560  1  0  0.692664  0  3.859141  0  0  0.645264  0  4.161949  0  0  0.678363  0  4.155015  0  0  0.204234  0.622648  0  4.166012  0
C  C71  1  0.31146403  0.56899942  0.89400508  1  0  0.692693  0  3.859318  0  0  0.64529  0  4.162108  0  0  0.678389  0  4.155172  0  0  0.204264  0.622673  0  4.166169  0
C  C72  1  0.37615580  0.81145859  0.45851972  1  0  -0.30366  0  3.674005  0  0  -0.344893  0  3.927713  0  0  -0.351247  0  3.935443  0  0  -0.166705  -0.340347  0  3.922101  0
C  C73  1  0.62384383  0.31145742  0.04147970  1  0  -0.303671  0  3.673991  0  0  -0.344876  0  3.927702  0  0  -0.351224  0  3.935427  0  0  -0.166721  -0.340329  0  3.922086  0
C  C74  1  0.62384437  0.18854225  0.54148061  1  0  -0.303705  0  3.674009  0  0  -0.344909  0  3.92769  0  0  -0.351264  0  3.935423  0  0  -0.166702  -0.340363  0  3.92208  0
C  C75  1  0.37615634  0.68854242  0.95851986  1  0  -0.30372  0  3.674079  0  0  -0.344893  0  3.92775  0  0  -0.351247  0  3.935481  0  0  -0.166704  -0.340346  0  3.922138  0
C  C76  1  0.39505056  0.82823008  0.57609600  1  0  0.030707  0  3.531398  0  0  -0.032415  0  3.791332  0  0  -0.027699  0  3.801096  0  0  -0.059215  -0.035437  0  3.784591  0
C  C77  1  0.60494919  0.32822954  0.92390502  1  0  0.030677  0  3.531525  0  0  -0.032465  0  3.791452  0  0  -0.027748  0  3.801213  0  0  -0.059237  -0.035476  0  3.784711  0
C  C78  1  0.60494856  0.17176976  0.42390494  1  0  0.030754  0  3.531436  0  0  -0.032368  0  3.791363  0  0  -0.027655  0  3.801132  0  0  -0.059216  -0.03539  0  3.784621  0
C  C79  1  0.39505098  0.67177030  0.07609531  1  0  0.030775  0  3.531339  0  0  -0.032414  0  3.791344  0  0  -0.027696  0  3.801105  0  0  -0.059222  -0.035435  0  3.784601  0
C  C80  1  0.29346057  0.88786590  0.72944145  1  0  0.019668  0  3.533834  0  0  -0.04011  0  3.783406  0  0  -0.036217  0  3.794741  0  0  -0.06659  -0.042789  0  3.775333  0
C  C81  1  0.70653818  0.38786658  0.77055862  1  0  0.019648  0  3.533871  0  0  -0.040131  0  3.78342  0  0  -0.036236  0  3.794753  0  0  -0.066579  -0.042809  0  3.775348  0
C  C82  1  0.70653855  0.11213394  0.27055796  1  0  0.019645  0  3.533864  0  0  -0.040137  0  3.783454  0  0  -0.036245  0  3.79479  0  0  -0.066588  -0.042816  0  3.77538  0
C  C83  1  0.29346199  0.61213326  0.22944094  1  0  0.019584  0  3.533826  0  0  -0.040189  0  3.783373  0  0  -0.036293  0  3.794701  0  0  -0.066597  -0.042868  0  3.7753  0
C  C84  1  0.35142297  0.02550129  0.76307838  1  0  -0.313003  0  3.679239  0  0  -0.351674  0  3.930983  0  0  -0.359065  0  3.939236  0  0  -0.173071  -0.346681  0  3.925365  0
C  C85  1  0.64857657  0.52550287  0.73692277  1  0  -0.313052  0  3.679184  0  0  -0.351708  0  3.930932  0  0  -0.359109  0  3.939175  0  0  -0.173049  -0.346716  0  3.925317  0
C  C86  1  0.64857720  0.97449855  0.23692195  1  0  -0.313017  0  3.67927  0  0  -0.351722  0  3.931011  0  0  -0.35911  0  3.939261  0  0  -0.17308  -0.346731  0  3.925402  0
C  C87  1  0.35142360  0.47449796  0.26307679  1  0  -0.313023  0  3.679137  0  0  -0.351673  0  3.930876  0  0  -0.359077  0  3.939125  0  0  -0.17306  -0.346683  0  3.925267  0
C  C88  1  0.25823347  0.14188148  0.71891531  1  0  0.717456  0  3.818886  0  0  0.664835  0  4.124311  0  0  0.698498  0  4.11696  0  0  0.211848  0.642059  0  4.128334  0
C  C89  1  0.74176720  0.64188110  0.78108748  1  0  0.717371  0  3.81904  0  0  0.664826  0  4.124364  0  0  0.698493  0  4.117012  0  0  0.21184  0.64205  0  4.128389  0
C  C90  1  0.74176774  0.85811835  0.28108671  1  0  0.717361  0  3.818952  0  0  0.664811  0  4.124298  0  0  0.698474  0  4.116945  0  0  0.211828  0.642034  0  4.128322  0
C  C91  1  0.25823402  0.35811774  0.21891224  1  0  0.717343  0  3.819005  0  0  0.664784  0  4.124352  0  0  0.69845  0  4.117002  0  0  0.21181  0.642008  0  4.128374  0
C  C92  1  0.14619154  0.77188593  0.57425799  1  0  -0.026044  0  3.512892  0  0  -0.080909  0  3.758309  0  0  -0.078605  0  3.770464  0  0  -0.060419  -0.082264  0  3.749987  0
C  C93  1  0.85380713  0.27188558  0.92574213  1  0  -0.026041  0  3.512914  0  0  -0.080898  0  3.758315  0  0  -0.078594  0  3.770465  0  0  -0.060409  -0.082238  0  3.750008  0
C  C94  1  0.85380758  0.22811491  0.42574142  1  0  -0.026044  0  3.512819  0  0  -0.080821  0  3.758133  0  0  -0.078506  0  3.770265  0  0  -0.060385  -0.082164  0  3.749827  0
C  C95  1  0.14619094  0.72811426  0.07425788  1  0  -0.02604  0  3.512968  0  0  -0.080822  0  3.75829  0  0  -0.078511  0  3.770433  0  0  -0.060335  -0.082171  0  3.749983  0
C  C96  1  0.01569858  0.80557803  0.61695911  1  0  0.046671  0  3.558227  0  0  -0.012843  0  3.818965  0  0  -0.00949  0  3.828715  0  0  -0.06457  -0.01501  0  3.812191  0
C  C97  1  0.98430116  0.30557681  0.88304039  1  0  0.046652  0  3.558186  0  0  -0.012841  0  3.818951  0  0  -0.009479  0  3.828703  0  0  -0.064556  -0.015042  0  3.812199  0
C  C98  1  0.98430054  0.19442381  0.38304030  1  0  0.046635  0  3.558186  0  0  -0.01285  0  3.818884  0  0  -0.009487  0  3.828637  0  0  -0.064563  -0.015057  0  3.812151  0
C  C99  1  0.01569901  0.69442302  0.11695994  1  0  0.046633  0  3.558195  0  0  -0.012863  0  3.818923  0  0  -0.009513  0  3.828679  0  0  -0.064572  -0.015041  0  3.812142  0
N  N100  1  0.26326062  0.86826779  0.61241576  1  0  -0.109587  0  3.339865  0  0  -0.024496  0  3.548428  0  0  -0.037943  0  3.565922  0  0  -0.350415  -0.015352  0  3.536391  0
N  N101  1  0.73673917  0.36826738  0.88758448  1  0  -0.109592  0  3.339962  0  0  -0.024495  0  3.548533  0  0  -0.037942  0  3.566025  0  0  -0.350461  -0.015352  0  3.53649  0
N  N102  1  0.73673850  0.13173305  0.38758442  1  0  -0.109587  0  3.339901  0  0  -0.024513  0  3.548449  0  0  -0.037958  0  3.565942  0  0  -0.350436  -0.015368  0  3.53641  0
N  N103  1  0.26325995  0.63173245  0.11241493  1  0  -0.109575  0  3.339814  0  0  -0.02448  0  3.548384  0  0  -0.037928  0  3.56588  0  0  -0.350438  -0.015339  0  3.536347  0
N  N104  1  0.89109642  0.73829612  0.55425800  1  0  -0.499991  0  3.250604  0  0  -0.451348  0  3.458065  0  0  -0.465932  0  3.456549  0  0  -0.620464  -0.441295  0  3.459261  0
N  N105  1  0.10890328  0.23829717  0.94574229  1  0  -0.499903  0  3.250763  0  0  -0.451293  0  3.458167  0  0  -0.465879  0  3.45664  0  0  -0.620455  -0.441227  0  3.459381  0
N  N106  1  0.10890375  0.26170372  0.44574233  1  0  -0.499981  0  3.250655  0  0  -0.451354  0  3.458076  0  0  -0.465941  0  3.456556  0  0  -0.620461  -0.441289  0  3.459288  0
N  N107  1  0.89109584  0.76170367  0.05425788  1  0  -0.499973  0  3.250681  0  0  -0.451348  0  3.458104  0  0  -0.465935  0  3.456587  0  0  -0.620463  -0.441289  0  3.459314  0
Cl  Cl108  1  0.34500835  0.05620508  0.06592077  1  0  -0.581894  0  0.907625  0  0  -0.514506  0  1.178127  0  0  -0.531512  0  1.15534  0  0  -0.306202  -0.502394  0  1.193511  0
Cl  Cl109  1  0.65499110  0.55620448  0.43407953  1  0  -0.581892  0  0.907682  0  0  -0.514491  0  1.178151  0  0  -0.531497  0  1.155368  0  0  -0.306186  -0.502376  0  1.193536  0
Cl  Cl110  1  0.65498972  0.94379576  0.93407848  1  0  -0.581889  0  0.907673  0  0  -0.5145  0  1.178163  0  0  -0.531505  0  1.155374  0  0  -0.306203  -0.502386  0  1.193546  0
Cl  Cl111  1  0.34501012  0.44379535  0.56592172  1  0  -0.581889  0  0.907665  0  0  -0.514491  0  1.178152  0  0  -0.531498  0  1.155368  0  0  -0.306197  -0.502378  0  1.193536  0
Cl  Cl112  1  0.99414885  0.05082423  0.14272126  1  0  -0.574149  0  0.967591  0  0  -0.514726  0  1.254248  0  0  -0.529717  0  1.229251  0  0  -0.285216  -0.503932  0  1.270927  0
Cl  Cl113  1  0.00585060  0.55082621  0.35727905  1  0  -0.574127  0  0.967577  0  0  -0.514707  0  1.254234  0  0  -0.5297  0  1.229241  0  0  -0.285214  -0.503913  0  1.270913  0
Cl  Cl114  1  0.00585237  0.94917461  0.85728076  1  0  -0.574117  0  0.967601  0  0  -0.514708  0  1.254249  0  0  -0.529701  0  1.229258  0  0  -0.285217  -0.503914  0  1.27093  0
Cl  Cl115  1  0.99414852  0.44917563  0.64272190  1  0  -0.574163  0  0.967593  0  0  -0.514727  0  1.254236  0  0  -0.529721  0  1.229234  0  0  -0.28523  -0.503934  0  1.270915  0
O  O116  1  0.31647193  0.92644706  0.29574317  1  0  -0.659393  0  2.059317  0  0  -0.585127  0  2.335104  0  0  -0.614491  0  2.320464  0  0  -0.335941  -0.564917  0  2.343716  0
O  O117  1  0.68352673  0.42644678  0.20425758  1  0  -0.659453  0  2.059271  0  0  -0.585172  0  2.335089  0  0  -0.614535  0  2.320443  0  0  -0.335983  -0.564965  0  2.343707  0
O  O118  1  0.68353034  0.07354978  0.70425671  1  0  -0.659359  0  2.059326  0  0  -0.585099  0  2.335124  0  0  -0.614442  0  2.320431  0  0  -0.335915  -0.564884  0  2.34372  0
O  O119  1  0.31647134  0.57355306  0.79574244  1  0  -0.659386  0  2.059275  0  0  -0.585128  0  2.335084  0  0  -0.614489  0  2.320437  0  0  -0.33596  -0.564918  0  2.343699  0
O  O120  1  0.25751620  0.02414963  0.43685642  1  0  -0.616465  0  1.936025  0  0  -0.560941  0  2.156865  0  0  -0.583541  0  2.148572  0  0  -0.317678  -0.545406  0  2.162288  0
O  O121  1  0.74248218  0.52414946  0.06314297  1  0  -0.616497  0  1.935995  0  0  -0.56096  0  2.156872  0  0  -0.583563  0  2.148582  0  0  -0.317713  -0.545426  0  2.162294  0
O  O122  1  0.74248293  0.97584820  0.56314222  1  0  -0.61644  0  1.935978  0  0  -0.560924  0  2.156844  0  0  -0.583526  0  2.14855  0  0  -0.317688  -0.545388  0  2.162263  0
O  O123  1  0.25751694  0.47585038  0.93685644  1  0  -0.616442  0  1.936156  0  0  -0.560914  0  2.157014  0  0  -0.583515  0  2.148722  0  0  -0.31767  -0.545381  0  2.162437  0
O  O124  1  0.17243947  0.12820371  0.63330393  1  0  -0.629162  0  1.971666  0  0  -0.573744  0  2.196234  0  0  -0.597236  0  2.187061  0  0  -0.317471  -0.557698  0  2.201793  0
O  O125  1  0.82756120  0.62820431  0.86669811  1  0  -0.629133  0  1.971725  0  0  -0.573748  0  2.196248  0  0  -0.597248  0  2.187083  0  0  -0.317483  -0.557702  0  2.201809  0
O  O126  1  0.82756175  0.87179613  0.36669809  1  0  -0.629153  0  1.971731  0  0  -0.573746  0  2.196242  0  0  -0.59725  0  2.187087  0  0  -0.317479  -0.557699  0  2.201801  0
O  O127  1  0.17243897  0.37179553  0.13330069  1  0  -0.629167  0  1.971739  0  0  -0.573764  0  2.196258  0  0  -0.597271  0  2.187101  0  0  -0.317484  -0.557719  0  2.201818  0
O  O128  1  0.27929760  0.25138677  0.77214096  1  0  -0.653427  0  2.059922  0  0  -0.57838  0  2.335818  0  0  -0.606808  0  2.320297  0  0  -0.331116  -0.558974  0  2.345294  0
O  O129  1  0.72070420  0.75138642  0.72786041  1  0  -0.653349  0  2.059928  0  0  -0.578347  0  2.335808  0  0  -0.606772  0  2.32028  0  0  -0.331104  -0.55894  0  2.345283  0
O  O130  1  0.72070257  0.74861307  0.22786014  1  0  -0.653344  0  2.059875  0  0  -0.578348  0  2.335778  0  0  -0.606773  0  2.320251  0  0  -0.33111  -0.558942  0  2.345255  0
O  O131  1  0.27929807  0.24861342  0.27213794  1  0  -0.653358  0  2.059954  0  0  -0.578343  0  2.335827  0  0  -0.606749  0  2.320259  0  0  -0.331089  -0.558935  0  2.345301  0
