# generated using pymatgen
data_CuH13C8N3O4
_symmetry_space_group_name_H-M   'P 1'
_cell_length_a   5.15287200
_cell_length_b   8.91299546
_cell_length_c   12.62855145
_cell_angle_alpha   84.18016676
_cell_angle_beta   77.90953797
_cell_angle_gamma   86.12126841
_symmetry_Int_Tables_number   1
_chemical_formula_structural   CuH13C8N3O4
_chemical_formula_sum   'Cu2 H26 C16 N6 O8'
_cell_volume   563.56711063
_cell_formula_units_Z   2
loop_
 _symmetry_equiv_pos_site_id
 _symmetry_equiv_pos_as_xyz
  1  'x, y, z'
loop_
 _atom_site_type_symbol
 _atom_site_label
 _atom_site_symmetry_multiplicity
 _atom_site_fract_x
 _atom_site_fract_y
 _atom_site_fract_z
 _atom_site_occupancy
 _atom_site_pbe_cm5_charge
 _atom_site_pbe_ddec_charge
 _atom_site_pbe_ddec_spin_density
 _atom_site_pbe_ddec_sum_bond_order
 _atom_site_pbe_magmom
Cu  Cu0  1  0.64806166  0.44494156  0.62893402  1  0.737315  0.771161  0.721349  2.32066  0.546
Cu  Cu1  1  0.86311028  0.96204658  0.43381357  1  0.731005  0.764513  -0.715046  2.27703  -0.539
H  H2  1  0.20163680  0.14711985  0.93144107  1  0.092256  0.128448  0.000144  1.007318  0.0
H  H3  1  0.95708487  0.29937832  0.93974530  1  0.096572  0.14152  0.000968  0.994588  0.001
H  H4  1  0.29038882  0.33456773  0.94212163  1  0.094495  0.136204  -3.1e-05  1.008255  0.0
H  H5  1  0.11474157  0.22114318  0.74709879  1  0.114139  0.072366  0.000372  0.950957  0.0
H  H6  1  0.62487861  0.26949905  0.79303427  1  0.303097  0.292244  0.000777  0.938456  0.0
H  H7  1  0.55309445  0.17407530  0.69565350  1  0.301171  0.300487  0.001098  0.947935  0.0
H  H8  1  0.41969634  0.58220414  0.98789706  1  0.294966  0.308295  1.3e-05  1.004332  0.0
H  H9  1  0.62750170  0.62539042  0.85977934  1  0.297916  0.31927  1.6e-05  0.987123  0.0
H  H10  1  0.11260101  0.67772587  0.57729044  1  0.114756  0.090204  0.000639  0.986078  0.001
H  H11  1  0.00045612  0.70002585  0.36525254  1  0.30046  0.297613  -0.001499  0.945402  0.0
H  H12  1  0.90141836  0.82808361  0.27330949  1  0.298704  0.292676  -0.000616  0.953488  0.0
H  H13  1  0.70434159  0.50586403  0.15298658  1  0.299761  0.313672  1.9e-05  0.981559  0.0
H  H14  1  0.94014944  0.61412226  0.05841075  1  0.293647  0.319679  3e-06  0.98932  0.0
H  H15  1  0.12044369  0.91646390  0.65056965  1  0.090205  0.088715  0.000813  1.013671  0.001
H  H16  1  0.94820505  0.78465394  0.75093926  1  0.094003  0.092305  9.9e-05  1.028355  0.0
H  H17  1  0.53382587  0.83189844  0.74408306  1  0.096223  0.105587  0.000113  1.00558  0.0
H  H18  1  0.28166496  0.95865818  0.80604516  1  0.097352  0.105674  0.000487  1.002279  0.0
H  H19  1  0.31739097  0.74708488  0.12147819  1  0.089441  0.129841  -0.000102  1.062882  0.0
H  H20  1  0.55322092  0.88590407  0.11693248  1  0.095044  0.142765  -0.000946  0.995352  -0.001
H  H21  1  0.21122282  0.94169675  0.12433674  1  0.092367  0.132954  4.2e-05  0.988983  0.0
H  H22  1  0.43309519  0.74686802  0.30341784  1  0.110979  0.067983  -0.000496  0.9506  0.0
H  H23  1  0.39997251  0.18893389  0.45352776  1  0.115227  0.091584  -0.001287  0.981538  -0.001
H  H24  1  0.28557169  0.43380375  0.36401473  1  0.089482  0.086491  -0.000648  0.994397  -0.001
H  H25  1  0.44411838  0.30574591  0.26878585  1  0.097688  0.099761  -7.2e-05  1.015369  0.0
H  H26  1  0.84547000  0.39306983  0.31907776  1  0.098134  0.110291  -9.2e-05  0.986415  0.0
H  H27  1  0.98830069  0.24586621  0.23983398  1  0.109681  0.138645  -7.4e-05  0.969825  0.0
C  C28  1  0.16527750  0.26711581  0.90646283  1  -0.241736  -0.412976  0.002115  3.901006  0.002
C  C29  1  0.22560442  0.29746612  0.78275924  1  0.004041  0.119696  0.00045  3.849033  -0.002
C  C30  1  0.12779901  0.45752148  0.74527422  1  0.216086  0.451855  0.001365  4.140626  0.001
C  C31  1  0.25692691  0.68863189  0.62966914  1  0.003169  0.019856  -0.000574  3.898479  -0.003
C  C32  1  0.51756258  0.73463257  0.55261964  1  0.215528  0.565313  0.00276  4.107963  0.004
C  C33  1  0.14532370  0.81380306  0.70413008  1  -0.162785  -0.16677  0.00222  3.909929  0.002
C  C34  1  0.32242871  0.84241324  0.78292800  1  -0.160744  -0.272305  0.000374  3.896117  0.0
C  C35  1  0.26178475  0.74233916  0.88907131  1  0.233483  0.596416  1.1e-05  4.099575  0.0
C  C36  1  0.34892047  0.85370618  0.15169267  1  -0.247008  -0.417041  -0.002471  3.893133  -0.002
C  C37  1  0.30339663  0.83928912  0.27558048  1  0.003176  0.124202  -0.000507  3.849837  0.002
C  C38  1  0.38205311  0.98496367  0.31301131  1  0.211669  0.445086  -0.00147  4.162145  -0.002
C  C39  1  0.22327141  0.19876634  0.41611351  1  0.003403  0.020321  0.000411  3.91862  0.003
C  C40  1  0.98262730  0.23030068  0.50552820  1  0.215762  0.572957  -0.001687  4.111199  -0.003
C  C41  1  0.25986388  0.33084892  0.32675180  1  -0.163838  -0.167394  -0.001182  3.9283  -0.001
C  C42  1  0.03079503  0.35428810  0.26626421  1  -0.164351  -0.293813  -0.000276  3.912053  0.0
C  C43  1  0.09731698  0.46487217  0.16624372  1  0.239496  0.590073  -0.000394  4.095159  0.0
N  N44  1  0.51126652  0.26994495  0.73554513  1  -0.630976  -0.585766  0.076572  3.420526  0.093
N  N45  1  0.31283030  0.54177454  0.68349223  1  -0.43261  -0.4596  0.082872  3.592287  0.104
N  N46  1  0.45421801  0.64540261  0.91370043  1  -0.574362  -0.637197  -6.2e-05  3.343868  0.0
N  N47  1  0.02466536  0.80667165  0.32773851  1  -0.627117  -0.584648  -0.083699  3.401008  -0.101
N  N48  1  0.18425249  0.05882249  0.37453631  1  -0.440682  -0.46587  -0.084582  3.632369  -0.105
N  N49  1  0.89665104  0.53590225  0.12614239  1  -0.565988  -0.638807  -0.00058  3.315588  0.0
O  O50  1  0.88234790  0.49341810  0.77266529  1  -0.324575  -0.565627  0.016921  2.256393  0.022
O  O51  1  0.70411254  0.63360459  0.52852020  1  -0.325549  -0.547912  0.051991  2.358224  0.07
O  O52  1  0.53674471  0.87199671  0.51603991  1  -0.316637  -0.507355  -0.023488  2.434559  -0.033
O  O53  1  0.03669439  0.75613609  0.95002687  1  -0.32815  -0.553638  2.5e-05  2.103119  0.0
O  O54  1  0.61863151  0.02551201  0.28322093  1  -0.329432  -0.555687  -0.021071  2.193131  -0.027
O  O55  1  0.79789776  0.13591191  0.53101379  1  -0.320438  -0.545679  -0.050815  2.32605  -0.068
O  O56  1  0.97735602  0.35283133  0.54954135  1  -0.326492  -0.524937  0.028689  2.407065  0.04
O  O57  1  0.33684572  0.48824980  0.12355296  1  -0.308432  -0.543698  3.6e-05  2.178861  0.0
