# generated using pymatgen
data_Zn4H40C53O16
_symmetry_space_group_name_H-M   'P 1'
_cell_length_a   15.08318060
_cell_length_b   15.04081693
_cell_length_c   17.82865649
_cell_angle_alpha   80.72546004
_cell_angle_beta   81.79988025
_cell_angle_gamma   90.01083940
_symmetry_Int_Tables_number   1
_chemical_formula_structural   Zn4H40C53O16
_chemical_formula_sum   'Zn4 H40 C53 O16'
_cell_volume   3949.87008921
_cell_formula_units_Z   1
loop_
 _symmetry_equiv_pos_site_id
 _symmetry_equiv_pos_as_xyz
  1  'x, y, z'
loop_
 _atom_site_type_symbol
 _atom_site_label
 _atom_site_symmetry_multiplicity
 _atom_site_fract_x
 _atom_site_fract_y
 _atom_site_fract_z
 _atom_site_occupancy
 _atom_site_pbe_bader_charge
 _atom_site_pbe_bader_spin_density
 _atom_site_pbe_cm5_charge
 _atom_site_pbe_ddec_charge
 _atom_site_pbe_ddec_spin_density
 _atom_site_pbe_ddec_sum_bond_order
 _atom_site_pbe_magmom
Zn  Zn0  1  0.55408853  0.55836461  0.57496045  1  1.315704  0  0.671319  0.967388  0  2.366718  0
Zn  Zn1  1  0.59448760  0.44670567  0.43599899  1  1.315306  0  0.672367  0.966875  0  2.371961  0
Zn  Zn2  1  0.43528366  0.58706961  0.43633606  1  1.316896  0  0.672418  0.970989  0  2.349986  0
Zn  Zn3  1  0.41807193  0.40557114  0.55770900  1  1.316849  0  0.675453  0.961296  0  2.397652  0
H  H4  1  0.29051701  0.37035652  0.06244350  1  0.045616  0  0.103758  0.106424  0  0.989186  0
H  H5  1  0.01120961  0.32836022  0.46020299  1  0.066145  0  0.106064  0.107701  0  0.987471  0
H  H6  1  0.45051283  0.50472611  0.19941381  1  0.03903  0  0.105194  0.107316  0  1.017015  0
H  H7  1  0.17502593  0.34177290  0.46500835  1  0.074881  0  0.10852  0.113088  0  0.988295  0
H  H8  1  0.14381505  0.61452280  0.50823878  1  0.109418  0  0.111402  0.117608  0  1.002448  0
H  H9  1  0.69230244  0.64888315  0.21036326  1  0.074953  0  0.10688  0.110267  0  0.989905  0
H  H10  1  0.68775594  0.65677310  0.94191740  1  0.064142  0  0.102367  0.101749  0  0.99599  0
H  H11  1  0.25982472  0.33858385  0.93721802  1  0.058958  0  0.108767  0.126248  0  0.98805  0
H  H12  1  0.52636400  0.52120106  0.80394152  1  0.076581  0  0.105996  0.111952  0  1.024085  0
H  H13  1  0.38020135  0.44478575  0.13881830  1  0.038672  0  0.104278  0.10473  0  1.009421  0
H  H14  1  0.59606323  0.58607175  0.86451490  1  0.036537  0  0.103996  0.106761  0  1.007046  0
H  H15  1  0.72400898  0.67967681  0.06735904  1  0.088072  0  0.103067  0.102335  0  0.995106  0
H  H16  1  0.70477980  0.97020372  0.37958477  1  0.03986  0  0.09484  0.052125  0  0.977943  0
H  H17  1  0.71960972  0.08273075  0.32835919  1  0.020352  0  0.095544  0.054524  0  0.976163  0
H  H18  1  0.69018847  0.91451880  0.25665005  1  0.022465  0  0.093873  0.087281  0  0.96778  0
H  H19  1  0.70548663  0.02584547  0.20602751  1  0.035799  0  0.095279  0.090297  0  0.963372  0
H  H20  1  0.86037310  0.03376409  0.24567515  1  -0.010242  0  0.085444  0.108988  0  1.004872  0
H  H21  1  0.85084343  0.94339725  0.19424069  1  0.033892  0  0.088863  0.116044  0  0.999594  0
H  H22  1  0.84488964  0.92153916  0.29566044  1  0.018192  0  0.087027  0.111656  0  1.002005  0
H  H23  1  0.01937014  0.62456981  0.65217943  1  0.053581  0  0.094933  0.052651  0  0.997091  0
H  H24  1  0.92048976  0.68963218  0.65002346  1  0.046195  0  0.09511  0.054226  0  0.975412  0
H  H25  1  0.11332979  0.76647432  0.61123607  1  0.024003  0  0.094885  0.088696  0  0.966578  0
H  H26  1  0.44521275  0.12902847  0.59087348  1  0.105945  0  0.10948  0.120244  0  0.996636  0
H  H27  1  0.01527092  0.83079320  0.61085899  1  0.043081  0  0.09528  0.089587  0  0.964167  0
H  H28  1  0.97118054  0.77342792  0.75355798  1  0.00795  0  0.084999  0.107567  0  1.005902  0
H  H29  1  0.07761606  0.82913987  0.73471670  1  0.049325  0  0.089992  0.117957  0  0.998032  0
H  H30  1  0.07023415  0.70966639  0.75350875  1  0.032975  0  0.085534  0.108729  0  1.005442  0
H  H31  1  0.24964849  0.46917672  0.72621815  1  0.04784  0  0.091682  0.052934  0  0.99726  0
H  H32  1  0.17173142  0.42998898  0.81061161  1  0.026946  0  0.088364  0.041574  0  0.982082  0
H  H33  1  0.20445102  0.34588528  0.66330651  1  0.051494  0  0.092619  0.09448  0  0.980404  0
H  H34  1  0.13366801  0.29713625  0.74798701  1  -0.003025  0  0.092733  0.087817  0  0.967134  0
H  H35  1  0.03701844  0.43392031  0.73940506  1  -0.000406  0  0.081494  0.103963  0  1.008188  0
H  H36  1  0.04651928  0.39046887  0.65163589  1  0.031997  0  0.086596  0.119819  0  1.007953  0
H  H37  1  0.58655625  0.19208783  0.36071244  1  0.108815  0  0.112321  0.135482  0  0.990289  0
H  H38  1  0.11035592  0.48705497  0.65752132  1  0.011354  0  0.078281  0.099061  0  1.040718  0
H  H39  1  0.41196897  0.96864126  0.65006021  1  0.071744  0  0.106819  0.108594  0  0.987222  0
H  H40  1  0.42133452  0.80528480  0.64005555  1  0.078598  0  0.10664  0.111797  0  0.991304  0
H  H41  1  0.53696582  0.87164280  0.40214268  1  0.122005  0  0.111118  0.118876  0  1.002327  0
H  H42  1  0.85928297  0.39431240  0.47461211  1  0.119433  0  0.108078  0.117905  0  0.997513  0
H  H43  1  0.82559821  0.65368316  0.54636864  1  0.102844  0  0.111208  0.133924  0  0.991792  0
C  C44  1  0.51449752  0.26652110  0.48449630  1  1.556508  0  0.226516  0.608308  0  4.148837  0
C  C45  1  0.57753698  0.57539575  0.92665992  1  -0.05238  0  -0.0922  -0.131497  0  4.024729  0
C  C46  1  0.62918569  0.61521521  0.96974889  1  -0.013499  0  -0.091399  -0.133525  0  4.030439  0
C  C47  1  0.48301674  0.73206507  0.51403512  1  1.550102  0  0.22864  0.612563  0  4.157684  0
C  C48  1  0.60882468  0.60286822  0.05129499  1  -0.031591  0  -0.007352  0.077165  0  4.021194  0
C  C49  1  0.53077101  0.55066520  0.08805274  1  -0.028166  0  -0.001104  0.037304  0  3.947916  0
C  C50  1  0.66505580  0.63951020  0.09644931  1  -0.01914  0  -0.089394  -0.132468  0  4.00591  0
C  C51  1  0.64730701  0.62351221  0.17554705  1  -0.091201  0  -0.087599  -0.10429  0  4.011121  0
C  C52  1  0.51077885  0.54108373  0.16886210  1  0.064603  0  -0.081527  -0.142802  0  3.942655  0
C  C53  1  0.51442137  0.16933477  0.47688314  1  -0.140953  0  -0.021161  -0.020732  0  4.01825  0
C  C54  1  0.47907814  0.82972129  0.51987597  1  -0.012649  0  -0.016692  -0.028987  0  3.991603  0
C  C55  1  0.33787345  0.38971677  0.82981394  1  0.531556  0  0.087265  0.248761  0  4.054188  0
C  C56  1  0.44076144  0.94696793  0.59641703  1  0.009204  0  -0.085702  -0.12955  0  3.988972  0
C  C57  1  0.44494636  0.85683225  0.59089927  1  -0.074837  0  -0.087789  -0.103145  0  4.003776  0
C  C58  1  0.51158935  0.89294018  0.45658666  1  -0.045597  0  -0.076914  -0.125011  0  3.932478  0
C  C59  1  0.73493860  0.51321776  0.51152637  1  1.528376  0  0.227158  0.608613  0  4.146112  0
C  C60  1  0.51391144  0.98540321  0.46255306  1  -0.058475  0  -0.007615  -0.009274  0  3.97354  0
C  C61  1  0.47559471  0.01367102  0.53307119  1  0.027094  0  -0.004373  0.089384  0  4.019479  0
C  C62  1  0.47530169  0.10640773  0.53813379  1  0.016649  0  -0.081076  -0.149592  0  3.935997  0
C  C63  1  0.55513283  0.14181403  0.40790875  1  0.074311  0  -0.096337  -0.220203  0  3.974678  0
C  C64  1  0.55434552  0.05196194  0.40078228  1  0.483076  0  0.083077  0.206052  0  4.063333  0
C  C65  1  0.83373085  0.52297086  0.50927758  1  -0.043313  0  -0.018566  -0.015027  0  4.014312  0
C  C66  1  0.46790270  0.48256874  0.83538216  1  -0.068403  0  -0.076668  -0.110556  0  3.94252  0
C  C67  1  0.16863583  0.47985253  0.48583155  1  -0.039861  0  -0.014576  -0.029471  0  3.978668  0
C  C68  1  0.04036588  0.39026413  0.47188540  1  -0.08373  0  -0.084728  -0.130331  0  3.990615  0
C  C69  1  0.13093400  0.39775053  0.47366002  1  0.004704  0  -0.084286  -0.098359  0  3.991517  0
C  C70  1  0.11452931  0.55166895  0.49902345  1  0.011115  0  -0.073326  -0.119389  0  3.931871  0
C  C71  1  0.26661974  0.48701266  0.48863229  1  1.557742  0  0.228054  0.607702  0  4.153445  0
C  C72  1  0.02059528  0.54299279  0.50338172  1  -0.000265  0  -0.007213  -0.013257  0  3.970853  0
C  C73  1  0.98249803  0.46188871  0.48715921  1  0.009808  0  -0.002669  0.088847  0  4.022188  0
C  C74  1  0.88884051  0.45458120  0.48868685  1  -0.016942  0  -0.080921  -0.150584  0  3.937974  0
C  C75  1  0.87025811  0.60145366  0.52898043  1  0.025112  0  -0.096448  -0.222659  0  3.97343  0
C  C76  1  0.96166118  0.61163488  0.52542117  1  0.442257  0  0.08426  0.210339  0  4.055171  0
C  C77  1  0.44783260  0.47553063  0.91572395  1  0.023651  0  -0.007508  0.018442  0  3.951998  0
C  C78  1  0.54806579  0.55525472  0.29740890  1  1.525937  0  0.228015  0.612995  0  4.152284  0
C  C79  1  0.44520253  0.45330270  0.70693259  1  1.58833  0  0.226486  0.6202  0  4.147622  0
C  C80  1  0.41563205  0.44147376  0.79157257  1  0.011854  0  -0.02613  -0.146654  0  3.951916  0
C  C81  1  0.56847970  0.57479564  0.21189972  1  -0.014891  0  -0.016535  -0.022006  0  3.997042  0
C  C82  1  0.31859654  0.37944395  0.90893011  1  -0.027008  0  -0.100538  -0.257317  0  3.974966  0
C  C83  1  0.68892786  0.01597052  0.32841589  1  0.409834  0  -0.06625  0.040135  0  3.913685  0
C  C84  1  0.72396737  0.97972442  0.25557411  1  0.011214  0  -0.16463  -0.128855  0  3.990686  0
C  C85  1  0.82554091  0.96904224  0.24738114  1  -0.03495  0  -0.241639  -0.353729  0  3.986428  0
C  C86  1  0.99181308  0.68794209  0.62517097  1  0.393086  0  -0.065259  0.041055  0  3.906528  0
C  C87  1  0.04348657  0.76880670  0.63896764  1  -0.014483  0  -0.164625  -0.127703  0  3.986611  0
C  C88  1  0.37139526  0.42125145  0.95314812  1  -0.020079  0  -0.002911  0.107466  0  4.037291  0
C  C89  1  0.04043369  0.77031362  0.72486823  1  -0.070049  0  -0.242023  -0.352641  0  3.986416  0
C  C90  1  0.21532320  0.40860964  0.76163923  1  0.402805  0  -0.068669  0.049463  0  3.90709  0
C  C91  1  0.16056965  0.36162435  0.71403539  1  0.017169  0  -0.167671  -0.12911  0  3.97219  0
C  C92  1  0.08432583  0.42135919  0.68945692  1  -0.04156  0  -0.248508  -0.356956  0  3.981726  0
C  C93  1  0.50094196  0.52004547  0.96116314  1  0.011673  0  -0.001685  0.039232  0  3.953796  0
C  C94  1  0.47658895  0.50854972  0.04211707  1  -0.017349  0  -0.003956  0.027621  0  3.958816  0
C  C95  1  0.39954212  0.45383785  0.07681422  1  -0.044509  0  -0.087403  -0.12097  0  4.023775  0
C  C96  1  0.34903243  0.41183004  0.03441836  1  0.024547  0  -0.091503  -0.137871  0  4.019979  0
O  O97  1  0.50100920  0.50066122  0.50071730  1  -1.235533  0  -0.578765  -1.037889  0  2.570057  0
O  O98  1  0.61129642  0.52177099  0.33291161  1  -1.169091  0  -0.317131  -0.55026  0  2.291986  0
O  O99  1  0.39583160  0.41902850  0.66594833  1  -1.173141  0  -0.308565  -0.540956  0  2.38948  0
O  O100  1  0.46922958  0.57204587  0.32790673  1  -1.165446  0  -0.315754  -0.547327  0  2.289762  0
O  O101  1  0.51885893  0.49755670  0.68112005  1  -1.182632  0  -0.321519  -0.555433  0  2.324319  0
O  O102  1  0.59274307  0.02397568  0.33374960  1  -1.068505  0  -0.208912  -0.248727  0  2.494238  0
O  O103  1  0.99869530  0.68813592  0.54331107  1  -1.090124  0  -0.209786  -0.25078  0  2.491042  0
O  O104  1  0.28098327  0.34814909  0.79172286  1  -1.075226  0  -0.209969  -0.244802  0  2.496556  0
O  O105  1  0.68543072  0.56657127  0.54736968  1  -1.172922  0  -0.315142  -0.544924  0  2.305008  0
O  O106  1  0.30398454  0.41449422  0.51480550  1  -1.169527  0  -0.315009  -0.550311  0  2.316729  0
O  O107  1  0.56272333  0.32085316  0.43161783  1  -1.177061  0  -0.316173  -0.547048  0  2.305915  0
O  O108  1  0.46786572  0.70936630  0.45086412  1  -1.169969  0  -0.317126  -0.547831  0  2.300795  0
O  O109  1  0.46646409  0.28791393  0.54365879  1  -1.172709  0  -0.317691  -0.548233  0  2.340513  0
O  O110  1  0.50190372  0.67930974  0.57302374  1  -1.173826  0  -0.319091  -0.553604  0  2.30657  0
O  O111  1  0.70766799  0.45207520  0.47756895  1  -1.170832  0  -0.318621  -0.551021  0  2.328608  0
O  O112  1  0.30505497  0.56433778  0.46586110  1  -1.170671  0  -0.316019  -0.547507  0  2.299912  0
