# generated using pymatgen
data_Al2H18C33(NO8)2
_symmetry_space_group_name_H-M   'P 1'
_cell_length_a   6.58045869
_cell_length_b   20.73255215
_cell_length_c   21.65842454
_cell_angle_alpha   89.97892891
_cell_angle_beta   91.99425326
_cell_angle_gamma   92.41409755
_symmetry_Int_Tables_number   1
_chemical_formula_structural   Al2H18C33(NO8)2
_chemical_formula_sum   'Al4 H36 C66 N4 O32'
_cell_volume   2950.44010015
_cell_formula_units_Z   2
loop_
 _symmetry_equiv_pos_site_id
 _symmetry_equiv_pos_as_xyz
  1  'x, y, z'
loop_
 _atom_site_type_symbol
 _atom_site_label
 _atom_site_symmetry_multiplicity
 _atom_site_fract_x
 _atom_site_fract_y
 _atom_site_fract_z
 _atom_site_occupancy
 _atom_site_pbe_bader_charge
 _atom_site_pbe_bader_spin_density
 _atom_site_pbe_cm5_charge
 _atom_site_pbe_ddec_charge
 _atom_site_pbe_ddec_spin_density
 _atom_site_pbe_ddec_sum_bond_order
 _atom_site_pbe_magmom
Al  Al0  1  0.95236812  0.30889983  0.50220674  1  2.499768  0  0.396556  1.63348  0  2.568137  0
Al  Al1  1  0.04886587  0.69446930  0.00062020  1  2.500221  0  0.392592  1.638402  0  2.587831  0
Al  Al2  1  0.45192114  0.30844804  0.50239242  1  2.501604  0  0.397528  1.634526  0  2.58145  0
Al  Al3  1  0.54745774  0.69601334  0.00137983  1  2.501569  0  0.393718  1.638285  0  2.57653  0
H  H4  1  0.23965270  0.32792990  0.19688180  1  0.13341  0  0.116623  0.138723  0  1.011394  0
H  H5  1  0.56641074  0.66348042  0.70560822  1  0.162079  0  0.112516  0.133377  0  1.031091  0
H  H6  1  0.25786186  0.59648102  0.19344738  1  0.068384  0  0.108155  0.108781  0  1.009027  0
H  H7  1  0.77584275  0.40775211  0.69293588  1  0.083451  0  0.108502  0.109595  0  1.008815  0
H  H8  1  0.28944435  0.60185356  0.28107015  1  0.055882  0  0.102599  0.100925  0  1.016259  0
H  H9  1  0.84459851  0.40446159  0.77819290  1  0.052059  0  0.101962  0.098203  0  1.019505  0
H  H10  1  0.49399057  0.13261387  0.42544933  1  0.091078  0  0.11475  0.118868  0  0.986327  0
H  H11  1  0.52269620  0.87714221  0.91324266  1  0.096429  0  0.11733  0.12245  0  0.974887  0
H  H12  1  0.63745987  0.82430634  0.14248758  1  0.11747  0  0.112378  0.117956  0  0.996353  0
H  H13  1  0.37701386  0.17237009  0.63208545  1  0.138039  0  0.113103  0.118918  0  0.996809  0
H  H14  1  0.87531230  0.16400787  0.36542001  1  0.106683  0  0.117399  0.122416  0  0.991776  0
H  H15  1  0.09944933  0.81367942  0.85609179  1  0.115686  0  0.117183  0.123968  0  1.00372  0
H  H16  1  0.31021694  0.48176704  0.03104334  1  0.110895  0  0.115973  0.125736  0  0.987061  0
H  H17  1  0.67058758  0.52511331  0.53334690  1  0.090763  0  0.114781  0.125421  0  0.992628  0
H  H18  1  0.49953206  0.03750853  0.35571359  1  0.081953  0  0.111291  0.113665  0  1.036931  0
H  H19  1  0.54608066  0.96802901  0.83707193  1  0.107472  0  0.111895  0.112987  0  1.008211  0
H  H20  1  0.65360400  0.91192459  0.22296772  1  0.105725  0  0.111051  0.121853  0  1.007026  0
H  H21  1  0.36131286  0.07386421  0.70051367  1  0.082317  0  0.110831  0.122168  0  1.001805  0
H  H22  1  0.01590595  0.94244437  0.18910655  1  0.109771  0  0.110278  0.113549  0  1.021205  0
H  H23  1  0.99985963  0.04928656  0.67722038  1  0.132033  0  0.109548  0.114652  0  1.026293  0
H  H24  1  0.60933079  0.99859999  0.27815178  1  0.601852  0  0.289465  0.291269  0  1.060564  0
H  H25  1  0.39161224  0.96364152  0.74325693  1  0.638085  0  0.298843  0.311242  0  1.016798  0
H  H26  1  0.00151812  0.85452332  0.10852885  1  0.08182  0  0.112486  0.118171  0  0.99417  0
H  H27  1  0.01345251  0.14678201  0.60744038  1  0.103576  0  0.111852  0.11651  0  0.999853  0
H  H28  1  0.22726193  0.32789387  0.00353784  1  0.619732  0  0.344314  0.379619  0  0.859016  0
H  H29  1  0.65469452  0.67922970  0.51161665  1  0.613995  0  0.345076  0.380898  0  0.857329  0
H  H30  1  0.20048860  0.51038516  0.45604764  1  0.099522  0  0.109385  0.11254  0  0.981528  0
H  H31  1  0.89705253  0.49537367  0.95528455  1  0.064116  0  0.111354  0.113213  0  0.987853  0
H  H32  1  0.25743614  0.60992553  0.39324701  1  0.053007  0  0.103503  0.099976  0  0.991457  0
H  H33  1  0.91518094  0.39700983  0.88993094  1  0.054624  0  0.103458  0.100848  0  0.991707  0
H  H34  1  0.95819958  0.27626938  0.36068380  1  0.641416  0  0.327474  0.371867  0  0.91671  0
H  H35  1  0.44972489  0.75150984  0.82000225  1  0.626166  0  0.344069  0.390215  0  0.851625  0
H  H36  1  0.69210455  0.33224487  0.42425649  1  0.618793  0  0.356181  0.441663  0  0.839367  0
H  H37  1  0.28868455  0.67548489  0.92055081  1  0.639752  0  0.329453  0.423011  0  0.897432  0
H  H38  1  0.21205270  0.34505360  0.57515039  1  0.619237  0  0.353127  0.431758  0  0.852823  0
H  H39  1  0.80478668  0.66399099  0.07610115  1  0.627822  0  0.351426  0.429998  0  0.855876  0
C  C40  1  0.71189553  0.40156046  0.57033952  1  1.595459  0  0.273252  0.655126  0  4.084599  0
C  C41  1  0.30293104  0.60478941  0.07162392  1  1.596054  0  0.273614  0.652569  0  4.09339  0
C  C42  1  0.70845056  0.22366126  0.57652738  1  1.577389  0  0.269819  0.634596  0  4.104741  0
C  C43  1  0.30557894  0.78080514  0.07547988  1  1.590312  0  0.26736  0.628737  0  4.115028  0
C  C44  1  0.19470044  0.21393493  0.43768792  1  1.566193  0  0.274612  0.638255  0  4.086665  0
C  C45  1  0.79451437  0.78373176  0.93118498  1  1.592355  0  0.270385  0.632747  0  4.118701  0
C  C46  1  0.19342582  0.39089479  0.42319266  1  1.592106  0  0.269062  0.646723  0  4.111097  0
C  C47  1  0.78602930  0.60934301  0.92598678  1  1.599352  0  0.275099  0.651223  0  4.090237  0
C  C48  1  0.27875805  0.42802700  0.11537871  1  -0.055037  0  -0.00797  -0.077528  0  3.938168  0
C  C49  1  0.66859363  0.57527766  0.62018356  1  0.027416  0  -0.009514  -0.079807  0  3.9367  0
C  C50  1  0.28916686  0.54476634  0.10977012  1  -0.06687  0  -0.009061  -0.020198  0  4.003195  0
C  C51  1  0.71880327  0.46054604  0.61030792  1  -0.012403  0  -0.010337  -0.025711  0  4.002758  0
C  C52  1  0.21370209  0.50685987  0.40613227  1  -0.015365  0  -0.083909  -0.097903  0  3.989825  0
C  C53  1  0.84535089  0.49620321  0.90696892  1  -0.081532  0  -0.077121  -0.083868  0  3.98242  0
C  C54  1  0.24496231  0.56279128  0.37077019  1  -0.04026  0  -0.092785  -0.082295  0  4.068889  0
C  C55  1  0.86033200  0.44156267  0.86990590  1  -0.014315  0  -0.090171  -0.08047  0  4.060085  0
C  C56  1  0.26194816  0.55792020  0.30755391  1  -0.029247  0  -0.089474  -0.13124  0  4.009733  0
C  C57  1  0.81743580  0.44587160  0.80717036  1  0.025167  0  -0.087307  -0.126143  0  4.005246  0
C  C58  1  0.24737885  0.49748020  0.27719469  1  0.064359  0  0.002037  0.038925  0  3.94432  0
C  C59  1  0.74655967  0.50305582  0.78004061  1  -0.047109  0  0.001811  0.034104  0  3.940809  0
C  C60  1  0.22031130  0.43993263  0.31320928  1  0.053474  0  0.007076  0.038018  0  3.917631  0
C  C61  1  0.70663805  0.55670164  0.81910441  1  0.057194  0  0.013053  0.048386  0  3.898542  0
C  C62  1  0.26064028  0.49312098  0.21032680  1  0.009208  0  0.00327  0.034839  0  3.952633  0
C  C63  1  0.72230432  0.50837327  0.71312338  1  -0.066638  0  0.004735  0.038546  0  3.950954  0
C  C64  1  0.26381743  0.43134092  0.18113262  1  0.040527  0  0.009134  0.073241  0  3.957016  0
C  C65  1  0.67583461  0.56909491  0.68616163  1  0.00134  0  0.00726  0.073284  0  3.955168  0
C  C66  1  0.24051173  0.37521333  0.21862494  1  -0.004937  0  -0.073559  -0.140468  0  3.927866  0
C  C67  1  0.62282827  0.61967550  0.72639364  1  -0.037031  0  -0.078823  -0.146216  0  3.926671  0
C  C68  1  0.21198606  0.37908028  0.28083635  1  -0.051331  0  -0.003862  -0.052972  0  3.954189  0
C  C69  1  0.62235099  0.61269008  0.78947320  1  0.007639  0  -0.00149  -0.054501  0  3.911757  0
C  C70  1  0.26822532  0.54883306  0.17301172  1  0.009501  0  -0.07349  -0.132859  0  3.941986  0
C  C71  1  0.74478770  0.45506426  0.67384271  1  0.014042  0  -0.07232  -0.130435  0  3.933663  0
C  C72  1  0.29527089  0.48440830  0.08085740  1  0.016835  0  -0.072072  -0.108009  0  3.937551  0
C  C73  1  0.68489179  0.52087882  0.58338679  1  -0.040805  0  -0.073408  -0.108296  0  3.941129  0
C  C74  1  0.20539160  0.44629850  0.37849249  1  -0.106949  0  -0.00444  -0.063781  0  3.910173  0
C  C75  1  0.77006029  0.55288673  0.88264493  1  0.034067  0  -0.001263  -0.064801  0  3.903453  0
C  C76  1  0.31818712  0.83421481  0.12170020  1  -0.05489  0  -0.007832  -0.035319  0  3.953605  0
C  C77  1  0.69677749  0.16547179  0.61687524  1  -0.051737  0  -0.007636  -0.037478  0  3.953845  0
C  C78  1  0.14248295  0.86766895  0.13428883  1  0.052317  0  -0.074099  -0.076245  0  3.964415  0
C  C79  1  0.87272060  0.13056614  0.62872598  1  -0.023135  0  -0.075213  -0.074747  0  3.96487  0
C  C80  1  0.14972922  0.91592732  0.17856419  1  -0.051895  0  -0.078662  -0.140146  0  3.950413  0
C  C81  1  0.86594791  0.07698248  0.66683299  1  -0.065859  0  -0.07962  -0.143689  0  3.953627  0
C  C82  1  0.33458707  0.93123034  0.21109399  1  0.319778  0  0.094522  0.173401  0  4.024748  0
C  C83  1  0.68100789  0.05726256  0.69320335  1  0.360333  0  0.092457  0.174002  0  4.033116  0
C  C84  1  0.51149961  0.89898391  0.19768854  1  -0.053621  0  -0.078864  -0.14628  0  3.936918  0
C  C85  1  0.50301632  0.09039438  0.67980865  1  -0.044657  0  -0.078395  -0.145383  0  3.933145  0
C  C86  1  0.50286130  0.85050813  0.15317753  1  -0.015945  0  -0.076676  -0.080056  0  3.966831  0
C  C87  1  0.51184193  0.14488950  0.64219626  1  -0.026213  0  -0.074714  -0.078418  0  3.95843  0
C  C88  1  0.36477719  0.06586664  0.35716902  1  0.018928  0  -0.074117  -0.127063  0  3.932506  0
C  C89  1  0.66387990  0.93276014  0.84077895  1  -0.041221  0  -0.077182  -0.138688  0  3.95658  0
C  C90  1  0.36105890  0.11809720  0.39665035  1  0.008753  0  -0.066731  -0.059326  0  3.937355  0
C  C91  1  0.65213474  0.88313311  0.88343444  1  -0.004663  0  -0.06692  -0.058421  0  3.949387  0
C  C92  1  0.19428032  0.04961615  0.31830036  1  0.336968  0  0.106913  0.159013  0  3.998574  0
C  C93  1  0.82966475  0.93930089  0.80154065  1  0.371486  0  0.106064  0.161035  0  4.00326  0
C  C94  1  0.18654894  0.15471227  0.39893371  1  -0.002485  0  -0.000991  -0.026391  0  3.968284  0
C  C95  1  0.80792128  0.83925741  0.88779829  1  0.005936  0  -0.003947  -0.030989  0  3.960612  0
C  C96  1  0.01257834  0.13655882  0.36321368  1  -0.004338  0  -0.06562  -0.099997  0  3.921321  0
C  C97  1  0.97781450  0.84743181  0.85125053  1  0.046353  0  -0.061562  -0.079238  0  3.908956  0
C  C98  1  0.01361706  0.08357753  0.32357985  1  0.026551  0  0.010431  -0.056348  0  3.876088  0
C  C99  1  0.99545835  0.89783291  0.80876886  1  -0.047738  0  -0.001713  -0.092288  0  3.88563  0
C  C100  1  0.82002556  0.06627696  0.28740630  1  1.577452  0  0.227049  0.57687  0  4.140894  0
C  C101  1  0.19323675  0.90236046  0.77598210  1  1.521146  0  0.231866  0.591374  0  4.097941  0
C  C102  1  0.27843843  0.36525030  0.08200581  1  1.48007  0  0.230991  0.570937  0  4.109157  0
C  C103  1  0.64022536  0.63843952  0.58896299  1  1.464315  0  0.229623  0.568246  0  4.112406  0
C  C104  1  0.16265996  0.31606031  0.31145804  1  1.536055  0  0.23219  0.580264  0  4.119971  0
C  C105  1  0.49101855  0.66068741  0.81896906  1  1.534303  0  0.244097  0.598601  0  4.105555  0
N  N106  1  0.35436227  0.97851245  0.25820183  1  -0.519837  0  -0.128743  -0.101051  0  3.312416  0
N  N107  1  0.66534707  0.00438829  0.73457076  1  -0.487992  0  -0.126936  -0.116986  0  3.278066  0
N  N108  1  0.18757833  0.00253312  0.27200344  1  -0.478865  0  -0.13096  -0.093906  0  3.273939  0
N  N109  1  0.83635204  0.98804287  0.75689215  1  -0.464629  0  -0.128351  -0.07937  0  3.269891  0
O  O110  1  0.55087777  0.25694834  0.56995406  1  -1.262506  0  -0.236062  -0.591248  0  2.347555  0
O  O111  1  0.46638573  0.75027017  0.06700811  1  -1.259603  0  -0.23482  -0.589772  0  2.352073  0
O  O112  1  0.87182535  0.36971654  0.56589901  1  -1.258957  0  -0.23551  -0.595077  0  2.306352  0
O  O113  1  0.14316998  0.63717216  0.06619765  1  -1.255429  0  -0.236171  -0.598342  0  2.317946  0
O  O114  1  0.02803923  0.38202063  0.45142607  1  -1.259576  0  -0.240943  -0.604969  0  2.346761  0
O  O115  1  0.96037728  0.61947676  0.95231865  1  -1.248811  0  -0.230751  -0.579409  0  2.320496  0
O  O116  1  0.87764289  0.23653790  0.55148048  1  -1.255337  0  -0.230375  -0.575539  0  2.345271  0
O  O117  1  0.13311066  0.76868019  0.04873710  1  -1.255099  0  -0.230267  -0.573995  0  2.347411  0
O  O118  1  0.03403755  0.24668459  0.44108175  1  -1.267669  0  -0.236589  -0.61304  0  2.385064  0
O  O119  1  0.95195889  0.75074995  0.93811415  1  -1.263591  0  -0.226298  -0.578392  0  2.374506  0
O  O120  1  0.53872295  0.38772237  0.54439538  1  -1.256643  0  -0.235454  -0.593777  0  2.313574  0
O  O121  1  0.47343648  0.61845954  0.04801978  1  -1.255083  0  -0.232203  -0.581864  0  2.30401  0
O  O122  1  0.69783679  0.30782274  0.46256991  1  -1.417354  0  -0.446545  -0.98465  0  2.165588  0
O  O123  1  0.29419467  0.69406415  0.96238816  1  -1.445723  0  -0.45578  -1.011246  0  2.203605  0
O  O124  1  0.36384980  0.22933836  0.46468308  1  -1.252815  0  -0.222026  -0.563428  0  2.359144  0
O  O125  1  0.62636245  0.77269520  0.95738046  1  -1.255164  0  -0.231328  -0.57999  0  2.333159  0
O  O126  1  0.35345995  0.35907930  0.43209456  1  -1.254334  0  -0.232037  -0.59725  0  2.333561  0
O  O127  1  0.63022751  0.64193191  0.93438001  1  -1.257931  0  -0.23004  -0.598045  0  2.411071  0
O  O128  1  0.20703881  0.31352576  0.54194595  1  -1.421386  0  -0.448384  -0.983558  0  2.188725  0
O  O129  1  0.80252863  0.69259889  0.04065156  1  -1.429777  0  -0.450137  -0.989765  0  2.192892  0
O  O130  1  0.72477578  0.10622052  0.25818523  1  -1.120787  0  -0.293144  -0.468721  0  2.033164  0
O  O131  1  0.75558292  0.00438123  0.29530697  1  -1.141926  0  -0.351174  -0.50608  0  2.36058  0
O  O132  1  0.30442150  0.85641449  0.77296532  1  -1.126368  0  -0.293924  -0.493714  0  2.085757  0
O  O133  1  0.24513323  0.96172736  0.75485435  1  -1.155542  0  -0.339897  -0.494795  0  2.370801  0
O  O134  1  0.32537951  0.31312804  0.10329567  1  -1.127512  0  -0.282812  -0.469645  0  2.076533  0
O  O135  1  0.21730575  0.37119358  0.02097842  1  -1.116021  0  -0.34541  -0.500987  0  2.2116  0
O  O136  1  0.59171218  0.68892490  0.61252177  1  -1.12775  0  -0.285714  -0.472456  0  2.087238  0
O  O137  1  0.67720621  0.63561598  0.52704099  1  -1.108424  0  -0.345456  -0.498976  0  2.218073  0
O  O138  1  0.27479863  0.27067506  0.31421077  1  -1.128079  0  -0.274534  -0.457414  0  2.079021  0
O  O139  1  0.97289468  0.31491503  0.33403415  1  -1.138748  0  -0.333326  -0.479319  0  2.246783  0
O  O140  1  0.32740567  0.64543820  0.84148443  1  -1.140193  0  -0.273892  -0.479041  0  2.128425  0
O  O141  1  0.55793539  0.72232232  0.80994887  1  -1.105309  0  -0.318923  -0.464935  0  2.245935  0
