# generated using pymatgen
data_TmH9(CO)6
_symmetry_space_group_name_H-M   'P 1'
_cell_length_a   7.99578558
_cell_length_b   7.99552245
_cell_length_c   8.31900954
_cell_angle_alpha   90.00005973
_cell_angle_beta   89.99977085
_cell_angle_gamma   117.96703155
_symmetry_Int_Tables_number   1
_chemical_formula_structural   TmH9(CO)6
_chemical_formula_sum   'Tm2 H18 C12 O12'
_cell_volume   469.72893746
_cell_formula_units_Z   2
loop_
 _symmetry_equiv_pos_site_id
 _symmetry_equiv_pos_as_xyz
  1  'x, y, z'
loop_
 _atom_site_type_symbol
 _atom_site_label
 _atom_site_symmetry_multiplicity
 _atom_site_fract_x
 _atom_site_fract_y
 _atom_site_fract_z
 _atom_site_occupancy
 _atom_site_hle17_bader_spin_density
 _atom_site_hle17_ddec_charge
 _atom_site_hle17_ddec_spin_density
 _atom_site_hle17_ddec_sum_bond_order
 _atom_site_hle17_magmom
 _atom_site_hse06_10hf_bader_spin_density
 _atom_site_hse06_10hf_ddec_charge
 _atom_site_hse06_10hf_ddec_spin_density
 _atom_site_hse06_10hf_ddec_sum_bond_order
 _atom_site_hse06_10hf_magmom
 _atom_site_hse06_bader_spin_density
 _atom_site_hse06_ddec_charge
 _atom_site_hse06_ddec_spin_density
 _atom_site_hse06_ddec_sum_bond_order
 _atom_site_hse06_magmom
 _atom_site_pbe_bader_spin_density
 _atom_site_pbe_cm5_charge
 _atom_site_pbe_ddec_charge
 _atom_site_pbe_ddec_spin_density
 _atom_site_pbe_ddec_sum_bond_order
 _atom_site_pbe_magmom
Tm  Tm0  1  0.94532978  0.94533528  0.13844512  1  0  2.2851  0  1.675729  0  0  2.147864  0  2.154508  0  0  2.2807  0  1.96031  0  0  1.569761  2.111207  0  2.185647  0
Tm  Tm1  1  0.05462404  0.05461231  0.63847782  1  0  2.285081  0  1.675768  0  0  2.147981  0  2.154343  0  0  2.280669  0  1.960346  0  0  1.569695  2.111176  0  2.185701  0
H  H2  1  0.65451014  0.65442639  0.63546469  1  0  0.142418  0  0.957155  0  0  0.157315  0  1.019288  0  0  0.159832  0  1.018615  0  0  0.103632  0.155264  0  1.020153  0
H  H3  1  0.34558072  0.34562826  0.13548036  1  0  0.142587  0  0.957194  0  0  0.15744  0  1.019333  0  0  0.159957  0  1.018668  0  0  0.103695  0.155386  0  1.020202  0
H  H4  1  0.45668988  0.58438394  0.76734052  1  0  0.155123  0  0.917363  0  0  0.17687  0  0.970265  0  0  0.17945  0  0.968799  0  0  0.112041  0.175183  0  0.970786  0
H  H5  1  0.54336387  0.41563280  0.26740638  1  0  0.155198  0  0.917619  0  0  0.176969  0  0.970465  0  0  0.179559  0  0.968988  0  0  0.112015  0.17528  0  0.970986  0
H  H6  1  0.41547950  0.54337235  0.26740214  1  0  0.155006  0  0.917543  0  0  0.176927  0  0.970276  0  0  0.179524  0  0.968793  0  0  0.111965  0.175236  0  0.970797  0
H  H7  1  0.58455417  0.45667583  0.76737000  1  0  0.154961  0  0.917645  0  0  0.176899  0  0.970333  0  0  0.179492  0  0.968851  0  0  0.112008  0.175211  0  0.970854  0
H  H8  1  0.54033099  0.97395084  0.05046504  1  0  0.145847  0  0.960938  0  0  0.158914  0  1.028502  0  0  0.16218  0  1.027088  0  0  0.102905  0.156282  0  1.030179  0
H  H9  1  0.45965306  0.02606080  0.55046939  1  0  0.145934  0  0.960992  0  0  0.158952  0  1.028585  0  0  0.162223  0  1.027164  0  0  0.102919  0.156325  0  1.030266  0
H  H10  1  0.02603619  0.45961062  0.55044712  1  0  0.145908  0  0.960945  0  0  0.158897  0  1.028579  0  0  0.162164  0  1.027166  0  0  0.102891  0.156273  0  1.03026  0
H  H11  1  0.97392323  0.54033866  0.05045366  1  0  0.14591  0  0.960833  0  0  0.158933  0  1.028436  0  0  0.162201  0  1.027021  0  0  0.102928  0.156304  0  1.030115  0
H  H12  1  0.62337719  0.20898549  0.98388831  1  0  0.147549  0  0.921784  0  0  0.172501  0  0.971076  0  0  0.174599  0  0.970513  0  0  0.10946  0.171179  0  0.970968  0
H  H13  1  0.37660248  0.79102598  0.48390173  1  0  0.147643  0  0.921667  0  0  0.172578  0  0.970953  0  0  0.174677  0  0.970389  0  0  0.109489  0.171254  0  0.970848  0
H  H14  1  0.79101434  0.37658544  0.48388449  1  0  0.147613  0  0.921744  0  0  0.172584  0  0.970998  0  0  0.174685  0  0.970434  0  0  0.109531  0.171266  0  0.970886  0
H  H15  1  0.20896615  0.62339617  0.98391637  1  0  0.147669  0  0.921622  0  0  0.172607  0  0.970905  0  0  0.174707  0  0.970341  0  0  0.10949  0.171282  0  0.9708  0
H  H16  1  0.58877566  0.03240882  0.83913413  1  0  0.150495  0  0.936999  0  0  0.168123  0  0.995215  0  0  0.171438  0  0.993069  0  0  0.104251  0.165902  0  0.996234  0
H  H17  1  0.41122091  0.96761241  0.33913827  1  0  0.150547  0  0.936881  0  0  0.168134  0  0.995151  0  0  0.171448  0  0.993  0  0  0.104251  0.165914  0  0.996167  0
H  H18  1  0.96758123  0.41118303  0.33911854  1  0  0.150466  0  0.936973  0  0  0.168039  0  0.995295  0  0  0.171355  0  0.993148  0  0  0.104206  0.165818  0  0.99631  0
H  H19  1  0.03243054  0.58880964  0.83912982  1  0  0.150468  0  0.936938  0  0  0.168078  0  0.995187  0  0  0.171397  0  0.99304  0  0  0.104244  0.165856  0  0.996208  0
C  C20  1  0.72393428  0.72393437  0.88551993  1  0  0.783454  0  3.816049  0  0  0.746438  0  4.107976  0  0  0.779725  0  4.108432  0  0  0.215895  0.723337  0  4.114108  0
C  C21  1  0.27604465  0.27605588  0.38549428  1  0  0.783495  0  3.815371  0  0  0.746604  0  4.107143  0  0  0.779896  0  4.107584  0  0  0.21603  0.723506  0  4.113264  0
C  C22  1  0.33493372  0.03210850  0.92849632  1  0  0.835598  0  3.782501  0  0  0.803045  0  4.065978  0  0  0.83912  0  4.057308  0  0  0.24388  0.779148  0  4.073473  0
C  C23  1  0.66505823  0.96789455  0.42850649  1  0  0.835834  0  3.782245  0  0  0.803303  0  4.065683  0  0  0.839315  0  4.057106  0  0  0.243941  0.779391  0  4.073198  0
C  C24  1  0.96790046  0.66504278  0.42850013  1  0  0.835619  0  3.782754  0  0  0.803321  0  4.065845  0  0  0.839367  0  4.057216  0  0  0.243873  0.779405  0  4.073367  0
C  C25  1  0.03210173  0.33495024  0.92852432  1  0  0.835468  0  3.782883  0  0  0.803258  0  4.065812  0  0  0.839279  0  4.05723  0  0  0.244017  0.779336  0  4.073347  0
C  C26  1  0.59988120  0.59982587  0.75481027  1  0  -0.445125  0  3.633932  0  0  -0.521351  0  3.868861  0  0  -0.526973  0  3.867881  0  0  -0.23581  -0.516618  0  3.868035  0
C  C27  1  0.40017866  0.40021809  0.25482906  1  0  -0.445504  0  3.63453  0  0  -0.521758  0  3.86931  0  0  -0.5274  0  3.868338  0  0  -0.235923  -0.517025  0  3.868486  0
C  C28  1  0.53302663  0.05978749  0.95074829  1  0  -0.470955  0  3.620017  0  0  -0.546173  0  3.846707  0  0  -0.553336  0  3.845983  0  0  -0.24044  -0.540595  0  3.845631  0
C  C29  1  0.46696340  0.94022519  0.45076583  1  0  -0.471225  0  3.619842  0  0  -0.54637  0  3.846548  0  0  -0.553507  0  3.845838  0  0  -0.240538  -0.540791  0  3.845484  0
C  C30  1  0.94020638  0.46694167  0.45074471  1  0  -0.470977  0  3.620198  0  0  -0.546204  0  3.846893  0  0  -0.55336  0  3.846184  0  0  -0.240437  -0.540631  0  3.845821  0
C  C31  1  0.05978763  0.53304255  0.95075138  1  0  -0.471087  0  3.620089  0  0  -0.546323  0  3.846664  0  0  -0.55348  0  3.845964  0  0  -0.240481  -0.540739  0  3.845602  0
O  O32  1  0.22897829  0.99321220  0.05229865  1  0  -0.78317  0  2.007922  0  0  -0.734492  0  2.26735  0  0  -0.774528  0  2.250674  0  0  -0.422298  -0.71589  0  2.274632  0
O  O33  1  0.77101831  0.00680724  0.55230688  1  0  -0.783276  0  2.008093  0  0  -0.734644  0  2.267487  0  0  -0.774646  0  2.250879  0  0  -0.42235  -0.716011  0  2.274791  0
O  O34  1  0.00685790  0.77101601  0.55229250  1  0  -0.78318  0  2.008263  0  0  -0.73461  0  2.267569  0  0  -0.7746  0  2.25091  0  0  -0.422333  -0.715982  0  2.274889  0
O  O35  1  0.99319177  0.22898878  0.05230823  1  0  -0.783024  0  2.0085  0  0  -0.734511  0  2.267779  0  0  -0.774506  0  2.251093  0  0  -0.422337  -0.715904  0  2.275075  0
O  O36  1  0.87845540  0.87843913  0.85393228  1  0  -0.880445  0  2.133574  0  0  -0.824756  0  2.405095  0  0  -0.873802  0  2.391902  0  0  -0.457064  -0.806362  0  2.413112  0
O  O37  1  0.12150741  0.12153333  0.35391456  1  0  -0.880681  0  2.132972  0  0  -0.824986  0  2.404283  0  0  -0.87403  0  2.391082  0  0  -0.457089  -0.806597  0  2.412286  0
O  O38  1  0.28497623  0.05445802  0.78825294  1  0  -0.77617  0  2.022431  0  0  -0.727299  0  2.281529  0  0  -0.767214  0  2.264222  0  0  -0.419715  -0.708906  0  2.289623  0
O  O39  1  0.71498824  0.94550308  0.28825615  1  0  -0.776302  0  2.022276  0  0  -0.727374  0  2.2813  0  0  -0.7673  0  2.264025  0  0  -0.419646  -0.709006  0  2.289387  0
O  O40  1  0.94548423  0.71498012  0.28825929  1  0  -0.776252  0  2.022243  0  0  -0.727423  0  2.281195  0  0  -0.767364  0  2.263903  0  0  -0.419641  -0.709055  0  2.289286  0
O  O41  1  0.05447775  0.28498101  0.78825941  1  0  -0.776222  0  2.02193  0  0  -0.727438  0  2.280818  0  0  -0.767339  0  2.263534  0  0  -0.419754  -0.709036  0  2.288923  0
O  O42  1  0.68134789  0.68136768  0.03182335  1  0  -0.693696  0  1.942775  0  0  -0.64841  0  2.181752  0  0  -0.682781  0  2.172218  0  0  -0.376587  -0.631276  0  2.186871  0
O  O43  1  0.31864178  0.31864438  0.53179895  1  0  -0.6937  0  1.942159  0  0  -0.648453  0  2.181033  0  0  -0.682792  0  2.171482  0  0  -0.376569  -0.631295  0  2.186154  0
