# generated using pymatgen
data_CuH11C11N5O2
_symmetry_space_group_name_H-M   'P 1'
_cell_length_a   9.19268439
_cell_length_b   10.79340308
_cell_length_c   13.49059947
_cell_angle_alpha   90.00010103
_cell_angle_beta   89.99869151
_cell_angle_gamma   101.34417160
_symmetry_Int_Tables_number   1
_chemical_formula_structural   CuH11C11N5O2
_chemical_formula_sum   'Cu4 H44 C44 N20 O8'
_cell_volume   1312.39128602
_cell_formula_units_Z   4
loop_
 _symmetry_equiv_pos_site_id
 _symmetry_equiv_pos_as_xyz
  1  'x, y, z'
loop_
 _atom_site_type_symbol
 _atom_site_label
 _atom_site_symmetry_multiplicity
 _atom_site_fract_x
 _atom_site_fract_y
 _atom_site_fract_z
 _atom_site_occupancy
 _atom_site_pbe_bader_charge
 _atom_site_pbe_bader_spin_density
 _atom_site_pbe_cm5_charge
 _atom_site_pbe_ddec_charge
 _atom_site_pbe_ddec_spin_density
 _atom_site_pbe_ddec_sum_bond_order
 _atom_site_pbe_magmom
Cu  Cu0  1  0.77373971  0.41799091  0.99687066  1  1.059612  0.553593  0.747133  0.657896  0.730807  2.409886  0.553
Cu  Cu1  1  0.72623884  0.08200447  0.49686039  1  1.05956  0.553643  0.747058  0.657802  0.730889  2.410096  0.553
Cu  Cu2  1  0.22624853  0.58200034  0.00313417  1  1.05935  0.553049  0.747073  0.657807  0.730065  2.409902  0.553
Cu  Cu3  1  0.27373676  0.91799338  0.50312961  1  1.059602  -0.553077  0.747103  0.657663  -0.77667  2.410221  -0.553
H  H4  1  0.94195392  0.09714904  0.15421865  1  0.020163  0.000236  0.096121  0.143201  6.4e-05  1.007148  0.0
H  H5  1  0.55805162  0.40284758  0.65421743  1  0.020263  0.000199  0.096157  0.143215  5.5e-05  1.007244  0.0
H  H6  1  0.05804888  0.90284885  0.84578173  1  0.020226  0.000236  0.096143  0.143195  7.1e-05  1.007199  0.0
H  H7  1  0.44195206  0.59714937  0.34578073  1  0.020188  -0.000195  0.09615  0.143202  -5.8e-05  1.007199  0.0
H  H8  1  0.77061433  0.98803817  0.14851219  1  0.027853  0.001995  0.091215  0.135687  0.000919  1.01882  0.001
H  H9  1  0.72938683  0.51195564  0.64850997  1  0.027855  0.002015  0.091221  0.135666  0.000964  1.018804  0.001
H  H10  1  0.22938761  0.01196067  0.85148744  1  0.027892  0.001987  0.091199  0.135635  0.000934  1.018769  0.001
H  H11  1  0.27061424  0.48803941  0.35148744  1  0.027872  -0.00201  0.091218  0.135669  -0.001036  1.018821  -0.001
H  H12  1  0.79288987  0.12126711  0.23074274  1  0.090045  -0.000342  0.101287  0.161791  -0.000152  1.007821  0.0
H  H13  1  0.70710912  0.37873111  0.73074213  1  0.090166  -0.000335  0.101309  0.161785  -0.000138  1.007799  0.0
H  H14  1  0.20710967  0.87873077  0.76925615  1  0.090096  -0.000494  0.101308  0.161748  -0.000313  1.007768  0.0
H  H15  1  0.29289063  0.62126772  0.26925677  1  0.090111  0.000519  0.101314  0.161753  0.000324  1.007849  0.0
H  H16  1  0.68004675  0.00811175  0.98891889  1  0.019788  -0.000541  0.095664  0.134865  -0.000295  1.024926  0.0
H  H17  1  0.81995470  0.49188275  0.48891887  1  0.019786  -0.00052  0.095685  0.13485  -0.000268  1.024961  0.0
H  H18  1  0.31995366  0.99188519  0.01108148  1  0.019805  -0.000541  0.095626  0.134767  -0.000292  1.02504  0.0
H  H19  1  0.18004724  0.50811137  0.51108151  1  0.019802  0.000519  0.095671  0.134869  0.000244  1.024889  0.0
H  H20  1  0.45129694  0.13044470  0.82061764  1  0.055899  -0.000409  0.094619  0.143496  -0.000219  1.012836  0.0
H  H21  1  0.04869813  0.36955453  0.32061721  1  0.055929  -0.000487  0.094628  0.143488  -0.000261  1.012892  0.0
H  H22  1  0.54870064  0.86955412  0.17938200  1  0.055942  -0.000385  0.094636  0.143483  -0.00021  1.01282  0.0
H  H23  1  0.95129880  0.63044619  0.67938391  1  0.055908  0.000484  0.094616  0.143485  0.000237  1.01284  0.0
H  H24  1  0.53989464  0.99986658  0.84472324  1  0.068548  0.00211  0.090891  0.139313  0.000973  1.013478  0.001
H  H25  1  0.96010327  0.50012748  0.34472478  1  0.068681  0.00212  0.090864  0.139253  0.000987  1.013574  0.001
H  H26  1  0.46010403  0.00013225  0.15527492  1  0.068638  0.002105  0.090863  0.139237  0.001  1.013496  0.001
H  H27  1  0.03989541  0.49986663  0.65527708  1  0.068592  -0.002112  0.090897  0.139311  -0.001069  1.013443  -0.001
H  H28  1  0.62451411  0.12755485  0.76548456  1  0.116031  0.000272  0.101823  0.164178  0.000246  0.998623  0.0
H  H29  1  0.87548653  0.37244137  0.26548351  1  0.116066  0.000241  0.101835  0.164153  0.00022  0.998561  0.0
H  H30  1  0.37548522  0.87244209  0.23451655  1  0.116012  -0.00015  0.101826  0.164114  -0.000252  0.998616  0.0
H  H31  1  0.12451149  0.62755463  0.73451539  1  0.116025  0.000218  0.101825  0.164132  0.000272  0.99865  0.0
H  H32  1  0.63889438  0.68444202  0.28757428  1  0.102857  0.000958  0.111803  0.119672  0.000499  1.023867  0.001
H  H33  1  0.86110439  0.81555697  0.78757341  1  0.10289  0.001023  0.111771  0.119663  0.000522  1.023863  0.001
H  H34  1  0.36110473  0.31555870  0.71242684  1  0.102922  -0.000956  0.111787  0.119669  -0.00052  1.023846  -0.001
H  H35  1  0.13889536  0.18444186  0.21242475  1  0.102867  0.001046  0.111797  0.119705  0.000544  1.023828  0.001
H  H36  1  0.57880102  0.84071826  0.40992005  1  0.124491  0.001953  0.118111  0.087235  0.000905  1.036708  0.001
H  H37  1  0.92119551  0.65927935  0.90992173  1  0.12457  0.002034  0.118096  0.087234  0.000986  1.036574  0.001
H  H38  1  0.42119438  0.15928056  0.59007884  1  0.124606  -0.001949  0.118092  0.087185  -0.000971  1.036549  -0.001
H  H39  1  0.07880425  0.34071948  0.09007865  1  0.124586  0.002048  0.11812  0.087309  0.001003  1.036547  0.001
H  H40  1  0.09233759  0.88974495  0.28915459  1  0.125495  0.001198  0.11332  0.124153  0.000719  1.018959  0.001
H  H41  1  0.40766159  0.61025630  0.78915196  1  0.125455  0.000956  0.113362  0.124201  0.000463  1.018992  0.001
H  H42  1  0.90766369  0.11025577  0.71084949  1  0.12549  -0.001059  0.113364  0.124205  -0.000635  1.018975  -0.001
H  H43  1  0.59233620  0.38974348  0.21084693  1  0.125515  0.000806  0.113347  0.124151  0.00032  1.018993  0.001
H  H44  1  0.01371378  0.04225629  0.40531475  1  0.141372  0.002216  0.115091  0.08097  0.001136  1.044195  0.002
H  H45  1  0.48628666  0.45774077  0.90531361  1  0.141401  0.001978  0.115088  0.080956  0.000872  1.044206  0.002
H  H46  1  0.98629012  0.95774161  0.59468563  1  0.141449  -0.002159  0.11511  0.080946  -0.001189  1.044165  -0.002
H  H47  1  0.51371266  0.54225617  0.09468603  1  0.141426  0.001935  0.1151  0.080964  0.000854  1.044175  0.002
C  C48  1  0.82085905  0.08807378  0.15751151  1  -0.041264  0.015354  -0.243336  -0.474696  0.010998  3.881911  0.012
C  C49  1  0.67914573  0.41191999  0.65750693  1  -0.041425  0.015288  -0.24343  -0.47476  0.01097  3.882043  0.012
C  C50  1  0.17914812  0.91191939  0.84249257  1  -0.041591  0.015004  -0.243418  -0.474678  0.010753  3.881906  0.012
C  C51  1  0.32085577  0.58807696  0.34248974  1  -0.041347  -0.014903  -0.243443  -0.474727  -0.011334  3.881977  -0.012
C  C52  1  0.77241720  0.16864176  0.07759036  1  0.699675  0.000676  0.121438  0.493637  0.001159  4.008536  -0.002
C  C53  1  0.72758487  0.33136646  0.57758714  1  0.699468  0.000671  0.121484  0.49382  0.001147  4.00834  -0.002
C  C54  1  0.22758104  0.83135518  0.92240705  1  0.699984  0.000631  0.121282  0.493558  0.001131  4.008894  -0.002
C  C55  1  0.27241836  0.66864277  0.42240805  1  0.699596  -0.000619  0.121453  0.493756  -0.001561  4.00841  0.002
C  C56  1  0.69725047  0.11057158  0.99418917  1  0.018484  0.00794  -0.161443  -0.478768  0.005384  3.974495  0.008
C  C57  1  0.80274820  0.38941628  0.49418852  1  0.018299  0.007689  -0.161384  -0.478683  0.005221  3.974918  0.008
C  C58  1  0.30274909  0.88941214  0.00581047  1  0.018385  0.007582  -0.161376  -0.478667  0.005127  3.974442  0.008
C  C59  1  0.19724874  0.61057499  0.50581037  1  0.018407  -0.007304  -0.161399  -0.478739  -0.005339  3.974339  -0.007
C  C60  1  0.63655842  0.17487493  0.91904106  1  0.728068  0.000199  0.123498  0.493676  0.000987  4.024204  -0.002
C  C61  1  0.86343997  0.32513869  0.41904012  1  0.727699  8.8e-05  0.123337  0.493626  0.000893  4.024376  -0.002
C  C62  1  0.36344351  0.82512390  0.08096302  1  0.72801  0.000205  0.123281  0.493479  0.001008  4.0251  -0.002
C  C63  1  0.13655607  0.67487713  0.58096174  1  0.728134  -7.7e-05  0.123361  0.493534  -0.001373  4.024545  0.002
C  C64  1  0.55814338  0.10215425  0.83309585  1  -0.148643  0.016558  -0.244399  -0.474804  0.011792  3.86921  0.013
C  C65  1  0.94185429  0.39783889  0.33310195  1  -0.148648  0.016453  -0.244296  -0.474641  0.011712  3.869565  0.013
C  C66  1  0.44184964  0.89783890  0.16689786  1  -0.148709  0.015745  -0.244287  -0.474548  0.011209  3.869342  0.012
C  C67  1  0.05814461  0.60215616  0.66690140  1  -0.148685  -0.015621  -0.244372  -0.474741  -0.011825  3.86931  -0.012
C  C68  1  0.90467028  0.68843292  0.20279541  1  0.91824  0.002501  0.205231  0.210748  0.002082  4.081913  0.003
C  C69  1  0.59533943  0.81157771  0.70278828  1  0.919023  0.002551  0.205309  0.210524  0.002121  4.081885  0.003
C  C70  1  0.09533360  0.31157441  0.79721016  1  0.918296  0.001603  0.205355  0.21078  0.001446  4.082017  0.002
C  C71  1  0.40467337  0.18843059  0.29720691  1  0.918559  -0.001593  0.205303  0.210707  -0.001538  4.082041  -0.002
C  C72  1  0.87039005  0.77438439  0.27829201  1  -0.055903  -0.002552  0.020142  0.087004  -0.001854  3.995123  -0.002
C  C73  1  0.62961601  0.72561181  0.77829683  1  -0.056545  -0.002977  0.020008  0.087022  -0.002089  3.995102  -0.002
C  C74  1  0.12961341  0.22561634  0.72170689  1  -0.055768  0.003561  0.020153  0.087038  0.002438  3.99494  0.002
C  C75  1  0.37038941  0.27438797  0.22170577  1  -0.056122  -0.004069  0.020079  0.08699  -0.002869  3.995282  -0.003
C  C76  1  0.72503079  0.76100339  0.31443014  1  0.036452  0.004513  -0.081836  -0.166595  0.003096  3.936732  0.004
C  C77  1  0.77497292  0.73900212  0.81442383  1  0.036155  0.004469  -0.081799  -0.166637  0.003111  3.936829  0.004
C  C78  1  0.27497114  0.23900017  0.68557246  1  0.036205  -0.004907  -0.081837  -0.166708  -0.003594  3.936825  -0.004
C  C79  1  0.22502922  0.26100238  0.18557284  1  0.036379  0.004856  -0.08176  -0.166594  0.003354  3.936685  0.004
C  C80  1  0.69145352  0.84782029  0.38200864  1  0.456243  -0.001107  0.044938  0.093449  -0.000379  3.941824  -0.001
C  C81  1  0.80853656  0.65217835  0.88200612  1  0.456434  -0.001281  0.045004  0.093514  -0.000452  3.941698  -0.001
C  C82  1  0.30853209  0.15217852  0.61799545  1  0.456401  0.001185  0.045032  0.093671  0.000184  3.941744  0.001
C  C83  1  0.19146406  0.34782426  0.11799203  1  0.456341  -0.001382  0.044933  0.093366  -0.000522  3.941967  -0.001
C  C84  1  0.97760154  0.87513623  0.31409766  1  -0.001698  0.006657  -0.075669  -0.16122  0.00469  3.920345  0.005
C  C85  1  0.52239305  0.62486738  0.81409067  1  -0.001639  0.006166  -0.075676  -0.161236  0.0041  3.920553  0.005
C  C86  1  0.02239561  0.12486543  0.68590420  1  -0.001751  -0.006098  -0.07573  -0.161287  -0.00445  3.920489  -0.005
C  C87  1  0.47760192  0.37513428  0.18590600  1  -0.001725  0.005592  -0.075675  -0.161145  0.003592  3.920489  0.005
C  C88  1  0.93440191  0.95965024  0.38024412  1  0.463376  0.000212  0.048528  0.094342  0.000998  3.947505  0.0
C  C89  1  0.56560150  0.54035410  0.88024152  1  0.463597  -0.000323  0.048413  0.094175  0.000458  3.947166  0.0
C  C90  1  0.06560306  0.04035710  0.61975849  1  0.463553  9.2e-05  0.048408  0.094233  -0.001078  3.947361  0.0
C  C91  1  0.43439434  0.45964661  0.11975737  1  0.463601  -0.00059  0.048481  0.094241  0.00028  3.947577  0.0
N  N92  1  0.87701462  0.54981981  0.09057664  1  -0.188592  0.065328  -0.140726  -0.053625  0.046954  3.640714  0.058
N  N93  1  0.62297048  0.95016189  0.59059078  1  -0.188237  0.066155  -0.140743  -0.053741  0.047385  3.641265  0.059
N  N94  1  0.12297558  0.45017050  0.90941484  1  -0.188408  0.065501  -0.140809  -0.053791  0.047067  3.641673  0.059
N  N95  1  0.37701363  0.04981613  0.40942591  1  -0.188308  -0.066363  -0.140694  -0.053588  -0.05053  3.640844  -0.059
N  N96  1  0.02287640  0.59532820  0.10057843  1  -0.178472  0.000616  -0.10967  -0.090842  0.000595  3.412297  0.002
N  N97  1  0.47712120  0.90467654  0.60057587  1  -0.178891  0.003768  -0.109596  -0.090741  0.002267  3.412994  0.002
N  N98  1  0.97713424  0.40467537  0.89941973  1  -0.178629  0.000801  -0.109714  -0.090892  0.000711  3.412745  0.002
N  N99  1  0.52287202  0.09532700  0.39942525  1  -0.178711  -0.003996  -0.109665  -0.090783  -0.002665  3.412167  -0.003
N  N100  1  0.79989003  0.60586399  0.15355002  1  -0.633335  0.001778  -0.214446  -0.262627  0.000861  3.200613  0.001
N  N101  1  0.70011073  0.89413358  0.65354805  1  -0.633792  0.002117  -0.214439  -0.262398  0.001028  3.201044  0.001
N  N102  1  0.20010516  0.39413389  0.84645184  1  -0.633576  0.002586  -0.214366  -0.262441  0.001379  3.201149  0.002
N  N103  1  0.29990296  0.10586433  0.34645455  1  -0.633448  -0.003067  -0.214504  -0.262607  -0.001854  3.200979  -0.002
N  N104  1  0.04262228  0.68319666  0.17083022  1  -0.629788  0.006358  -0.206109  -0.233235  0.004099  3.191536  0.005
N  N105  1  0.45739834  0.81682393  0.67081895  1  -0.629453  0.007256  -0.206177  -0.233202  0.004708  3.19223  0.005
N  N106  1  0.95739226  0.31681447  0.82917461  1  -0.629632  0.006936  -0.206158  -0.233234  0.004463  3.191877  0.005
N  N107  1  0.54261836  0.18319666  0.32916957  1  -0.629836  -0.008011  -0.206135  -0.233235  -0.005521  3.191622  -0.006
N  N108  1  0.79397381  0.94689190  0.41350836  1  -1.216234  0.082498  -0.345924  -0.233694  0.056285  3.614298  0.071
N  N109  1  0.70603087  0.55309910  0.91351175  1  -1.216625  0.082433  -0.34588  -0.233635  0.056317  3.614006  0.071
N  N110  1  0.20603401  0.05309939  0.58648534  1  -1.21662  -0.082842  -0.34587  -0.233612  -0.060104  3.614114  -0.072
N  N111  1  0.29397455  0.44689596  0.08649159  1  -1.21657  0.082732  -0.345906  -0.23361  0.056529  3.614714  0.072
O  O112  1  0.64103776  0.29457203  0.91660534  1  -1.085527  0.118637  -0.306714  -0.45833  0.078122  2.381702  0.108
O  O113  1  0.85895398  0.20543120  0.41661690  1  -1.085402  0.118634  -0.306798  -0.458526  0.078081  2.381174  0.108
O  O114  1  0.35895522  0.70544946  0.08338466  1  -1.085614  0.118453  -0.306651  -0.458269  0.078029  2.382178  0.108
O  O115  1  0.14103904  0.79456667  0.58339163  1  -1.085678  -0.118421  -0.306663  -0.458229  -0.082969  2.381856  -0.108
O  O116  1  0.80660058  0.28864408  0.09300091  1  -1.093015  0.112742  -0.310514  -0.476799  0.074386  2.365728  0.103
O  O117  1  0.69341053  0.21136315  0.59298842  1  -1.092864  0.112473  -0.310554  -0.476879  0.074188  2.365725  0.103
O  O118  1  0.19341459  0.71137934  0.90701058  1  -1.093099  0.11236  -0.310341  -0.476623  0.074155  2.366282  0.103
O  O119  1  0.30660097  0.78863947  0.40700306  1  -1.09295  -0.112069  -0.310454  -0.476756  -0.078695  2.365858  -0.103
