# generated using pymatgen
data_SnH9C4BrO2
_symmetry_space_group_name_H-M   'P 1'
_cell_length_a   7.71550550
_cell_length_b   9.44603124
_cell_length_c   10.76952316
_cell_angle_alpha   90.00617497
_cell_angle_beta   89.99960792
_cell_angle_gamma   89.99743983
_symmetry_Int_Tables_number   1
_chemical_formula_structural   SnH9C4BrO2
_chemical_formula_sum   'Sn4 H36 C16 Br4 O8'
_cell_volume   784.89259894
_cell_formula_units_Z   4
loop_
 _symmetry_equiv_pos_site_id
 _symmetry_equiv_pos_as_xyz
  1  'x, y, z'
loop_
 _atom_site_type_symbol
 _atom_site_label
 _atom_site_symmetry_multiplicity
 _atom_site_fract_x
 _atom_site_fract_y
 _atom_site_fract_z
 _atom_site_occupancy
 _atom_site_pbe_bader_spin_density
 _atom_site_pbe_cm5_charge
 _atom_site_pbe_ddec_charge
 _atom_site_pbe_ddec_spin_density
 _atom_site_pbe_ddec_sum_bond_order
 _atom_site_pbe_magmom
Sn  Sn0  1  0.24999321  0.07773408  0.18011819  1  0  0.526458  1.212035  0  3.388194  0
Sn  Sn1  1  0.75005876  0.92243119  0.81991751  1  0  0.526652  1.212226  0  3.387457  0
Sn  Sn2  1  0.25000848  0.57769845  0.31987746  1  0  0.526606  1.212019  0  3.387442  0
Sn  Sn3  1  0.74996702  0.42240858  0.68010345  1  0  0.526492  1.211807  0  3.38706  0
H  H4  1  0.91787542  0.99596346  0.16164101  1  0  0.089558  0.183352  0  1.056277  0
H  H5  1  0.41774757  0.00403048  0.83833761  1  0  0.08959  0.183507  0  1.056046  0
H  H6  1  0.58214434  0.49595754  0.33837436  1  0  0.089562  0.183376  0  1.056231  0
H  H7  1  0.08220701  0.50395560  0.66169519  1  0  0.089563  0.183384  0  1.0565  0
H  H8  1  0.08230357  0.00400913  0.83832133  1  0  0.08964  0.183567  0  1.056147  0
H  H9  1  0.58212684  0.99597705  0.16162751  1  0  0.089533  0.183417  0  1.056176  0
H  H10  1  0.41776506  0.50397906  0.66165854  1  0  0.089538  0.183214  0  1.0562  0
H  H11  1  0.91781386  0.49601699  0.33832472  1  0  0.089575  0.183436  0  1.056205  0
H  H12  1  0.93509321  0.13492584  0.27597298  1  0  0.084034  0.177505  0  1.044031  0
H  H13  1  0.43531817  0.86498489  0.72408916  1  0  0.083946  0.177521  0  1.04394  0
H  H14  1  0.56488263  0.63489189  0.22406500  1  0  0.084055  0.17765  0  1.043843  0
H  H15  1  0.06472959  0.36500071  0.77595352  1  0  0.084072  0.177634  0  1.044251  0
H  H16  1  0.06476435  0.86500653  0.72405529  1  0  0.084035  0.177527  0  1.044047  0
H  H17  1  0.56488415  0.13493159  0.27595581  1  0  0.083927  0.177436  0  1.043982  0
H  H18  1  0.43521471  0.36500765  0.77592705  1  0  0.084057  0.177648  0  1.044358  0
H  H19  1  0.93516167  0.63495706  0.22401810  1  0  0.084098  0.177673  0  1.044029  0
H  H20  1  0.00116813  0.95720386  0.31403239  1  0  0.084281  0.165237  0  1.071958  0
H  H21  1  0.50107719  0.04274825  0.68596866  1  0  0.084282  0.165268  0  1.071796  0
H  H22  1  0.49886352  0.45720668  0.18601301  1  0  0.084366  0.165392  0  1.072283  0
H  H23  1  0.99889531  0.54270488  0.81402110  1  0  0.08438  0.165503  0  1.072476  0
H  H24  1  0.99893699  0.04275920  0.68597730  1  0  0.084355  0.165372  0  1.072048  0
H  H25  1  0.49885943  0.95721905  0.31401225  1  0  0.084284  0.165262  0  1.071818  0
H  H26  1  0.50103422  0.54272463  0.81400875  1  0  0.084373  0.165496  0  1.072485  0
H  H27  1  0.00118647  0.45726242  0.18597930  1  0  0.084358  0.165561  0  1.072285  0
H  H28  1  0.24996455  0.20907876  0.61453005  1  0  0.103646  0.170372  0  0.979296  0
H  H29  1  0.75004335  0.79100181  0.38540815  1  0  0.103579  0.170352  0  0.979065  0
H  H30  1  0.25000093  0.70905523  0.88539540  1  0  0.103619  0.170213  0  0.978811  0
H  H31  1  0.74999919  0.29108463  0.11461708  1  0  0.103533  0.170179  0  0.979065  0
H  H32  1  0.36472273  0.10791622  0.50052924  1  0  0.09601  0.151072  0  1.028199  0
H  H33  1  0.86482295  0.89205744  0.49947366  1  0  0.096012  0.150968  0  1.028156  0
H  H34  1  0.13524047  0.60790423  0.99938363  1  0  0.095942  0.151091  0  1.028146  0
H  H35  1  0.63519855  0.39212658  0.00055858  1  0  0.095911  0.150829  0  1.028222  0
H  H36  1  0.63530202  0.89213048  0.49945353  1  0  0.095951  0.150963  0  1.028046  0
H  H37  1  0.13517718  0.10793103  0.50051282  1  0  0.096066  0.151055  0  1.02777  0
H  H38  1  0.86472985  0.39215835  0.00056571  1  0  0.095957  0.150916  0  1.028302  0
H  H39  1  0.36478213  0.60787989  0.99936569  1  0  0.095948  0.151038  0  1.028068  0
C  C40  1  0.99207229  0.03686349  0.24045962  1  0  -0.324602  -0.718531  0  3.714598  0
C  C41  1  0.49210609  0.96312031  0.75959402  1  0  -0.324584  -0.718723  0  3.714489  0
C  C42  1  0.50791275  0.53683802  0.25956700  1  0  -0.324771  -0.718921  0  3.715094  0
C  C43  1  0.00795319  0.46311385  0.74047210  1  0  -0.324746  -0.718771  0  3.715409  0
C  C44  1  0.00799005  0.96315357  0.75955843  1  0  -0.324726  -0.718808  0  3.714722  0
C  C45  1  0.50788496  0.03688404  0.24042867  1  0  -0.324512  -0.718652  0  3.714681  0
C  C46  1  0.49200962  0.46311870  0.74047890  1  0  -0.324682  -0.71862  0  3.715383  0
C  C47  1  0.99204823  0.53686721  0.25951345  1  0  -0.324744  -0.719027  0  3.714855  0
C  C48  1  0.25002568  0.29709409  0.43019745  1  0  0.233858  0.69196  0  4.083256  0
C  C49  1  0.75002241  0.70292613  0.56980203  1  0  0.233643  0.691341  0  4.083126  0
C  C50  1  0.25000299  0.79705073  0.06980459  1  0  0.234015  0.692199  0  4.082925  0
C  C51  1  0.74997770  0.20291763  0.93026360  1  0  0.234001  0.691487  0  4.083257  0
C  C52  1  0.24997138  0.17370890  0.51784160  1  0  -0.242534  -0.540642  0  3.893788  0
C  C53  1  0.75004301  0.82630074  0.48213745  1  0  -0.24246  -0.54042  0  3.893491  0
C  C54  1  0.25000640  0.67368109  0.98210456  1  0  -0.24246  -0.540688  0  3.893347  0
C  C55  1  0.74998595  0.32637196  0.01788006  1  0  -0.242444  -0.540056  0  3.893544  0
Br  Br56  1  0.24996078  0.26646233  0.00873906  1  0  -0.129974  -0.356981  0  1.160546  0
Br  Br57  1  0.74999528  0.73354519  0.99115364  1  0  -0.130171  -0.357271  0  1.160447  0
Br  Br58  1  0.25006307  0.76643455  0.49128416  1  0  -0.130105  -0.357142  0  1.160418  0
Br  Br59  1  0.74991503  0.23359627  0.50881374  1  0  -0.130131  -0.35724  0  1.16091  0
O  O60  1  0.24999069  0.27936957  0.31292399  1  0  -0.278893  -0.571687  0  2.293911  0
O  O61  1  0.74997703  0.72064960  0.68703277  1  0  -0.278673  -0.571258  0  2.294369  0
O  O62  1  0.25000654  0.77930215  0.18702340  1  0  -0.278785  -0.571366  0  2.294607  0
O  O63  1  0.75002081  0.22061539  0.81301228  1  0  -0.279071  -0.571705  0  2.293338  0
O  O64  1  0.24996622  0.42271044  0.47598272  1  0  -0.271009  -0.522109  0  2.250991  0
O  O65  1  0.74998207  0.57727379  0.52398240  1  0  -0.270905  -0.521896  0  2.250128  0
O  O66  1  0.25003101  0.92269334  0.02402499  1  0  -0.271334  -0.522696  0  2.250293  0
O  O67  1  0.75002355  0.07732054  0.97607942  1  0  -0.271042  -0.521846  0  2.250838  0
