# generated using pymatgen
data_Ho2CuH16C24(N2O5)4
_symmetry_space_group_name_H-M   'P 1'
_cell_length_a   6.04449694
_cell_length_b   12.14637896
_cell_length_c   21.58568720
_cell_angle_alpha   90.00060564
_cell_angle_beta   89.99940701
_cell_angle_gamma   92.57242171
_symmetry_Int_Tables_number   1
_chemical_formula_structural   Ho2CuH16C24(N2O5)4
_chemical_formula_sum   'Ho4 Cu2 H32 C48 N16 O40'
_cell_volume   1583.19716733
_cell_formula_units_Z   2
loop_
 _symmetry_equiv_pos_site_id
 _symmetry_equiv_pos_as_xyz
  1  'x, y, z'
loop_
 _atom_site_type_symbol
 _atom_site_label
 _atom_site_symmetry_multiplicity
 _atom_site_fract_x
 _atom_site_fract_y
 _atom_site_fract_z
 _atom_site_occupancy
 _atom_site_pbe_bader_charge
 _atom_site_pbe_bader_spin_density
 _atom_site_pbe_cm5_charge
 _atom_site_pbe_ddec_charge
 _atom_site_pbe_ddec_spin_density
 _atom_site_pbe_ddec_sum_bond_order
 _atom_site_pbe_magmom
Ho  Ho0  1  0.01513668  0.56352487  0.84266487  1  2.177518  -7.6e-05  1.543569  2.044115  -9.2e-05  2.199865  0.0
Ho  Ho1  1  0.48486965  0.93647140  0.34265992  1  2.177483  7.6e-05  1.543493  2.044015  9.2e-05  2.199972  0.0
Ho  Ho2  1  0.98485290  0.43646218  0.15733824  1  2.177228  -7.6e-05  1.54353  2.044098  -9.2e-05  2.199974  0.0
Ho  Ho3  1  0.51512864  0.06353290  0.65733764  1  2.177439  7.6e-05  1.543612  2.044028  9.2e-05  2.200133  0.0
Cu  Cu4  1  0.50001039  0.99999778  0.00000040  1  1.090186  -0.571213  0.76692  0.772636  -0.754577  2.281537  -0.569
Cu  Cu5  1  0.99999664  0.50001255  0.49999898  1  1.090237  0.571202  0.766859  0.772508  0.754571  2.281519  0.569
H  H6  1  0.77991593  0.65082523  0.95527538  1  0.668624  -0.000308  0.307042  0.416492  -0.000345  0.90415  0.0
H  H7  1  0.72006713  0.84917887  0.45526492  1  0.668897  0.000308  0.307008  0.416478  0.000345  0.904202  0.0
H  H8  1  0.22007300  0.34917007  0.04472634  1  0.668569  -0.000308  0.306977  0.416415  -0.000345  0.904266  0.0
H  H9  1  0.27992600  0.15082383  0.54473125  1  0.668697  0.000308  0.306994  0.416431  0.000345  0.904245  0.0
H  H10  1  0.59901394  0.57993100  0.91265810  1  0.65068  -1.2e-05  0.317834  0.426792  -1e-05  0.879556  0.0
H  H11  1  0.90100239  0.92006695  0.41265535  1  0.650549  1.2e-05  0.317768  0.426699  1e-05  0.879648  0.0
H  H12  1  0.40097819  0.42006345  0.08734131  1  0.650733  -1.2e-05  0.317819  0.426748  -1e-05  0.879624  0.0
H  H13  1  0.09901890  0.07992233  0.58734313  1  0.65063  1.2e-05  0.317772  0.426723  1e-05  0.879639  0.0
H  H14  1  0.06026902  0.34835427  0.92190375  1  0.6662  3.4e-05  0.306263  0.426762  4.1e-05  0.884371  0.0
H  H15  1  0.43972656  0.15164183  0.42189675  1  0.662469  -3.4e-05  0.306258  0.426881  -4.2e-05  0.884239  0.0
H  H16  1  0.93973358  0.65163103  0.07809288  1  0.662825  3.4e-05  0.306291  0.426853  4.1e-05  0.884233  0.0
H  H17  1  0.56025339  0.84837499  0.57809247  1  0.663138  -3.4e-05  0.30627  0.42684  -4.1e-05  0.884276  0.0
H  H18  1  0.87371158  0.33899453  0.86977702  1  0.665737  2e-06  0.304594  0.418543  4e-06  0.909426  0.0
H  H19  1  0.62630657  0.16101323  0.36977577  1  0.665617  -2e-06  0.304503  0.418472  -4e-06  0.909527  0.0
H  H20  1  0.12628577  0.66098834  0.13021915  1  0.666031  1e-06  0.304611  0.41875  3e-06  0.909247  0.0
H  H21  1  0.37370704  0.83900827  0.63022411  1  0.665938  -2e-06  0.304603  0.418657  -4e-06  0.909341  0.0
H  H22  1  0.68351147  0.12331117  0.88641957  1  0.210725  -0.002347  0.131329  0.128092  -0.001173  1.015209  -0.002
H  H23  1  0.81644739  0.37669117  0.38641869  1  0.211267  0.002345  0.131285  0.128208  0.001172  1.015209  0.002
H  H24  1  0.31653627  0.87667790  0.11357520  1  0.210847  -0.002348  0.131215  0.127864  -0.001173  1.015132  -0.002
H  H25  1  0.18350846  0.62333161  0.61358211  1  0.211049  0.002347  0.131273  0.127902  0.001173  1.015191  0.002
H  H26  1  0.99599466  0.08150676  0.81371735  1  0.137787  -0.001193  0.125365  0.107972  -0.000657  0.981744  -0.001
H  H27  1  0.50395175  0.41849477  0.31372040  1  0.13865  0.001192  0.125418  0.108022  0.000657  0.98169  0.001
H  H28  1  0.00400314  0.91846621  0.18627186  1  0.138458  -0.001191  0.125353  0.107955  -0.000657  0.981887  -0.001
H  H29  1  0.49601723  0.58152708  0.68627808  1  0.138816  0.001191  0.125306  0.107894  0.000657  0.981898  0.001
H  H30  1  0.37364410  0.89427274  0.79417570  1  0.191028  -1e-06  0.120963  0.087695  1e-06  1.052437  0.0
H  H31  1  0.12634321  0.60572555  0.29416909  1  0.191195  1e-06  0.120917  0.087737  -1e-06  1.052423  0.0
H  H32  1  0.62635715  0.10571504  0.20582556  1  0.190913  -1e-06  0.121017  0.087804  1e-06  1.052603  0.0
H  H33  1  0.87365428  0.39427216  0.70583356  1  0.1912  1e-06  0.120929  0.08772  -1e-06  1.052441  0.0
H  H34  1  0.53252256  0.73207099  0.85014104  1  0.155474  4e-06  0.130062  0.105261  6e-06  1.028661  0.0
H  H35  1  0.96748822  0.76795110  0.35012381  1  0.155891  -4e-06  0.130011  0.105344  -6e-06  1.028516  0.0
H  H36  1  0.46752793  0.26792714  0.14986068  1  0.155232  4e-06  0.129974  0.105302  6e-06  1.028618  0.0
H  H37  1  0.03250240  0.23205821  0.64987143  1  0.155806  -4e-06  0.129971  0.105297  -6e-06  1.028521  0.0
C  C38  1  0.79502149  0.83397837  0.00944390  1  1.636877  -0.001323  0.213404  0.559562  -0.002717  4.218277  -0.001
C  C39  1  0.70498730  0.66603458  0.50944121  1  1.636641  0.00132  0.213411  0.559365  0.002714  4.218024  0.001
C  C40  1  0.20499914  0.16601916  0.99055458  1  1.636633  -0.001325  0.213464  0.559647  -0.002717  4.218193  -0.001
C  C41  1  0.29499996  0.33398795  0.49056005  1  1.636222  0.00132  0.213401  0.559576  0.002713  4.217997  0.001
C  C42  1  0.86204238  0.89862973  0.95210389  1  0.478449  4.6e-05  0.113788  0.024978  -0.000311  3.92687  0.0
C  C43  1  0.63793441  0.60137871  0.45210861  1  0.47839  -4.6e-05  0.113683  0.024939  0.000311  3.926636  0.0
C  C44  1  0.13795341  0.10135397  0.04789089  1  0.476135  3.5e-05  0.113619  0.02483  -0.000313  3.927337  0.0
C  C45  1  0.36204459  0.39864388  0.54789034  1  0.475939  -3.5e-05  0.113661  0.024834  0.000312  3.927438  0.0
C  C46  1  0.78479307  0.05257472  0.89319750  1  0.498065  0.001119  0.06285  0.061563  -0.00011  3.848633  0.001
C  C47  1  0.71518636  0.44743039  0.39319605  1  0.497811  -0.001118  0.062839  0.061335  0.00011  3.848944  -0.001
C  C48  1  0.21521975  0.94741298  0.10679820  1  0.497089  0.001117  0.063004  0.061714  -0.000109  3.848583  0.001
C  C49  1  0.28480080  0.55259132  0.60680429  1  0.497196  -0.001118  0.062986  0.061815  0.00011  3.84885  -0.001
C  C50  1  0.96046680  0.02907112  0.85382573  1  0.512433  -0.006028  0.068042  0.088149  -0.004215  3.896569  -0.005
C  C51  1  0.53950933  0.47093867  0.35383046  1  0.511747  0.006028  0.068006  0.088052  0.004214  3.8967  0.005
C  C52  1  0.03954743  0.97090090  0.14617229  1  0.512253  -0.006026  0.067943  0.088161  -0.004214  3.89665  -0.005
C  C53  1  0.46046375  0.52908974  0.64617544  1  0.511508  0.006028  0.067979  0.088051  0.004214  3.89669  0.005
C  C54  1  0.03971914  0.87849907  0.91279232  1  0.555433  -0.002911  0.133193  0.061236  -0.002096  3.938115  -0.002
C  C55  1  0.46026269  0.62150835  0.41279625  1  0.554823  0.002909  0.133324  0.061492  0.002095  3.938151  0.002
C  C56  1  0.96029288  0.12148203  0.08720385  1  0.555403  -0.002911  0.133316  0.061406  -0.002097  3.937443  -0.002
C  C57  1  0.53969482  0.37851441  0.58720825  1  0.555673  0.002911  0.133343  0.061513  0.002096  3.937425  0.002
C  C58  1  0.20435370  0.79085253  0.92495240  1  1.659576  -0.001406  0.228689  0.62017  -0.001074  4.221595  -0.001
C  C59  1  0.29563213  0.70915501  0.42495830  1  1.659893  0.001406  0.228595  0.619807  0.001073  4.221892  0.001
C  C60  1  0.79564880  0.20913194  0.07504515  1  1.658865  -0.001407  0.228968  0.620443  -0.001074  4.221499  -0.001
C  C61  1  0.70434822  0.29086510  0.57504852  1  1.658927  0.001407  0.22878  0.620202  0.001075  4.221617  0.001
C  C62  1  0.99290306  0.96544871  0.68499992  1  1.644836  -1e-06  0.247777  0.631268  -7e-06  4.144145  0.0
C  C63  1  0.50707430  0.53455145  0.18499701  1  1.644651  1e-06  0.247793  0.631361  7e-06  4.143872  0.0
C  C64  1  0.00709543  0.03455724  0.31499810  1  1.644761  -1e-06  0.247754  0.631321  -7e-06  4.143892  0.0
C  C65  1  0.49291939  0.46544216  0.81500425  1  1.644959  1e-06  0.247816  0.631323  6e-06  4.14416  0.0
C  C66  1  0.85641488  0.88541427  0.72482071  1  0.58886  3.1e-05  0.139472  0.070279  2.2e-05  3.901091  0.0
C  C67  1  0.64357457  0.61458524  0.22481511  1  0.588573  -3.2e-05  0.139387  0.070286  -2.2e-05  3.900996  0.0
C  C68  1  0.14358982  0.11458834  0.27517685  1  0.588118  3.1e-05  0.139497  0.07016  2.1e-05  3.90106  0.0
C  C69  1  0.35642603  0.38541080  0.77518476  1  0.587587  -3.1e-05  0.139381  0.070185  -2.2e-05  3.901241  0.0
C  C70  1  0.53623211  0.86457030  0.78229666  1  0.480237  5.3e-05  0.069229  0.088964  4.7e-05  3.869468  0.0
C  C71  1  0.96375035  0.63542690  0.28228754  1  0.48022  -5.3e-05  0.069251  0.08887  -4.7e-05  3.869441  0.0
C  C72  1  0.46378558  0.13541653  0.21770182  1  0.480093  5.3e-05  0.06914  0.08893  4.7e-05  3.869601  0.0
C  C73  1  0.03625170  0.36456748  0.71770908  1  0.480285  -5.3e-05  0.069129  0.088739  -4.7e-05  3.869525  0.0
C  C74  1  0.62149858  0.77369478  0.81242456  1  0.498064  2e-06  0.069452  0.090711  5e-06  3.867256  0.0
C  C75  1  0.87849697  0.72631467  0.31241300  1  0.497568  -2e-06  0.069547  0.090737  -5e-06  3.866878  0.0
C  C76  1  0.37851649  0.22629785  0.18757902  1  0.498553  2e-06  0.069545  0.090634  5e-06  3.866802  0.0
C  C77  1  0.12149761  0.27368637  0.68758224  1  0.497578  -2e-06  0.069646  0.090989  -5e-06  3.866852  0.0
C  C78  1  0.92955256  0.78653705  0.74959639  1  0.497357  7.9e-05  0.131173  0.065787  6.2e-05  3.920491  0.0
C  C79  1  0.57044191  0.71346517  0.24958893  1  0.497269  -7.9e-05  0.131186  0.065705  -6.2e-05  3.920375  0.0
C  C80  1  0.07047227  0.21346788  0.25040302  1  0.498373  7.9e-05  0.131218  0.065872  6.2e-05  3.920817  0.0
C  C81  1  0.42953710  0.28653021  0.75040863  1  0.498364  -7.8e-05  0.131227  0.065907  -6.2e-05  3.920441  0.0
C  C82  1  0.12859291  0.72815566  0.72604597  1  1.631708  2.5e-05  0.222405  0.582746  2.3e-05  4.233844  0.0
C  C83  1  0.37140687  0.77184053  0.22604372  1  1.631814  -2.5e-05  0.222626  0.583025  -2.2e-05  4.233823  0.0
C  C84  1  0.87144912  0.27184088  0.27396039  1  1.632134  2.5e-05  0.22265  0.583116  2.2e-05  4.23346  0.0
C  C85  1  0.62856988  0.22814991  0.77395616  1  1.63141  -2.5e-05  0.22239  0.582598  -2.2e-05  4.234071  0.0
N  N86  1  0.73909577  0.98641597  0.94118840  1  -1.214856  -0.075507  -0.343934  -0.206042  -0.051901  3.693768  -0.065
N  N87  1  0.76089291  0.51358639  0.44118787  1  -1.214521  0.075502  -0.343867  -0.205943  0.051899  3.693405  0.065
N  N88  1  0.26090473  0.01357924  0.05880916  1  -1.212305  -0.075492  -0.343939  -0.20601  -0.051898  3.694351  -0.065
N  N89  1  0.23910843  0.48642944  0.55881386  1  -1.211815  0.075503  -0.343933  -0.206052  0.051905  3.694408  0.065
N  N90  1  0.08589500  0.94293942  0.86315228  1  -1.162083  0.002456  -0.284089  -0.229661  0.001714  3.299325  0.002
N  N91  1  0.41409169  0.55707650  0.36315615  1  -1.162228  -0.002457  -0.28403  -0.229522  -0.001715  3.299509  -0.002
N  N92  1  0.91411242  0.05703100  0.13684712  1  -1.161491  0.002457  -0.283995  -0.229656  0.001715  3.298595  0.002
N  N93  1  0.58587653  0.44295278  0.63685299  1  -1.161874  -0.002457  -0.283959  -0.229494  -0.001715  3.298651  -0.002
N  N94  1  0.65229988  0.91855612  0.73812410  1  -1.20774  4e-06  -0.332075  -0.294464  3e-06  3.472346  0.0
N  N95  1  0.84767970  0.58143778  0.23811731  1  -1.208061  -4e-06  -0.332062  -0.294418  -3e-06  3.472566  0.0
N  N96  1  0.34770838  0.08143491  0.26187392  1  -1.207832  4e-06  -0.332086  -0.294474  3e-06  3.472281  0.0
N  N97  1  0.15232440  0.41855988  0.76187932  1  -1.207615  -4e-06  -0.332037  -0.294435  -3e-06  3.472611  0.0
N  N98  1  0.81232243  0.73247605  0.79406313  1  -1.222072  2.7e-05  -0.331546  -0.313304  2.2e-05  3.479866  0.0
N  N99  1  0.68766296  0.76752625  0.29405704  1  -1.221888  -2.7e-05  -0.331566  -0.313266  -2.2e-05  3.479707  0.0
N  N100  1  0.18769139  0.26751989  0.20593859  1  -1.222171  2.7e-05  -0.331556  -0.313207  2.2e-05  3.479773  0.0
N  N101  1  0.31231544  0.23246419  0.70594237  1  -1.221907  -2.7e-05  -0.331555  -0.313365  -2.2e-05  3.479676  0.0
O  O102  1  0.67322028  0.88504291  0.04735049  1  -1.100228  -0.101039  -0.310225  -0.510119  -0.066482  2.268854  -0.09
O  O103  1  0.82681802  0.61497761  0.54735246  1  -1.100269  0.101055  -0.310273  -0.510067  0.066492  2.268592  0.09
O  O104  1  0.32681477  0.11496441  0.95265124  1  -1.100199  -0.101044  -0.310126  -0.510124  -0.066486  2.26899  -0.09
O  O105  1  0.17315853  0.38503841  0.45265390  1  -1.099897  0.101075  -0.310104  -0.510095  0.066505  2.26878  0.09
O  O106  1  0.86427144  0.73833098  0.01632678  1  -1.175024  -0.018602  -0.286029  -0.512118  -0.011971  2.174167  -0.016
O  O107  1  0.63574920  0.76169469  0.51632301  1  -1.174827  0.018592  -0.286041  -0.51201  0.011964  2.173906  0.016
O  O108  1  0.13575259  0.26166735  0.98367032  1  -1.174967  -0.018614  -0.286127  -0.512105  -0.011979  2.174103  -0.016
O  O109  1  0.36424723  0.23833519  0.48366945  1  -1.174954  0.01861  -0.286037  -0.511975  0.011976  2.173797  0.016
O  O110  1  0.36694050  0.81913508  0.95763014  1  -1.139732  -0.004318  -0.295406  -0.530849  -0.002788  2.208185  -0.005
O  O111  1  0.13305826  0.68088209  0.45763961  1  -1.140017  0.00431  -0.295423  -0.530742  0.002783  2.20835  0.005
O  O112  1  0.63307097  0.18085510  0.04236185  1  -1.139927  -0.004318  -0.295428  -0.530829  -0.002788  2.208339  -0.005
O  O113  1  0.86693571  0.31914121  0.54237138  1  -1.139646  0.00431  -0.295409  -0.530796  0.002783  2.208309  0.005
O  O114  1  0.17475746  0.69825101  0.89754921  1  -1.202136  -0.001552  -0.437166  -0.67878  -0.001023  2.363187  -0.001
O  O115  1  0.32519927  0.80174756  0.39753952  1  -1.202337  0.00155  -0.437049  -0.678621  0.001022  2.363076  0.001
O  O116  1  0.82523463  0.30172942  0.10245390  1  -1.201363  -0.001552  -0.437427  -0.679161  -0.001023  2.363168  -0.001
O  O117  1  0.67477367  0.19826602  0.60246314  1  -1.201782  0.001551  -0.437289  -0.67902  0.001023  2.363182  0.001
O  O118  1  0.88942262  0.01363597  0.64231209  1  -1.17594  5.6e-05  -0.354014  -0.614708  3.1e-05  2.268335  0.0
O  O119  1  0.61055558  0.48636574  0.14230452  1  -1.175532  -5.5e-05  -0.353973  -0.614675  -3e-05  2.268186  0.0
O  O120  1  0.11057336  0.98637660  0.35769195  1  -1.175813  5.6e-05  -0.353939  -0.614702  3.1e-05  2.268101  0.0
O  O121  1  0.38943546  0.51361965  0.85769860  1  -1.175682  -5.5e-05  -0.35395  -0.614672  -3e-05  2.268258  0.0
O  O122  1  0.19369811  0.98487440  0.69957731  1  -1.186914  -1.3e-05  -0.382181  -0.635081  -1.5e-05  2.316829  0.0
O  O123  1  0.30627607  0.51512759  0.19958054  1  -1.186834  1.3e-05  -0.382158  -0.635206  1.5e-05  2.31678  0.0
O  O124  1  0.80629952  0.01513816  0.30041839  1  -1.186958  -1.3e-05  -0.382151  -0.635045  -1.5e-05  2.316582  0.0
O  O125  1  0.69371441  0.48486688  0.80042396  1  -1.186962  1.3e-05  -0.382221  -0.635166  1.5e-05  2.316796  0.0
O  O126  1  0.21325746  0.75747497  0.67557180  1  -1.179239  0.00025  -0.291517  -0.519796  0.000178  2.230707  0.0
O  O127  1  0.28674529  0.74252812  0.17556905  1  -1.179272  -0.00025  -0.291609  -0.519926  -0.000178  2.230602  0.0
O  O128  1  0.78682524  0.24252951  0.32444012  1  -1.179398  0.00025  -0.291494  -0.519884  0.000178  2.230765  0.0
O  O129  1  0.71321734  0.25745501  0.82443545  1  -1.179276  -0.00025  -0.291598  -0.519854  -0.000178  2.230596  0.0
O  O130  1  0.18845586  0.64775690  0.75957270  1  -1.189653  5.8e-05  -0.40953  -0.687231  3.4e-05  2.366911  0.0
O  O131  1  0.31154488  0.85223166  0.25957207  1  -1.189511  -5.8e-05  -0.409709  -0.687383  -3.5e-05  2.367108  0.0
O  O132  1  0.81156087  0.35223572  0.24043875  1  -1.189883  5.8e-05  -0.409842  -0.68761  3.5e-05  2.366631  0.0
O  O133  1  0.68844375  0.14776117  0.74042595  1  -1.189628  -5.8e-05  -0.409544  -0.687085  -3.5e-05  2.367249  0.0
O  O134  1  0.75561786  0.60397645  0.91802049  1  -1.292506  -0.000963  -0.651892  -0.876036  -0.000616  2.096116  -0.001
O  O135  1  0.74440034  0.89600717  0.41800284  1  -1.292448  0.000963  -0.651821  -0.876057  0.000616  2.096292  0.001
O  O136  1  0.24438073  0.39600310  0.08198772  1  -1.292433  -0.000963  -0.651815  -0.875964  -0.000616  2.096342  -0.001
O  O137  1  0.25560873  0.10399045  0.58199147  1  -1.292487  0.000963  -0.651791  -0.875967  0.000616  2.096402  0.001
O  O138  1  0.98007297  0.39126850  0.89068232  1  -1.302801  5e-06  -0.660339  -0.885225  8e-06  2.028991  0.0
O  O139  1  0.51994241  0.10873399  0.39067363  1  -1.298855  -5e-06  -0.660243  -0.885304  -8e-06  2.02891  0.0
O  O140  1  0.01990649  0.60871697  0.10931755  1  -1.299601  5e-06  -0.660433  -0.885581  8e-06  2.028614  0.0
O  O141  1  0.48007071  0.89128340  0.60931698  1  -1.299736  -5e-06  -0.660407  -0.885478  -8e-06  2.028747  0.0
