# generated using pymatgen
data_H9PbC10Br2N3
_symmetry_space_group_name_H-M   'P 1'
_cell_length_a   8.00224624
_cell_length_b   9.68432977
_cell_length_c   16.05667107
_cell_angle_alpha   89.99833617
_cell_angle_beta   93.87079010
_cell_angle_gamma   89.99930279
_symmetry_Int_Tables_number   1
_chemical_formula_structural   H9PbC10Br2N3
_chemical_formula_sum   'H36 Pb4 C40 Br8 N12'
_cell_volume   1241.49552183
_cell_formula_units_Z   4
loop_
 _symmetry_equiv_pos_site_id
 _symmetry_equiv_pos_as_xyz
  1  'x, y, z'
loop_
 _atom_site_type_symbol
 _atom_site_label
 _atom_site_symmetry_multiplicity
 _atom_site_fract_x
 _atom_site_fract_y
 _atom_site_fract_z
 _atom_site_occupancy
 _atom_site_hle17_bader_spin_density
 _atom_site_hle17_ddec_charge
 _atom_site_hle17_ddec_spin_density
 _atom_site_hle17_ddec_sum_bond_order
 _atom_site_hle17_magmom
 _atom_site_hse06_10hf_bader_spin_density
 _atom_site_hse06_10hf_ddec_charge
 _atom_site_hse06_10hf_ddec_spin_density
 _atom_site_hse06_10hf_ddec_sum_bond_order
 _atom_site_hse06_10hf_magmom
 _atom_site_hse06_bader_spin_density
 _atom_site_hse06_ddec_charge
 _atom_site_hse06_ddec_spin_density
 _atom_site_hse06_ddec_sum_bond_order
 _atom_site_hse06_magmom
 _atom_site_pbe_bader_spin_density
 _atom_site_pbe_cm5_charge
 _atom_site_pbe_ddec_charge
 _atom_site_pbe_ddec_spin_density
 _atom_site_pbe_ddec_sum_bond_order
 _atom_site_pbe_magmom
H  H0  1  0.86703794  0.64405999  0.61580091  1  0  0.046257  0  1.002968  0  0  0.053988  0  1.07675  0  0  0.055796  0  1.074952  0  0  0.093305  0.053707  0  1.076442  0
H  H1  1  0.63296033  0.14405879  0.38418055  1  0  0.046181  0  1.00284  0  0  0.053955  0  1.076594  0  0  0.055762  0  1.074793  0  0  0.093285  0.053674  0  1.076283  0
H  H2  1  0.13292271  0.35591797  0.38418902  1  0  0.046459  0  1.003134  0  0  0.054131  0  1.076935  0  0  0.055939  0  1.075138  0  0  0.093319  0.053846  0  1.076629  0
H  H3  1  0.36714951  0.85590885  0.61581067  1  0  0.046586  0  1.002845  0  0  0.054211  0  1.076715  0  0  0.056022  0  1.074908  0  0  0.093309  0.053924  0  1.076404  0
H  H4  1  0.72683371  0.52350800  0.49166252  1  0  0.10555  0  0.968493  0  0  0.113919  0  1.034295  0  0  0.11711  0  1.03362  0  0  0.096058  0.111394  0  1.035085  0
H  H5  1  0.77319205  0.02350685  0.50831166  1  0  0.105517  0  0.968291  0  0  0.113836  0  1.034181  0  0  0.117089  0  1.03343  0  0  0.096053  0.111312  0  1.034963  0
H  H6  1  0.27313640  0.47646584  0.50830724  1  0  0.105496  0  0.968526  0  0  0.113792  0  1.034419  0  0  0.117046  0  1.033668  0  0  0.096057  0.111267  0  1.035211  0
H  H7  1  0.22689563  0.97646079  0.49170416  1  0  0.105596  0  0.968425  0  0  0.113942  0  1.034278  0  0  0.117197  0  1.033527  0  0  0.096086  0.111423  0  1.035048  0
H  H8  1  0.79471175  0.27398960  0.46985781  1  0  0.085782  0  0.962373  0  0  0.09648  0  1.027294  0  0  0.098638  0  1.025472  0  0  0.097936  0.094607  0  1.028727  0
H  H9  1  0.70529159  0.77399847  0.53012713  1  0  0.085713  0  0.962628  0  0  0.096531  0  1.027383  0  0  0.098688  0  1.025558  0  0  0.097903  0.094648  0  1.028827  0
H  H10  1  0.20526934  0.72599765  0.53012114  1  0  0.085426  0  0.962735  0  0  0.096451  0  1.027309  0  0  0.098609  0  1.025484  0  0  0.097935  0.094572  0  1.028747  0
H  H11  1  0.29470820  0.22599601  0.46989185  1  0  0.085436  0  0.962796  0  0  0.096467  0  1.027332  0  0  0.098626  0  1.025498  0  0  0.097953  0.094586  0  1.028787  0
H  H12  1  0.98347809  0.15247544  0.57678235  1  0  0.112861  0  0.986976  0  0  0.120787  0  1.053056  0  0  0.125061  0  1.050694  0  0  0.093495  0.118697  0  1.053382  0
H  H13  1  0.51652077  0.65248394  0.42321393  1  0  0.112862  0  0.986916  0  0  0.120876  0  1.052905  0  0  0.125157  0  1.050535  0  0  0.093559  0.118783  0  1.053237  0
H  H14  1  0.01654311  0.84750872  0.42319704  1  0  0.11297  0  0.98696  0  0  0.120934  0  1.052998  0  0  0.125213  0  1.050631  0  0  0.093554  0.118846  0  1.053323  0
H  H15  1  0.48339171  0.34752810  0.57682754  1  0  0.11275  0  0.98712  0  0  0.120856  0  1.053025  0  0  0.125135  0  1.050666  0  0  0.093514  0.118773  0  1.053347  0
H  H16  1  0.10762683  0.15522983  0.70138026  1  0  0.288818  0  0.905625  0  0  0.273094  0  0.971141  0  0  0.280165  0  0.965691  0  0  0.299629  0.268815  0  0.973988  0
H  H17  1  0.39238613  0.65522177  0.29862428  1  0  0.288937  0  0.905507  0  0  0.273157  0  0.971124  0  0  0.280234  0  0.965665  0  0  0.299613  0.268882  0  0.973969  0
H  H18  1  0.89231509  0.84475433  0.29860701  1  0  0.289073  0  0.905379  0  0  0.27326  0  0.970966  0  0  0.280324  0  0.965532  0  0  0.299782  0.26899  0  0.973801  0
H  H19  1  0.60765015  0.34475825  0.70139126  1  0  0.288907  0  0.905457  0  0  0.273114  0  0.971075  0  0  0.28018  0  0.965632  0  0  0.299695  0.268841  0  0.973917  0
H  H20  1  0.30180456  0.54430083  0.91754991  1  0  0.063787  0  0.974469  0  0  0.072515  0  1.04273  0  0  0.074694  0  1.040724  0  0  0.10118  0.070305  0  1.045421  0
H  H21  1  0.19817304  0.04429236  0.08244641  1  0  0.06377  0  0.974506  0  0  0.072483  0  1.042773  0  0  0.074677  0  1.04076  0  0  0.101134  0.070263  0  1.045477  0
H  H22  1  0.69819983  0.45571224  0.08240759  1  0  0.063804  0  0.974315  0  0  0.072451  0  1.042663  0  0  0.074676  0  1.040614  0  0  0.10114  0.070227  0  1.045367  0
H  H23  1  0.80181647  0.95574756  0.91761636  1  0  0.063637  0  0.974113  0  0  0.072432  0  1.042286  0  0  0.074631  0  1.040265  0  0  0.101069  0.070161  0  1.04504  0
H  H24  1  0.41565512  0.35055272  0.00763861  1  0  0.106544  0  0.972789  0  0  0.113585  0  1.038276  0  0  0.117224  0  1.036817  0  0  0.092982  0.111139  0  1.038947  0
H  H25  1  0.08428826  0.85056092  0.99235389  1  0  0.106442  0  0.972786  0  0  0.113472  0  1.038303  0  0  0.117137  0  1.036812  0  0  0.092815  0.111026  0  1.038976  0
H  H26  1  0.58432885  0.64944486  0.99232925  1  0  0.106384  0  0.972944  0  0  0.113372  0  1.03853  0  0  0.117028  0  1.03706  0  0  0.092819  0.11093  0  1.039194  0
H  H27  1  0.91571116  0.14948210  0.00767566  1  0  0.10647  0  0.97267  0  0  0.113397  0  1.038304  0  0  0.117097  0  1.036783  0  0  0.092805  0.110952  0  1.038971  0
H  H28  1  0.38411044  0.10765711  0.95203277  1  0  0.095718  0  0.944694  0  0  0.103997  0  1.010612  0  0  0.106807  0  1.008098  0  0  0.097566  0.101004  0  1.01417  0
H  H29  1  0.11587452  0.60766142  0.04793532  1  0  0.095649  0  0.944413  0  0  0.103976  0  1.010377  0  0  0.106774  0  1.007857  0  0  0.097602  0.100992  0  1.013929  0
H  H30  1  0.61580786  0.89234047  0.04794853  1  0  0.095779  0  0.94456  0  0  0.104073  0  1.010548  0  0  0.106878  0  1.00801  0  0  0.09764  0.101083  0  1.014087  0
H  H31  1  0.88414373  0.39238676  0.95205703  1  0  0.095662  0  0.944614  0  0  0.103955  0  1.010611  0  0  0.10675  0  1.008091  0  0  0.097561  0.100981  0  1.014156  0
H  H32  1  0.23627061  0.06974105  0.81343858  1  0  0.112242  0  0.974731  0  0  0.115326  0  1.048392  0  0  0.119692  0  1.045937  0  0  0.094982  0.111916  0  1.050786  0
H  H33  1  0.26363477  0.56969717  0.18652934  1  0  0.112123  0  0.974783  0  0  0.115188  0  1.048462  0  0  0.119559  0  1.045999  0  0  0.09486  0.111779  0  1.050859  0
H  H34  1  0.76358115  0.93025963  0.18654490  1  0  0.112357  0  0.97492  0  0  0.115322  0  1.048682  0  0  0.119708  0  1.046177  0  0  0.094922  0.111901  0  1.051118  0
H  H35  1  0.73640263  0.43029319  0.81345323  1  0  0.112259  0  0.974748  0  0  0.115325  0  1.048377  0  0  0.119705  0  1.045887  0  0  0.094955  0.111915  0  1.050778  0
Pb  Pb36  1  0.15366943  0.65249046  0.75397121  1  0  1.009668  0  1.76084  0  0  0.821386  0  2.21626  0  0  0.877177  0  2.178077  0  0  0.431692  0.779958  0  2.242597  0
Pb  Pb37  1  0.34647254  0.15251627  0.24596593  1  0  1.009593  0  1.760798  0  0  0.821313  0  2.216277  0  0  0.87711  0  2.178092  0  0  0.431685  0.779815  0  2.242737  0
Pb  Pb38  1  0.84647688  0.34745343  0.24598043  1  0  1.00991  0  1.759811  0  0  0.821689  0  2.214998  0  0  0.877501  0  2.17683  0  0  0.431906  0.780143  0  2.241524  0
Pb  Pb39  1  0.65360731  0.84750093  0.75405891  1  0  1.009952  0  1.75988  0  0  0.82166  0  2.215178  0  0  0.877483  0  2.176977  0  0  0.431919  0.780118  0  2.241699  0
C  C40  1  0.88567279  0.53383361  0.60546736  1  0  0.126899  0  3.777569  0  0  0.100528  0  4.024561  0  0  0.108416  0  4.044278  0  0  0.032344  0.095098  0  4.010706  0
C  C41  1  0.61430468  0.03383418  0.39452018  1  0  0.126719  0  3.777856  0  0  0.100359  0  4.024765  0  0  0.108238  0  4.04451  0  0  0.032165  0.094935  0  4.010901  0
C  C42  1  0.11428191  0.46614125  0.39451297  1  0  0.126534  0  3.777766  0  0  0.100223  0  4.024722  0  0  0.108105  0  4.044463  0  0  0.032215  0.094805  0  4.010848  0
C  C43  1  0.38577842  0.96613552  0.60548299  1  0  0.12645  0  3.777646  0  0  0.100129  0  4.024631  0  0  0.10801  0  4.044374  0  0  0.032363  0.094705  0  4.010761  0
C  C44  1  0.80966648  0.46804478  0.53648156  1  0  -0.147419  0  3.767632  0  0  -0.163137  0  4.021541  0  0  -0.171679  0  4.043469  0  0  -0.106233  -0.157986  0  4.008049  0
C  C45  1  0.69030444  0.96806412  0.46350600  1  0  -0.147229  0  3.767823  0  0  -0.16298  0  4.021828  0  0  -0.171566  0  4.04374  0  0  -0.106245  -0.157829  0  4.008324  0
C  C46  1  0.19026382  0.53192906  0.46351581  1  0  -0.147153  0  3.767471  0  0  -0.162854  0  4.021453  0  0  -0.171438  0  4.043354  0  0  -0.106219  -0.15771  0  4.007962  0
C  C47  1  0.30976488  0.03192417  0.53649659  1  0  -0.147297  0  3.767713  0  0  -0.163069  0  4.021707  0  0  -0.171658  0  4.043608  0  0  -0.106268  -0.157912  0  4.008211  0
C  C48  1  0.84722805  0.32865266  0.52484724  1  0  0.010481  0  3.765399  0  0  -0.007564  0  4.015522  0  0  -0.001734  0  4.03385  0  0  -0.074576  -0.011001  0  4.003423  0
C  C49  1  0.65272111  0.82867391  0.47515313  1  0  0.010375  0  3.765163  0  0  -0.007702  0  4.015261  0  0  -0.001871  0  4.033606  0  0  -0.0744  -0.011134  0  4.003147  0
C  C50  1  0.15270878  0.67131498  0.47514231  1  0  0.010777  0  3.76572  0  0  -0.007498  0  4.015807  0  0  -0.001685  0  4.034182  0  0  -0.074466  -0.010933  0  4.003705  0
C  C51  1  0.34728751  0.17131851  0.52486435  1  0  0.010865  0  3.765312  0  0  -0.007367  0  4.01542  0  0  -0.001543  0  4.033778  0  0  -0.074448  -0.010813  0  4.003329  0
C  C52  1  0.95239756  0.26128938  0.58332221  1  0  -0.221879  0  3.698561  0  0  -0.238755  0  3.952259  0  0  -0.249039  0  3.970929  0  0  -0.098806  -0.232319  0  3.938768  0
C  C53  1  0.54753765  0.76131439  0.41668127  1  0  -0.221723  0  3.698401  0  0  -0.23862  0  3.952181  0  0  -0.248908  0  3.970849  0  0  -0.098816  -0.232186  0  3.938687  0
C  C54  1  0.04755045  0.73868136  0.41667030  1  0  -0.222092  0  3.698622  0  0  -0.239034  0  3.952445  0  0  -0.24933  0  3.971136  0  0  -0.098881  -0.232589  0  3.938917  0
C  C55  1  0.45243056  0.23869145  0.58334448  1  0  -0.221914  0  3.69879  0  0  -0.238965  0  3.952607  0  0  -0.249265  0  3.971289  0  0  -0.098789  -0.232538  0  3.939099  0
C  C56  1  0.01886719  0.33445905  0.65420917  1  0  0.429937  0  3.772987  0  0  0.399086  0  4.036467  0  0  0.418655  0  4.050054  0  0  0.229657  0.386187  0  4.026756  0
C  C57  1  0.48106359  0.83447580  0.34579367  1  0  0.430284  0  3.772665  0  0  0.399168  0  4.036449  0  0  0.418737  0  4.050038  0  0  0.229717  0.386275  0  4.026737  0
C  C58  1  0.98107879  0.66552717  0.34576955  1  0  0.430314  0  3.773009  0  0  0.399479  0  4.036381  0  0  0.419052  0  4.049963  0  0  0.229823  0.386587  0  4.026653  0
C  C59  1  0.51894371  0.16552591  0.65422562  1  0  0.430321  0  3.773341  0  0  0.399357  0  4.03694  0  0  0.418929  0  4.050525  0  0  0.22986  0.386498  0  4.027164  0
C  C60  1  0.28962458  0.43704563  0.89684087  1  0  0.122732  0  3.746242  0  0  0.096207  0  3.989911  0  0  0.10325  0  4.010386  0  0  0.036694  0.09202  0  3.977068  0
C  C61  1  0.21032943  0.93703920  0.10316236  1  0  0.12225  0  3.746375  0  0  0.0958  0  3.990061  0  0  0.102822  0  4.010545  0  0  0.036517  0.091636  0  3.977206  0
C  C62  1  0.71035530  0.56295505  0.10313679  1  0  0.122389  0  3.746609  0  0  0.095931  0  3.990255  0  0  0.102939  0  4.010725  0  0  0.036649  0.091771  0  3.977403  0
C  C63  1  0.78966552  0.06300175  0.89688819  1  0  0.122478  0  3.746755  0  0  0.095956  0  3.99032  0  0  0.102974  0  4.010804  0  0  0.036761  0.091825  0  3.977483  0
C  C64  1  0.35332828  0.33038318  0.94656063  1  0  -0.134646  0  3.761248  0  0  -0.148848  0  4.012489  0  0  -0.157157  0  4.034551  0  0  -0.100641  -0.143474  0  3.99704  0
C  C65  1  0.14660922  0.83038693  0.05343136  1  0  -0.134274  0  3.760728  0  0  -0.148366  0  4.011809  0  0  -0.156696  0  4.033867  0  0  -0.10026  -0.142994  0  3.996359  0
C  C66  1  0.64661006  0.66961956  0.05342150  1  0  -0.134328  0  3.761332  0  0  -0.148406  0  4.012412  0  0  -0.156743  0  4.034495  0  0  -0.100204  -0.143036  0  3.996948  0
C  C67  1  0.85337783  0.16965505  0.94659331  1  0  -0.134653  0  3.761199  0  0  -0.148698  0  4.012345  0  0  -0.157058  0  4.034377  0  0  -0.100438  -0.143318  0  3.996892  0
C  C68  1  0.33470404  0.19554142  0.91576534  1  0  0.024402  0  3.729296  0  0  0.004615  0  3.979071  0  0  0.010757  0  3.996464  0  0  -0.070149  0.001079  0  3.96828  0
C  C69  1  0.16523826  0.69554561  0.08423052  1  0  0.024222  0  3.729647  0  0  0.004281  0  3.979545  0  0  0.010436  0  3.996942  0  0  -0.070455  0.000735  0  3.968748  0
C  C70  1  0.66520535  0.80445307  0.08421994  1  0  0.024357  0  3.72968  0  0  0.004454  0  3.979534  0  0  0.010608  0  3.996932  0  0  -0.070543  0.000935  0  3.96871  0
C  C71  1  0.83476388  0.30449844  0.91579292  1  0  0.024488  0  3.729046  0  0  0.004562  0  3.978913  0  0  0.010724  0  3.996301  0  0  -0.07034  0.001024  0  3.96809  0
C  C72  1  0.25294650  0.17408731  0.83826967  1  0  -0.21452  0  3.689949  0  0  -0.228716  0  3.942405  0  0  -0.239218  0  3.961783  0  0  -0.094896  -0.222102  0  3.930355  0
C  C73  1  0.24696484  0.67407573  0.16172590  1  0  -0.214031  0  3.689709  0  0  -0.22815  0  3.942147  0  0  -0.238649  0  3.961535  0  0  -0.094585  -0.221542  0  3.93009  0
C  C74  1  0.74692001  0.82591130  0.16172253  1  0  -0.21455  0  3.689873  0  0  -0.22864  0  3.942341  0  0  -0.239127  0  3.96173  0  0  -0.094598  -0.222039  0  3.930278  0
C  C75  1  0.75303641  0.32594044  0.83828691  1  0  -0.214137  0  3.689889  0  0  -0.228247  0  3.94222  0  0  -0.23874  0  3.9616  0  0  -0.094496  -0.221636  0  3.930178  0
C  C76  1  0.19162310  0.28862839  0.79112219  1  0  0.427704  0  3.766395  0  0  0.396725  0  4.028663  0  0  0.41567  0  4.043205  0  0  0.229448  0.384174  0  4.018767  0
C  C77  1  0.30829201  0.78860677  0.20888642  1  0  0.427164  0  3.766501  0  0  0.396202  0  4.028808  0  0  0.415138  0  4.043366  0  0  0.229177  0.38366  0  4.018894  0
C  C78  1  0.80830643  0.71136506  0.20886082  1  0  0.427521  0  3.766499  0  0  0.396521  0  4.028698  0  0  0.41544  0  4.043288  0  0  0.229317  0.383983  0  4.018781  0
C  C79  1  0.69169719  0.21140320  0.79114893  1  0  0.426949  0  3.767136  0  0  0.39605  0  4.029233  0  0  0.414982  0  4.043798  0  0  0.229107  0.383501  0  4.01933  0
Br  Br80  1  0.47426517  0.58868790  0.66298549  1  0  -0.610743  0  0.872512  0  0  -0.538643  0  1.144032  0  0  -0.562411  0  1.127435  0  0  -0.25303  -0.521406  0  1.152931  0
Br  Br81  1  0.02589614  0.08860116  0.33700655  1  0  -0.610785  0  0.872081  0  0  -0.538724  0  1.143566  0  0  -0.562486  0  1.126983  0  0  -0.253142  -0.521478  0  1.152471  0
Br  Br82  1  0.52593369  0.41151207  0.33700635  1  0  -0.610852  0  0.871755  0  0  -0.538846  0  1.143269  0  0  -0.562611  0  1.12668  0  0  -0.253249  -0.5216  0  1.152172  0
Br  Br83  1  0.97419717  0.91144702  0.66299145  1  0  -0.610913  0  0.871811  0  0  -0.538857  0  1.143267  0  0  -0.562622  0  1.126679  0  0  -0.253236  -0.521629  0  1.152169  0
Br  Br84  1  0.89331803  0.67889776  0.87436009  1  0  -0.558048  0  0.948802  0  0  -0.4831  0  1.235732  0  0  -0.507409  0  1.218484  0  0  -0.208333  -0.463299  0  1.248367  0
Br  Br85  1  0.60683223  0.17883037  0.12559599  1  0  -0.558008  0  0.94888  0  0  -0.482986  0  1.235702  0  0  -0.50731  0  1.21849  0  0  -0.208288  -0.463164  0  1.248346  0
Br  Br86  1  0.10703933  0.32110601  0.12561788  1  0  -0.557975  0  0.948855  0  0  -0.483013  0  1.235787  0  0  -0.507323  0  1.218549  0  0  -0.20826  -0.463182  0  1.248411  0
Br  Br87  1  0.39305579  0.82105259  0.87442763  1  0  -0.558049  0  0.948403  0  0  -0.483147  0  1.235381  0  0  -0.507426  0  1.218086  0  0  -0.208383  -0.463334  0  1.248008  0
N  N88  1  0.98918648  0.47038492  0.66351137  1  0  -0.421752  0  3.157677  0  0  -0.347196  0  3.409305  0  0  -0.369579  0  3.427465  0  0  -0.316808  -0.331996  0  3.396542  0
N  N89  1  0.51079348  0.97039648  0.33646719  1  0  -0.421816  0  3.157352  0  0  -0.347089  0  3.408957  0  0  -0.369471  0  3.427112  0  0  -0.316704  -0.331892  0  3.396201  0
N  N90  1  0.01079202  0.52960544  0.33646996  1  0  -0.421785  0  3.15814  0  0  -0.347224  0  3.409722  0  0  -0.369614  0  3.427885  0  0  -0.316692  -0.332018  0  3.396942  0
N  N91  1  0.48927618  0.02959801  0.66352545  1  0  -0.422014  0  3.158117  0  0  -0.347285  0  3.409634  0  0  -0.369676  0  3.427793  0  0  -0.317013  -0.332088  0  3.396849  0
N  N92  1  0.11331609  0.25908802  0.71339552  1  0  -0.444056  0  3.32484  0  0  -0.387804  0  3.563397  0  0  -0.409611  0  3.57193  0  0  -0.389854  -0.37312  0  3.556541  0
N  N93  1  0.38661452  0.75908472  0.28661552  1  0  -0.444403  0  3.325169  0  0  -0.388014  0  3.563773  0  0  -0.409829  0  3.572316  0  0  -0.38991  -0.373342  0  3.556919  0
N  N94  1  0.88662598  0.74090646  0.28658739  1  0  -0.444545  0  3.325639  0  0  -0.388152  0  3.564194  0  0  -0.409956  0  3.572736  0  0  -0.389946  -0.373478  0  3.557323  0
N  N95  1  0.61337610  0.24090770  0.71341491  1  0  -0.444106  0  3.325175  0  0  -0.387822  0  3.563822  0  0  -0.409629  0  3.572363  0  0  -0.389798  -0.373148  0  3.556944  0
N  N96  1  0.21137987  0.41844765  0.82018933  1  0  -0.416309  0  3.186545  0  0  -0.338456  0  3.436195  0  0  -0.361296  0  3.455742  0  0  -0.313752  -0.32335  0  3.424326  0
N  N97  1  0.28856950  0.91842964  0.17981279  1  0  -0.415674  0  3.186425  0  0  -0.338021  0  3.436303  0  0  -0.360853  0  3.455849  0  0  -0.313509  -0.322913  0  3.424419  0
N  N98  1  0.78858746  0.58154580  0.17978842  1  0  -0.416143  0  3.186652  0  0  -0.338367  0  3.436435  0  0  -0.361166  0  3.45591  0  0  -0.313804  -0.323258  0  3.424545  0
N  N99  1  0.71141422  0.08158136  0.82023604  1  0  -0.415718  0  3.186819  0  0  -0.337967  0  3.436482  0  0  -0.3608  0  3.456024  0  0  -0.313631  -0.322846  0  3.424576  0
