# generated using pymatgen
data_KPH12C9N2O9
_symmetry_space_group_name_H-M   'P 1'
_cell_length_a   8.09240086
_cell_length_b   10.40313035
_cell_length_c   16.06801082
_cell_angle_alpha   89.99995754
_cell_angle_beta   90.00011696
_cell_angle_gamma   90.00006614
_symmetry_Int_Tables_number   1
_chemical_formula_structural   KPH12C9N2O9
_chemical_formula_sum   'K4 P4 H48 C36 N8 O36'
_cell_volume   1352.70639550
_cell_formula_units_Z   4
loop_
 _symmetry_equiv_pos_site_id
 _symmetry_equiv_pos_as_xyz
  1  'x, y, z'
loop_
 _atom_site_type_symbol
 _atom_site_label
 _atom_site_symmetry_multiplicity
 _atom_site_fract_x
 _atom_site_fract_y
 _atom_site_fract_z
 _atom_site_occupancy
 _atom_site_hle17_bader_spin_density
 _atom_site_hle17_ddec_charge
 _atom_site_hle17_ddec_spin_density
 _atom_site_hle17_ddec_sum_bond_order
 _atom_site_hle17_magmom
 _atom_site_hse06_10hf_bader_spin_density
 _atom_site_hse06_10hf_ddec_charge
 _atom_site_hse06_10hf_ddec_spin_density
 _atom_site_hse06_10hf_ddec_sum_bond_order
 _atom_site_hse06_10hf_magmom
 _atom_site_hse06_bader_spin_density
 _atom_site_hse06_ddec_charge
 _atom_site_hse06_ddec_spin_density
 _atom_site_hse06_ddec_sum_bond_order
 _atom_site_hse06_magmom
 _atom_site_pbe_bader_spin_density
 _atom_site_pbe_cm5_charge
 _atom_site_pbe_ddec_charge
 _atom_site_pbe_ddec_spin_density
 _atom_site_pbe_ddec_sum_bond_order
 _atom_site_pbe_magmom
K  K0  1  0.20940305  0.40478653  0.67185542  1  0  0.917989  0  0.464658  0  0  0.870525  0  0.644481  0  0  0.88454  0  0.622228  0  0  0.804203  0.85961  0  0.660842  0
K  K1  1  0.29059564  0.59521511  0.17185389  1  0  0.91799  0  0.464663  0  0  0.870549  0  0.64445  0  0  0.884558  0  0.622205  0  0  0.804216  0.85963  0  0.660816  0
K  K2  1  0.79059714  0.90478524  0.82814688  1  0  0.917993  0  0.464661  0  0  0.870537  0  0.64447  0  0  0.884539  0  0.622243  0  0  0.804213  0.859624  0  0.660827  0
K  K3  1  0.70940454  0.09521474  0.32814613  1  0  0.917981  0  0.464666  0  0  0.870527  0  0.644473  0  0  0.884538  0  0.622225  0  0  0.804207  0.859615  0  0.660829  0
P  P4  1  0.13207323  0.32547587  0.46020568  1  0  1.683775  0  4.875686  0  0  1.494767  0  5.410913  0  0  1.552313  0  5.357223  0  0  0.42561  1.454677  0  5.447377  0
P  P5  1  0.36792663  0.67452447  0.96020538  1  0  1.683846  0  4.875488  0  0  1.494823  0  5.410734  0  0  1.552407  0  5.356946  0  0  0.425628  1.454732  0  5.447201  0
P  P6  1  0.86792730  0.82547594  0.03979422  1  0  1.683673  0  4.875741  0  0  1.494648  0  5.410993  0  0  1.552206  0  5.357271  0  0  0.425576  1.454558  0  5.447458  0
P  P7  1  0.63207446  0.17452437  0.53979392  1  0  1.683817  0  4.875629  0  0  1.49477  0  5.410887  0  0  1.552331  0  5.357192  0  0  0.425639  1.454677  0  5.447353  0
H  H8  1  0.06598730  0.00887697  0.34407062  1  0  0.04827  0  0.919611  0  0  0.05482  0  0.986243  0  0  0.055776  0  0.984899  0  0  0.111937  0.054031  0  0.987363  0
H  H9  1  0.43401209  0.99112350  0.84407086  1  0  0.048248  0  0.919595  0  0  0.05479  0  0.986244  0  0  0.055742  0  0.98491  0  0  0.111912  0.054001  0  0.987366  0
H  H10  1  0.93401275  0.50887601  0.15592943  1  0  0.048263  0  0.919544  0  0  0.054803  0  0.9862  0  0  0.055763  0  0.984848  0  0  0.111925  0.054014  0  0.987321  0
H  H11  1  0.56598824  0.49112321  0.65592891  1  0  0.048256  0  0.919613  0  0  0.054798  0  0.986253  0  0  0.055755  0  0.984907  0  0  0.111928  0.054009  0  0.987374  0
H  H12  1  0.36699579  0.27283612  0.32808180  1  0  0.076806  0  0.91353  0  0  0.090757  0  0.976135  0  0  0.092063  0  0.974555  0  0  0.120017  0.089782  0  0.977341  0
H  H13  1  0.13300477  0.72716341  0.82808186  1  0  0.07682  0  0.91352  0  0  0.090761  0  0.976125  0  0  0.092069  0  0.974545  0  0  0.12002  0.089785  0  0.977333  0
H  H14  1  0.63300466  0.77283487  0.17191750  1  0  0.076832  0  0.913523  0  0  0.090779  0  0.976124  0  0  0.092085  0  0.974545  0  0  0.120022  0.089804  0  0.977331  0
H  H15  1  0.86699639  0.22716528  0.67191804  1  0  0.07681  0  0.913537  0  0  0.090753  0  0.976145  0  0  0.092061  0  0.974562  0  0  0.120017  0.089778  0  0.977351  0
H  H16  1  0.16655210  0.28569373  0.28246933  1  0  0.075109  0  0.927252  0  0  0.085504  0  0.997477  0  0  0.086825  0  0.995673  0  0  0.116332  0.084478  0  0.998871  0
H  H17  1  0.33344704  0.71430681  0.78246960  1  0  0.075011  0  0.927354  0  0  0.085443  0  0.997533  0  0  0.086762  0  0.99573  0  0  0.116304  0.084416  0  0.998928  0
H  H18  1  0.83344590  0.78569261  0.21753121  1  0  0.075028  0  0.927325  0  0  0.085464  0  0.997507  0  0  0.086783  0  0.995703  0  0  0.116307  0.084438  0  0.9989  0
H  H19  1  0.66655411  0.21430654  0.71753093  1  0  0.075019  0  0.92734  0  0  0.085453  0  0.997518  0  0  0.086773  0  0.995713  0  0  0.116304  0.084427  0  0.998912  0
H  H20  1  0.30908432  0.11445787  0.21466640  1  0  0.062796  0  0.931868  0  0  0.069159  0  0.999305  0  0  0.070772  0  0.997281  0  0  0.113836  0.067991  0  1.000958  0
H  H21  1  0.19091455  0.88554371  0.71466644  1  0  0.062875  0  0.931833  0  0  0.069228  0  0.999303  0  0  0.07084  0  0.997285  0  0  0.113858  0.068065  0  1.000943  0
H  H22  1  0.69091342  0.61445558  0.28533298  1  0  0.062755  0  0.931915  0  0  0.069163  0  0.999356  0  0  0.070775  0  0.997336  0  0  0.113826  0.067999  0  1.000997  0
H  H23  1  0.80908562  0.38554348  0.78533338  1  0  0.06283  0  0.93188  0  0  0.069215  0  0.999318  0  0  0.070826  0  0.997301  0  0  0.113855  0.068051  0  1.00096  0
H  H24  1  0.44686734  0.83366065  0.28393935  1  0  0.059417  0  0.917124  0  0  0.063856  0  0.984183  0  0  0.065552  0  0.981219  0  0  0.1348  0.062542  0  0.986371  0
H  H25  1  0.05313304  0.16634085  0.78393897  1  0  0.059407  0  0.917086  0  0  0.063851  0  0.984149  0  0  0.065548  0  0.981186  0  0  0.134791  0.062536  0  0.986341  0
H  H26  1  0.55313320  0.33365931  0.21606055  1  0  0.059405  0  0.917104  0  0  0.063845  0  0.984158  0  0  0.065541  0  0.981194  0  0  0.134794  0.062531  0  0.986348  0
H  H27  1  0.94686804  0.66634080  0.71606034  1  0  0.059399  0  0.917115  0  0  0.063836  0  0.984171  0  0  0.065531  0  0.981208  0  0  0.134794  0.062523  0  0.986359  0
H  H28  1  0.10622057  0.79944387  0.28326890  1  0  0.05534  0  0.933643  0  0  0.057553  0  1.006679  0  0  0.059698  0  1.004508  0  0  0.107937  0.055894  0  1.0084  0
H  H29  1  0.39377857  0.20055571  0.78326948  1  0  0.055377  0  0.933601  0  0  0.057582  0  1.006651  0  0  0.059727  0  1.004479  0  0  0.10794  0.055921  0  1.008371  0
H  H30  1  0.89377991  0.29944380  0.21673101  1  0  0.05536  0  0.933633  0  0  0.057578  0  1.00666  0  0  0.059723  0  1.004491  0  0  0.107945  0.05592  0  1.008383  0
H  H31  1  0.60622132  0.70055534  0.71673105  1  0  0.055363  0  0.933645  0  0  0.057579  0  1.006674  0  0  0.059725  0  1.004504  0  0  0.107951  0.055921  0  1.008397  0
H  H32  1  0.28027745  0.00544246  0.45523758  1  0  0.116945  0  0.943421  0  0  0.121702  0  1.008696  0  0  0.126047  0  1.003111  0  0  0.13563  0.118511  0  1.012649  0
H  H33  1  0.21972362  0.99455885  0.95523822  1  0  0.116919  0  0.943491  0  0  0.121728  0  1.008703  0  0  0.126077  0  1.003118  0  0  0.135626  0.118537  0  1.012657  0
H  H34  1  0.71972260  0.50544143  0.04476248  1  0  0.116917  0  0.943484  0  0  0.121736  0  1.008679  0  0  0.126086  0  1.003099  0  0  0.135621  0.118543  0  1.012638  0
H  H35  1  0.78027794  0.49455887  0.54476155  1  0  0.116941  0  0.943427  0  0  0.121697  0  1.008706  0  0  0.126042  0  1.003118  0  0  0.135636  0.118507  0  1.012657  0
H  H36  1  0.22465709  0.90902903  0.59387864  1  0  0.148038  0  0.957799  0  0  0.155186  0  1.018377  0  0  0.159961  0  1.016532  0  0  0.11423  0.151747  0  1.019986  0
H  H37  1  0.27534252  0.09097173  0.09387920  1  0  0.14806  0  0.957787  0  0  0.155185  0  1.018402  0  0  0.159961  0  1.016557  0  0  0.11422  0.151747  0  1.020011  0
H  H38  1  0.77534312  0.40902864  0.90612180  1  0  0.148071  0  0.957761  0  0  0.155197  0  1.018369  0  0  0.159973  0  1.016523  0  0  0.114241  0.151759  0  1.019979  0
H  H39  1  0.72465642  0.59097029  0.40612082  1  0  0.148063  0  0.957763  0  0  0.155184  0  1.018376  0  0  0.159959  0  1.016531  0  0  0.114227  0.151745  0  1.019986  0
H  H40  1  0.94240632  0.20181150  0.52157962  1  0  0.449049  0  0.852065  0  0  0.413857  0  0.92106  0  0  0.425671  0  0.904179  0  0  0.312289  0.405592  0  0.93283  0
H  H41  1  0.55759289  0.79818883  0.02157962  1  0  0.449069  0  0.852035  0  0  0.413886  0  0.921013  0  0  0.425699  0  0.904136  0  0  0.312305  0.405622  0  0.932783  0
H  H42  1  0.05759357  0.70181130  0.97842029  1  0  0.44905  0  0.852062  0  0  0.413863  0  0.921045  0  0  0.425676  0  0.904168  0  0  0.312302  0.405598  0  0.932815  0
H  H43  1  0.44240636  0.29818902  0.47842092  1  0  0.449052  0  0.852059  0  0  0.41386  0  0.921054  0  0  0.425673  0  0.904174  0  0  0.312294  0.405594  0  0.932824  0
H  H44  1  0.14177468  0.87598151  0.13959524  1  0  0.383056  0  0.918592  0  0  0.359042  0  0.986657  0  0  0.369147  0  0.97388  0  0  0.296201  0.351889  0  0.994613  0
H  H45  1  0.35822388  0.12401824  0.63959582  1  0  0.38307  0  0.918591  0  0  0.359059  0  0.986651  0  0  0.369164  0  0.973862  0  0  0.296204  0.351905  0  0.994607  0
H  H46  1  0.85822592  0.37598124  0.36040464  1  0  0.383073  0  0.918534  0  0  0.359067  0  0.986588  0  0  0.369172  0  0.973832  0  0  0.296214  0.351915  0  0.994542  0
H  H47  1  0.64177590  0.62401870  0.86040413  1  0  0.383085  0  0.918545  0  0  0.359072  0  0.986606  0  0  0.36918  0  0.97383  0  0  0.296209  0.351919  0  0.994564  0
H  H48  1  0.31541581  0.54411397  0.48311335  1  0  0.345534  0  0.905102  0  0  0.320718  0  0.972493  0  0  0.330817  0  0.963869  0  0  0.31314  0.313653  0  0.9785  0
H  H49  1  0.18458290  0.45588730  0.98311297  1  0  0.345514  0  0.905116  0  0  0.320697  0  0.972506  0  0  0.330796  0  0.963885  0  0  0.313128  0.313632  0  0.978514  0
H  H50  1  0.68458430  0.04411298  0.01688731  1  0  0.345517  0  0.905119  0  0  0.320699  0  0.972515  0  0  0.330798  0  0.963891  0  0  0.313127  0.313635  0  0.978522  0
H  H51  1  0.81541366  0.95588735  0.51688620  1  0  0.345517  0  0.905111  0  0  0.320698  0  0.972506  0  0  0.330798  0  0.963882  0  0  0.313131  0.313633  0  0.978512  0
H  H52  1  0.97712941  0.00974933  0.17375443  1  0  0.401066  0  0.892779  0  0  0.374677  0  0.964825  0  0  0.38475  0  0.95014  0  0  0.300763  0.367597  0  0.974462  0
H  H53  1  0.52287165  0.99025083  0.67375549  1  0  0.401067  0  0.892825  0  0  0.374674  0  0.964843  0  0  0.384748  0  0.950158  0  0  0.300754  0.367593  0  0.974515  0
H  H54  1  0.02287064  0.50974928  0.32624500  1  0  0.401047  0  0.892838  0  0  0.374656  0  0.964864  0  0  0.384728  0  0.95018  0  0  0.300752  0.367576  0  0.974524  0
H  H55  1  0.47712867  0.49024929  0.82624490  1  0  0.401045  0  0.892855  0  0  0.37465  0  0.964877  0  0  0.384725  0  0.95019  0  0  0.300752  0.36757  0  0.974546  0
C  C56  1  0.11157686  0.01105137  0.27931590  1  0  0.139934  0  3.673624  0  0  0.114779  0  3.930022  0  0  0.119944  0  3.939231  0  0  -0.013139  0.111253  0  3.923677  0
C  C57  1  0.38842351  0.98894918  0.77931671  1  0  0.13994  0  3.673598  0  0  0.11481  0  3.929995  0  0  0.119974  0  3.939202  0  0  -0.013142  0.111284  0  3.923653  0
C  C58  1  0.88842320  0.51105126  0.22068291  1  0  0.139921  0  3.673454  0  0  0.114804  0  3.929877  0  0  0.11997  0  3.939085  0  0  -0.013166  0.111278  0  3.923536  0
C  C59  1  0.61157682  0.48894885  0.72068306  1  0  0.139946  0  3.673486  0  0  0.114821  0  3.929893  0  0  0.119986  0  3.939102  0  0  -0.013147  0.111294  0  3.923551  0
C  C60  1  0.24671128  0.22454869  0.32112694  1  0  0.084582  0  3.609155  0  0  0.014399  0  3.886588  0  0  0.022381  0  3.888871  0  0  -0.052595  0.008946  0  3.885197  0
C  C61  1  0.25328925  0.77545181  0.82112710  1  0  0.084626  0  3.609262  0  0  0.014471  0  3.886661  0  0  0.022452  0  3.888953  0  0  -0.052567  0.009023  0  3.885259  0
C  C62  1  0.75328785  0.72454754  0.17887301  1  0  0.084621  0  3.609058  0  0  0.01446  0  3.886508  0  0  0.022442  0  3.888795  0  0  -0.052566  0.009007  0  3.885114  0
C  C63  1  0.74671199  0.27545261  0.67887340  1  0  0.084602  0  3.609294  0  0  0.01443  0  3.886703  0  0  0.022422  0  3.888997  0  0  -0.052605  0.00898  0  3.8853  0
C  C64  1  0.26585746  0.09668624  0.27852059  1  0  0.119939  0  3.58472  0  0  0.089961  0  3.846327  0  0  0.095155  0  3.853884  0  0  -0.003872  0.0862  0  3.841535  0
C  C65  1  0.23414290  0.90331431  0.77852066  1  0  0.119885  0  3.584754  0  0  0.089841  0  3.846474  0  0  0.095036  0  3.854029  0  0  -0.003883  0.086082  0  3.841674  0
C  C66  1  0.73414272  0.59668407  0.22147942  1  0  0.120025  0  3.584615  0  0  0.089894  0  3.846431  0  0  0.095088  0  3.853989  0  0  -0.00384  0.086133  0  3.841631  0
C  C67  1  0.76585853  0.40331411  0.72147915  1  0  0.119972  0  3.584697  0  0  0.089881  0  3.846465  0  0  0.095075  0  3.854019  0  0  -0.003865  0.086126  0  3.841663  0
C  C68  1  0.34044171  0.69602984  0.40215122  1  0  0.694295  0  3.838035  0  0  0.62861  0  4.136036  0  0  0.662945  0  4.133032  0  0  0.343992  0.605617  0  4.137363  0
C  C69  1  0.15955915  0.30397152  0.90215088  1  0  0.694314  0  3.838052  0  0  0.628613  0  4.136077  0  0  0.66295  0  4.133072  0  0  0.343972  0.605621  0  4.137406  0
C  C70  1  0.65955862  0.19602778  0.09784875  1  0  0.694458  0  3.837873  0  0  0.628738  0  4.135925  0  0  0.663072  0  4.132919  0  0  0.344008  0.605745  0  4.137255  0
C  C71  1  0.84044090  0.80397151  0.59784836  1  0  0.694301  0  3.838071  0  0  0.62858  0  4.136126  0  0  0.662916  0  4.133122  0  0  0.343957  0.605588  0  4.137453  0
C  C72  1  0.26930615  0.71141836  0.55180443  1  0  0.613267  0  3.859512  0  0  0.571906  0  4.146118  0  0  0.603795  0  4.143896  0  0  0.225813  0.550644  0  4.146892  0
C  C73  1  0.23069576  0.28858244  0.05180484  1  0  0.613447  0  3.859256  0  0  0.571888  0  4.146145  0  0  0.603778  0  4.143921  0  0  0.225764  0.550624  0  4.146923  0
C  C74  1  0.73069623  0.21141788  0.94819548  1  0  0.613363  0  3.859364  0  0  0.571841  0  4.146199  0  0  0.603731  0  4.143975  0  0  0.225756  0.550578  0  4.146976  0
C  C75  1  0.76930347  0.78858196  0.44819508  1  0  0.613394  0  3.859302  0  0  0.571875  0  4.146119  0  0  0.603766  0  4.143897  0  0  0.225801  0.550612  0  4.146895  0
C  C76  1  0.34595672  0.88648988  0.31402639  1  0  0.26439  0  3.5792  0  0  0.215172  0  3.844287  0  0  0.227082  0  3.849589  0  0  0.110199  0.207066  0  3.840618  0
C  C77  1  0.15404378  0.11351063  0.81402676  1  0  0.264468  0  3.579009  0  0  0.215245  0  3.844111  0  0  0.227155  0  3.849412  0  0  0.110243  0.207137  0  3.840442  0
C  C78  1  0.65404266  0.38648866  0.18597286  1  0  0.264473  0  3.579069  0  0  0.215278  0  3.844123  0  0  0.227189  0  3.849425  0  0  0.110259  0.207169  0  3.840452  0
C  C79  1  0.84595722  0.61351052  0.68597319  1  0  0.264491  0  3.579054  0  0  0.215288  0  3.844127  0  0  0.2272  0  3.849429  0  0  0.110257  0.207182  0  3.84046  0
C  C80  1  0.18677888  0.87833460  0.26174915  1  0  0.091314  0  3.664087  0  0  0.05973  0  3.929545  0  0  0.063388  0  3.938136  0  0  -0.017572  0.057225  0  3.923717  0
C  C81  1  0.31322141  0.12166597  0.76174968  1  0  0.091274  0  3.664055  0  0  0.059703  0  3.929494  0  0  0.063362  0  3.938085  0  0  -0.017586  0.0572  0  3.923667  0
C  C82  1  0.81322049  0.37833347  0.23825135  1  0  0.091216  0  3.663991  0  0  0.059632  0  3.929439  0  0  0.063288  0  3.938028  0  0  -0.017597  0.057121  0  3.923623  0
C  C83  1  0.68677960  0.62166661  0.73825089  1  0  0.091228  0  3.663974  0  0  0.059643  0  3.929429  0  0  0.0633  0  3.938018  0  0  -0.017609  0.057133  0  3.923612  0
C  C84  1  0.28538046  0.90213505  0.46578254  1  0  0.169865  0  3.671696  0  0  0.120223  0  3.940101  0  0  0.136626  0  3.95173  0  0  0.055291  0.109506  0  3.932147  0
C  C85  1  0.21462190  0.09786528  0.96578236  1  0  0.169922  0  3.671689  0  0  0.120254  0  3.940069  0  0  0.136652  0  3.951701  0  0  0.055331  0.109536  0  3.932118  0
C  C86  1  0.71462018  0.40213503  0.03421733  1  0  0.16988  0  3.671757  0  0  0.120213  0  3.94012  0  0  0.136605  0  3.95176  0  0  0.055293  0.109495  0  3.932167  0
C  C87  1  0.78537908  0.59786432  0.53421698  1  0  0.169906  0  3.671641  0  0  0.120264  0  3.940038  0  0  0.13667  0  3.951662  0  0  0.055309  0.109546  0  3.932085  0
C  C88  1  0.25637311  0.84832523  0.54139488  1  0  -0.316701  0  3.694958  0  0  -0.340163  0  3.969183  0  0  -0.357373  0  3.98511  0  0  -0.118025  -0.329081  0  3.958591  0
C  C89  1  0.24362876  0.15167655  0.04139538  1  0  -0.316817  0  3.69482  0  0  -0.34022  0  3.969141  0  0  -0.357431  0  3.985069  0  0  -0.118036  -0.329137  0  3.958551  0
C  C90  1  0.74362824  0.34832475  0.95860496  1  0  -0.316768  0  3.694833  0  0  -0.340183  0  3.969144  0  0  -0.357392  0  3.985074  0  0  -0.118057  -0.3291  0  3.958552  0
C  C91  1  0.75637151  0.65167508  0.45860460  1  0  -0.316816  0  3.694864  0  0  -0.34021  0  3.969143  0  0  -0.35742  0  3.985069  0  0  -0.118058  -0.329127  0  3.958552  0
N  N92  1  0.32544625  0.82966750  0.39766027  1  0  -0.27074  0  3.417813  0  0  -0.187962  0  3.650229  0  0  -0.211938  0  3.669543  0  0  -0.24462  -0.172032  0  3.636802  0
N  N93  1  0.17455583  0.17033195  0.89766063  1  0  -0.270778  0  3.417772  0  0  -0.18799  0  3.650217  0  0  -0.211967  0  3.669531  0  0  -0.244631  -0.17206  0  3.63679  0
N  N94  1  0.67455428  0.32966736  0.10233963  1  0  -0.270831  0  3.417814  0  0  -0.188049  0  3.650258  0  0  -0.212026  0  3.669574  0  0  -0.244609  -0.172119  0  3.636833  0
N  N95  1  0.82544402  0.67033191  0.60233929  1  0  -0.270775  0  3.417746  0  0  -0.187987  0  3.650183  0  0  -0.211965  0  3.669497  0  0  -0.244619  -0.172056  0  3.636755  0
N  N96  1  0.31384774  0.64471254  0.47969909  1  0  -0.530602  0  3.235546  0  0  -0.464602  0  3.467828  0  0  -0.490959  0  3.470775  0  0  -0.380594  -0.447001  0  3.465534  0
N  N97  1  0.18615343  0.35528874  0.97969875  1  0  -0.53063  0  3.235434  0  0  -0.46455  0  3.467776  0  0  -0.490912  0  3.47073  0  0  -0.380551  -0.446949  0  3.465482  0
N  N98  1  0.68615375  0.14471155  0.02030152  1  0  -0.530712  0  3.235442  0  0  -0.464645  0  3.467788  0  0  -0.491003  0  3.470737  0  0  -0.380601  -0.447044  0  3.465496  0
N  N99  1  0.81384546  0.85528782  0.52030108  1  0  -0.530579  0  3.235498  0  0  -0.464503  0  3.467829  0  0  -0.490863  0  3.470782  0  0  -0.38054  -0.446902  0  3.465534  0
O  O100  1  0.17408280  0.20334826  0.40185501  1  0  -0.541582  0  2.257798  0  0  -0.455156  0  2.514286  0  0  -0.475357  0  2.503106  0  0  -0.218306  -0.440992  0  2.521629  0
O  O101  1  0.32591682  0.79665215  0.90185523  1  0  -0.541558  0  2.257805  0  0  -0.455137  0  2.514292  0  0  -0.475347  0  2.503112  0  0  -0.218297  -0.440973  0  2.521634  0
O  O102  1  0.82591754  0.70334726  0.09814495  1  0  -0.541558  0  2.257731  0  0  -0.455137  0  2.514224  0  0  -0.475342  0  2.503045  0  0  -0.218311  -0.440974  0  2.521571  0
O  O103  1  0.67408445  0.29665202  0.59814525  1  0  -0.541592  0  2.257852  0  0  -0.455114  0  2.514292  0  0  -0.475348  0  2.503133  0  0  -0.218291  -0.440954  0  2.521645  0
O  O104  1  0.38760134  0.01860977  0.32183530  1  0  -0.371345  0  2.192175  0  0  -0.314622  0  2.437991  0  0  -0.330018  0  2.437081  0  0  -0.269386  -0.303666  0  2.438358  0
O  O105  1  0.11239796  0.98139169  0.82183522  1  0  -0.371376  0  2.192114  0  0  -0.314675  0  2.437995  0  0  -0.33007  0  2.437083  0  0  -0.269422  -0.303714  0  2.438358  0
O  O106  1  0.61239750  0.51860657  0.17816412  1  0  -0.37136  0  2.192095  0  0  -0.314643  0  2.437991  0  0  -0.33004  0  2.437083  0  0  -0.269428  -0.303675  0  2.438351  0
O  O107  1  0.88760111  0.48139165  0.67816456  1  0  -0.371377  0  2.192145  0  0  -0.314652  0  2.438015  0  0  -0.330048  0  2.437103  0  0  -0.269409  -0.303699  0  2.438382  0
O  O108  1  0.23779570  0.86073900  0.17792673  1  0  -0.585952  0  2.051488  0  0  -0.542741  0  2.278325  0  0  -0.558403  0  2.265824  0  0  -0.458292  -0.531485  0  2.285836  0
O  O109  1  0.26220426  0.13926166  0.67792658  1  0  -0.585986  0  2.051502  0  0  -0.542774  0  2.278332  0  0  -0.558435  0  2.26582  0  0  -0.458297  -0.531518  0  2.285843  0
O  O110  1  0.76220488  0.36073869  0.32207315  1  0  -0.58595  0  2.051467  0  0  -0.542743  0  2.278302  0  0  -0.558401  0  2.265821  0  0  -0.45832  -0.531487  0  2.285815  0
O  O111  1  0.73779678  0.63926129  0.82207336  1  0  -0.585966  0  2.051456  0  0  -0.542753  0  2.27829  0  0  -0.558412  0  2.265791  0  0  -0.458303  -0.531497  0  2.285805  0
O  O112  1  0.04373737  0.25865263  0.53559893  1  0  -0.794517  0  2.025321  0  0  -0.728075  0  2.266228  0  0  -0.75021  0  2.238883  0  0  -0.408932  -0.712438  0  2.284716  0
O  O113  1  0.45626324  0.74134723  0.03559936  1  0  -0.794575  0  2.025267  0  0  -0.728146  0  2.26618  0  0  -0.750284  0  2.238821  0  0  -0.408968  -0.712507  0  2.284669  0
O  O114  1  0.95626384  0.75865230  0.96440095  1  0  -0.794514  0  2.025354  0  0  -0.728073  0  2.266265  0  0  -0.750209  0  2.238918  0  0  -0.408956  -0.712435  0  2.284752  0
O  O115  1  0.54373716  0.24134753  0.46440058  1  0  -0.794527  0  2.025301  0  0  -0.728084  0  2.266218  0  0  -0.750218  0  2.238869  0  0  -0.408941  -0.712445  0  2.284706  0
O  O116  1  0.37446728  0.63042945  0.34004338  1  0  -0.605806  0  1.885661  0  0  -0.571832  0  2.115766  0  0  -0.591197  0  2.105882  0  0  -0.350438  -0.55845  0  2.121955  0
O  O117  1  0.12553332  0.36957103  0.84004360  1  0  -0.60582  0  1.885674  0  0  -0.571835  0  2.115788  0  0  -0.591202  0  2.105904  0  0  -0.350435  -0.558455  0  2.121981  0
O  O118  1  0.62553295  0.13042920  0.15995600  1  0  -0.605829  0  1.885625  0  0  -0.571844  0  2.115752  0  0  -0.591209  0  2.105868  0  0  -0.350421  -0.558461  0  2.12194  0
O  O119  1  0.87446558  0.86957097  0.65995623  1  0  -0.605818  0  1.885655  0  0  -0.571828  0  2.115777  0  0  -0.591192  0  2.105892  0  0  -0.350423  -0.558446  0  2.121962  0
O  O120  1  0.29302434  0.38236553  0.49380916  1  0  -0.882397  0  1.938587  0  0  -0.803167  0  2.178203  0  0  -0.828535  0  2.155416  0  0  -0.394774  -0.785175  0  2.193353  0
O  O121  1  0.20697442  0.61763381  0.99380872  1  0  -0.882446  0  1.938563  0  0  -0.803213  0  2.17818  0  0  -0.828586  0  2.155379  0  0  -0.39477  -0.78522  0  2.19333  0
O  O122  1  0.70697504  0.88236550  0.00619071  1  0  -0.882371  0  1.938578  0  0  -0.803139  0  2.178197  0  0  -0.828508  0  2.155408  0  0  -0.394766  -0.78515  0  2.193349  0
O  O123  1  0.79302411  0.11763485  0.50619123  1  0  -0.882411  0  1.938626  0  0  -0.803177  0  2.178253  0  0  -0.828543  0  2.15546  0  0  -0.394778  -0.785186  0  2.193404  0
O  O124  1  0.98016080  0.05424167  0.22878612  1  0  -0.600755  0  2.056479  0  0  -0.557865  0  2.283156  0  0  -0.574172  0  2.269533  0  0  -0.46583  -0.54604  0  2.291838  0
O  O125  1  0.51983925  0.94575746  0.72878720  1  0  -0.600747  0  2.056503  0  0  -0.557861  0  2.28316  0  0  -0.574166  0  2.269536  0  0  -0.465808  -0.546036  0  2.291873  0
O  O126  1  0.01983933  0.55424072  0.27121329  1  0  -0.600728  0  2.056501  0  0  -0.557843  0  2.283165  0  0  -0.574148  0  2.269542  0  0  -0.465809  -0.546017  0  2.291868  0
O  O127  1  0.48016100  0.44575695  0.77121321  1  0  -0.600762  0  2.05653  0  0  -0.557864  0  2.283175  0  0  -0.574172  0  2.269549  0  0  -0.465832  -0.546037  0  2.291885  0
O  O128  1  0.24475852  0.65113165  0.61801922  1  0  -0.614484  0  1.869294  0  0  -0.577678  0  2.093872  0  0  -0.597567  0  2.084466  0  0  -0.382563  -0.563912  0  2.099889  0
O  O129  1  0.25524119  0.34887004  0.11801963  1  0  -0.614525  0  1.869282  0  0  -0.577659  0  2.093951  0  0  -0.597547  0  2.084546  0  0  -0.382529  -0.563888  0  2.099968  0
O  O130  1  0.75524377  0.15113031  0.88198134  1  0  -0.614475  0  1.869358  0  0  -0.577623  0  2.094018  0  0  -0.597509  0  2.084612  0  0  -0.382507  -0.563856  0  2.100036  0
O  O131  1  0.74475813  0.84886961  0.38197963  1  0  -0.61452  0  1.869269  0  0  -0.577681  0  2.093936  0  0  -0.597568  0  2.084529  0  0  -0.382553  -0.563913  0  2.099953  0
O  O132  1  0.02274471  0.41884774  0.41344872  1  0  -0.885895  0  1.960173  0  0  -0.803032  0  2.199312  0  0  -0.829517  0  2.178699  0  0  -0.363274  -0.784178  0  2.212651  0
O  O133  1  0.47725373  0.58115361  0.91344858  1  0  -0.885884  0  1.960088  0  0  -0.803019  0  2.199254  0  0  -0.829508  0  2.178606  0  0  -0.363281  -0.784165  0  2.212594  0
O  O134  1  0.97725472  0.91884690  0.08655175  1  0  -0.885844  0  1.960214  0  0  -0.802977  0  2.199369  0  0  -0.829454  0  2.178729  0  0  -0.363252  -0.784123  0  2.212705  0
O  O135  1  0.52274599  0.08115336  0.58655201  1  0  -0.885886  0  1.960099  0  0  -0.803027  0  2.199268  0  0  -0.829505  0  2.178632  0  0  -0.363295  -0.784173  0  2.212609  0
