# generated using pymatgen
data_ZnH21C33N3O4
_symmetry_space_group_name_H-M   'P 1'
_cell_length_a   13.81535603
_cell_length_b   16.61016059
_cell_length_c   17.02322591
_cell_angle_alpha   90.00144040
_cell_angle_beta   90.35519509
_cell_angle_gamma   89.60492071
_symmetry_Int_Tables_number   1
_chemical_formula_structural   ZnH21C33N3O4
_chemical_formula_sum   'Zn2 H42 C66 N6 O8'
_cell_volume   3906.24163718
_cell_formula_units_Z   2
loop_
 _symmetry_equiv_pos_site_id
 _symmetry_equiv_pos_as_xyz
  1  'x, y, z'
loop_
 _atom_site_type_symbol
 _atom_site_label
 _atom_site_symmetry_multiplicity
 _atom_site_fract_x
 _atom_site_fract_y
 _atom_site_fract_z
 _atom_site_occupancy
 _atom_site_pbe_bader_charge
 _atom_site_pbe_bader_spin_density
 _atom_site_pbe_cm5_charge
 _atom_site_pbe_ddec_charge
 _atom_site_pbe_ddec_spin_density
 _atom_site_pbe_ddec_sum_bond_order
 _atom_site_pbe_magmom
Zn  Zn0  1  0.60071983  0.99953587  0.50037823  1  1.258748  0  0.663741  0.814843  0  2.442406  0
Zn  Zn1  1  0.39927861  0.00041796  0.49964341  1  1.275945  0  0.66367  0.814668  0  2.442095  0
H  H2  1  0.74930411  0.12322274  0.49924507  1  0.125489  0  0.124357  0.099629  0  1.012001  0
H  H3  1  0.75164151  0.87638623  0.50106491  1  0.121759  0  0.124192  0.099219  0  1.011403  0
H  H4  1  0.25069257  0.87676601  0.50078537  1  0.125598  0  0.124406  0.099589  0  1.012242  0
H  H5  1  0.24837548  0.12360193  0.49889339  1  0.121543  0  0.124226  0.099279  0  1.011427  0
H  H6  1  0.34326467  0.28430265  0.21231201  1  0.060363  0  0.1017  0.103741  0  0.99408  0
H  H7  1  0.65567595  0.71481371  0.21507440  1  0.036966  0  0.101731  0.10419  0  0.994238  0
H  H8  1  0.34550081  0.71786524  0.78598954  1  0.07738  0  0.101868  0.104836  0  0.993478  0
H  H9  1  0.65557233  0.28253712  0.78727010  1  0.077103  0  0.101826  0.1043  0  0.99332  0
H  H10  1  0.65673159  0.71565239  0.78770551  1  0.059445  0  0.10177  0.103873  0  0.994222  0
H  H11  1  0.34433486  0.28513230  0.78494966  1  0.037657  0  0.101528  0.103856  0  0.994378  0
H  H12  1  0.65450566  0.28208077  0.21403273  1  0.077899  0  0.101834  0.104811  0  0.993127  0
H  H13  1  0.34444048  0.71742876  0.21273869  1  0.077838  0  0.101855  0.104388  0  0.993355  0
H  H14  1  0.34346869  0.17994383  0.31885125  1  0.089989  0  0.101952  0.105514  0  1.004842  0
H  H15  1  0.65519489  0.81896821  0.32174650  1  0.101713  0  0.101859  0.105872  0  1.004688  0
H  H16  1  0.34629428  0.82229732  0.67952676  1  0.057129  0  0.101816  0.105638  0  1.004598  0
H  H17  1  0.65503305  0.17852489  0.68039749  1  0.081032  0  0.102236  0.1066  0  1.003977  0
H  H18  1  0.65653039  0.82001904  0.68117686  1  0.090163  0  0.101927  0.105396  0  1.004872  0
H  H19  1  0.34481664  0.18097780  0.67828167  1  0.101312  0  0.101876  0.105935  0  1.004543  0
H  H20  1  0.65369984  0.17765410  0.32049192  1  0.056947  0  0.101799  0.105517  0  1.004766  0
H  H21  1  0.34497541  0.82144159  0.31961246  1  0.064929  0  0.102233  0.106404  0  1.003994  0
H  H22  1  0.49903108  0.41807587  0.30009963  1  0.090841  0  0.101615  0.120569  0  1.016839  0
H  H23  1  0.49963120  0.58099650  0.30036824  1  0.094092  0  0.101592  0.120411  0  1.016836  0
H  H24  1  0.50098685  0.58188339  0.69992917  1  0.091718  0  0.101584  0.120674  0  1.016957  0
H  H25  1  0.50040410  0.41896397  0.69965360  1  0.093918  0  0.101495  0.120365  0  1.016965  0
H  H26  1  0.49900147  0.19167067  0.07900839  1  0.072853  0  0.110624  0.131502  0  1.000431  0
H  H27  1  0.50055584  0.80799883  0.07992225  1  0.060374  0  0.110679  0.131648  0  1.000404  0
H  H28  1  0.50101294  0.80827835  0.92100100  1  0.073733  0  0.110516  0.13128  0  1.000274  0
H  H29  1  0.49943535  0.19195741  0.92009524  1  0.059935  0  0.110674  0.131592  0  1.000271  0
H  H30  1  0.49977700  0.43433596  0.99993445  1  0.494221  0  0.309869  0.262756  0  1.013209  0
H  H31  1  0.50022725  0.56561607  0.00008840  1  0.493055  0  0.309924  0.26275  0  1.013152  0
H  H32  1  0.08027307  0.26494528  0.44624667  1  0.053272  0  0.099897  0.134876  0  0.9867  0
H  H33  1  0.17970706  0.22316607  0.49848821  1  0.023687  0  0.099507  0.135721  0  1.011532  0
H  H34  1  0.08079788  0.26577639  0.54973347  1  0.044771  0  0.09993  0.135141  0  0.986355  0
H  H35  1  0.91463499  0.26551065  0.54992845  1  0.045474  0  0.100057  0.135148  0  0.986299  0
H  H36  1  0.81601513  0.22287328  0.49825424  1  0.030412  0  0.099604  0.135591  0  1.01222  0
H  H37  1  0.91410493  0.26494625  0.44642402  1  0.050803  0  0.09995  0.135072  0  0.986522  0
H  H38  1  0.08618886  0.73516363  0.55368382  1  0.052193  0  0.099961  0.135049  0  0.9864  0
H  H39  1  0.18399047  0.77711187  0.50140147  1  0.028884  0  0.09961  0.135788  0  1.011884  0
H  H40  1  0.08508685  0.73436600  0.45018157  1  0.04606  0  0.100142  0.135168  0  0.986151  0
H  H41  1  0.91892854  0.73433568  0.45010167  1  0.043933  0  0.099901  0.135071  0  0.986379  0
H  H42  1  0.82030391  0.77682810  0.50179902  1  0.023841  0  0.09963  0.135844  0  1.011621  0
H  H43  1  0.92001651  0.73492077  0.55359032  1  0.051859  0  0.099874  0.134862  0  0.987201  0
C  C44  1  0.49990825  0.11216859  0.60874889  1  1.553443  0  0.212312  0.58988  0  4.17947  0
C  C45  1  0.49849139  0.11116226  0.39018977  1  1.559057  0  0.212441  0.590714  0  4.176736  0
C  C46  1  0.50008588  0.88778103  0.39127331  1  1.553679  0  0.212505  0.589842  0  4.178872  0
C  C47  1  0.50148680  0.88878856  0.60983353  1  1.559307  0  0.212467  0.590663  0  4.177179  0
C  C48  1  0.79571453  0.07006147  0.49961828  1  0.427667  0  0.056375  0.048912  0  3.885457  0
C  C49  1  0.89704298  0.07465049  0.49951495  1  0.043006  0  0.001257  -0.012713  0  4.006292  0
C  C50  1  0.94847990  0.15002098  0.49888267  1  0.032709  0  -0.001257  0.069693  0  3.917362  0
C  C51  1  0.79703703  0.92960513  0.50059493  1  0.458176  0  0.056338  0.049454  0  3.88373  0
C  C52  1  0.89845435  0.92516453  0.50054675  1  0.042753  0  0.001272  -0.012125  0  4.004619  0
C  C53  1  0.95136013  0.84988271  0.50111517  1  -0.038767  0  -0.001243  0.070103  0  3.917999  0
C  C54  1  0.20428721  0.92992909  0.50038693  1  0.427953  0  0.05632  0.048872  0  3.886103  0
C  C55  1  0.10296310  0.92534188  0.50047208  1  0.042709  0  0.001308  -0.012716  0  4.006483  0
C  C56  1  0.05152620  0.84997019  0.50109143  1  0.032942  0  -0.001493  0.069289  0  3.917692  0
C  C57  1  0.20297124  0.07038603  0.49938388  1  0.456602  0  0.056326  0.049756  0  3.884403  0
C  C58  1  0.10155246  0.07482664  0.49943558  1  0.043243  0  0.001172  -0.013357  0  4.006347  0
C  C59  1  0.04864668  0.15010845  0.49886598  1  -0.039212  0  -0.001433  0.070126  0  3.918402  0
C  C60  1  0.94894384  0.99994942  0.50000215  1  -0.076223  0  0.00817  0.012726  0  3.981916  0
C  C61  1  0.05106294  0.00004475  0.49998371  1  0.08381  0  0.008273  0.013384  0  3.982078  0
C  C62  1  0.41130246  0.26080261  0.23613170  1  -0.044732  0  -0.092696  -0.143131  0  3.992142  0
C  C63  1  0.58756147  0.73837954  0.23801395  1  0.004419  0  -0.093103  -0.144433  0  3.994977  0
C  C64  1  0.41365457  0.74039838  0.76291083  1  -0.134995  0  -0.093232  -0.145904  0  3.996808  0
C  C65  1  0.58747254  0.26015313  0.76324523  1  -0.039644  0  -0.092627  -0.14393  0  3.994697  0
C  C66  1  0.58869732  0.73916327  0.76388584  1  -0.044529  0  -0.092928  -0.143526  0  3.992762  0
C  C67  1  0.41245220  0.26157068  0.76201012  1  0.004168  0  -0.092741  -0.143955  0  3.995085  0
C  C68  1  0.58634390  0.25955184  0.23711023  1  -0.135059  0  -0.09322  -0.145995  0  3.996131  0
C  C69  1  0.41254029  0.73981154  0.23676474  1  -0.040221  0  -0.092566  -0.144162  0  3.994806  0
C  C70  1  0.41110599  0.20294757  0.29541497  1  -0.062204  0  -0.086328  -0.088301  0  3.991127  0
C  C71  1  0.58760594  0.79605283  0.29745472  1  -0.092269  0  -0.086453  -0.088628  0  3.992829  0
C  C72  1  0.41378459  0.79823653  0.70364188  1  0.025316  0  -0.086543  -0.087524  0  3.992016  0
C  C73  1  0.58746967  0.20252623  0.70376181  1  -0.067103  0  -0.086909  -0.089337  0  3.991943  0
C  C74  1  0.58888878  0.79701168  0.70460489  1  -0.06382  0  -0.086314  -0.088054  0  3.99186  0
C  C75  1  0.41240414  0.20389439  0.70256816  1  -0.091318  0  -0.086699  -0.088937  0  3.992912  0
C  C76  1  0.58620957  0.20171068  0.29637034  1  0.024666  0  -0.086535  -0.087282  0  3.992181  0
C  C77  1  0.41253665  0.79743845  0.29624754  1  -0.052646  0  -0.086893  -0.088811  0  3.991741  0
C  C78  1  0.49941534  0.43417357  0.16777639  1  0.379056  0  0.087426  0.192927  0  4.069905  0
C  C79  1  0.49983309  0.56531934  0.16798570  1  0.481235  0  0.087639  0.191543  0  4.071086  0
C  C80  1  0.50058454  0.56578086  0.83224879  1  0.381467  0  0.087323  0.192951  0  4.06943  0
C  C81  1  0.50019573  0.43463692  0.83203845  1  0.483375  0  0.087631  0.191842  0  4.070084  0
C  C82  1  0.49926738  0.45865877  0.25010049  1  0.013857  0  -0.111255  -0.189426  0  3.990856  0
C  C83  1  0.49956595  0.54057244  0.25023628  1  -0.178011  0  -0.110758  -0.188788  0  3.991017  0
C  C84  1  0.50074625  0.54129567  0.74992476  1  0.014504  0  -0.111268  -0.189892  0  3.991675  0
C  C85  1  0.50049181  0.45938624  0.74978803  1  -0.18016  0  -0.110478  -0.188398  0  3.991152  0
C  C86  1  0.49939509  0.32552072  0.06612328  1  0.411825  0  0.100293  0.186155  0  4.025311  0
C  C87  1  0.50021125  0.67422677  0.06661400  1  0.337347  0  0.100078  0.18467  0  4.026481  0
C  C88  1  0.50059901  0.67443372  0.93389951  1  0.410177  0  0.10007  0.185581  0  4.02565  0
C  C89  1  0.49977198  0.32572827  0.93340638  1  0.415408  0  0.100212  0.185414  0  4.026372  0
C  C90  1  0.49927237  0.24332746  0.04003035  1  -0.068736  0  -0.098689  -0.181857  0  3.979965  0
C  C91  1  0.50046803  0.75648809  0.04074277  1  0.103528  0  -0.098753  -0.182458  0  3.980453  0
C  C92  1  0.50071813  0.75662456  0.95998949  1  -0.06791  0  -0.09846  -0.181319  0  3.979779  0
C  C93  1  0.49951302  0.24346754  0.95927408  1  0.105193  0  -0.098695  -0.182477  0  3.980206  0
C  C94  1  0.49921193  0.35293808  0.14397700  1  0.061175  0  0.000489  -0.079772  0  3.937258  0
C  C95  1  0.50002753  0.64663533  0.14441270  1  0.065992  0  0.000381  -0.07683  0  3.935222  0
C  C96  1  0.50079075  0.64702780  0.85604173  1  0.060439  0  0.000716  -0.079319  0  3.936749  0
C  C97  1  0.49998463  0.35332152  0.85560960  1  -0.014096  0  0.000487  -0.076852  0  3.935614  0
C  C98  1  0.49891700  0.28991121  0.20657960  1  -0.000124  0  -0.002686  0.091036  0  4.018554  0
C  C99  1  0.50003737  0.70946751  0.20721077  1  -0.050081  0  -0.002083  0.090755  0  4.018248  0
C  C100  1  0.50108355  0.71004925  0.79343794  1  0.000122  0  -0.002584  0.091003  0  4.018984  0
C  C101  1  0.49996902  0.29048813  0.79280798  1  -0.049056  0  -0.002088  0.0904  0  4.018859  0
C  C102  1  0.49858217  0.17313910  0.32614268  1  -0.017059  0  -0.021417  -0.037491  0  3.975356  0
C  C103  1  0.50007667  0.82585378  0.32718765  1  -0.000596  0  -0.021488  -0.037174  0  3.974899  0
C  C104  1  0.50141415  0.82680811  0.67387660  1  -0.015987  0  -0.021384  -0.037378  0  3.976046  0
C  C105  1  0.49993556  0.17409645  0.67283172  1  -0.00307  0  -0.021435  -0.036738  0  3.974934  0
C  C106  1  0.10090225  0.22930656  0.49829709  1  -0.036174  0  -0.230275  -0.401255  0  3.972435  0
C  C107  1  0.89471267  0.22913815  0.49833099  1  -0.036573  0  -0.230632  -0.401214  0  3.97302  0
C  C108  1  0.10529488  0.77085302  0.50162726  1  -0.037351  0  -0.230705  -0.401267  0  3.972334  0
C  C109  1  0.89910600  0.77068461  0.50169523  1  -0.034202  0  -0.230378  -0.401414  0  3.973261  0
N  N110  1  0.74873449  0.99979483  0.50015205  1  -1.236953  0  -0.321878  -0.180549  0  3.578997  0
N  N111  1  0.25126872  0.00019393  0.49984612  1  -1.235561  0  -0.321883  -0.180424  0  3.579284  0
N  N112  1  0.49975478  0.49982014  0.11893656  1  -1.165226  0  -0.35528  -0.419959  0  3.187972  0
N  N113  1  0.50024942  0.50013671  0.88108981  1  -1.166919  0  -0.355431  -0.420409  0  3.187557  0
N  N114  1  0.49969188  0.37287910  0.99983453  1  -1.223816  0  -0.378477  -0.263511  0  3.601474  0
N  N115  1  0.50029427  0.62707353  0.00018352  1  -1.222856  0  -0.378336  -0.262913  0  3.600849  0
O  O116  1  0.58203656  0.08769705  0.58439802  1  -1.164857  0  -0.320069  -0.550797  0  2.327909  0
O  O117  1  0.41776789  0.08855247  0.58371837  1  -1.169235  0  -0.320295  -0.551236  0  2.327347  0
O  O118  1  0.41638617  0.08765342  0.41457899  1  -1.162439  0  -0.320081  -0.550726  0  2.324694  0
O  O119  1  0.58064532  0.08664749  0.41526151  1  -1.171413  0  -0.320575  -0.552688  0  2.328321  0
O  O120  1  0.41795485  0.91231879  0.41554605  1  -1.163862  0  -0.320167  -0.550733  0  2.327689  0
O  O121  1  0.58222753  0.91132911  0.41638431  1  -1.169072  0  -0.320466  -0.551245  0  2.326764  0
O  O122  1  0.58359048  0.91238649  0.58551362  1  -1.162579  0  -0.32016  -0.550848  0  2.324322  0
O  O123  1  0.41933214  0.91322686  0.58469892  1  -1.170482  0  -0.3205  -0.552484  0  2.328576  0
