# generated using pymatgen
data_ZnH5C13NO4
_symmetry_space_group_name_H-M   'P 1'
_cell_length_a   12.73611536
_cell_length_b   13.99375481
_cell_length_c   16.10702026
_cell_angle_alpha   90.00938237
_cell_angle_beta   86.92626368
_cell_angle_gamma   86.89650584
_symmetry_Int_Tables_number   1
_chemical_formula_structural   ZnH5C13NO4
_chemical_formula_sum   'Zn2 H10 C26 N2 O8'
_cell_volume   2862.34338138
_cell_formula_units_Z   2
loop_
 _symmetry_equiv_pos_site_id
 _symmetry_equiv_pos_as_xyz
  1  'x, y, z'
loop_
 _atom_site_type_symbol
 _atom_site_label
 _atom_site_symmetry_multiplicity
 _atom_site_fract_x
 _atom_site_fract_y
 _atom_site_fract_z
 _atom_site_occupancy
 _atom_site_pbe_bader_charge
 _atom_site_pbe_bader_spin_density
 _atom_site_pbe_cm5_charge
 _atom_site_pbe_ddec_charge
 _atom_site_pbe_ddec_spin_density
 _atom_site_pbe_ddec_sum_bond_order
 _atom_site_pbe_magmom
Zn  Zn0  1  0.60831686  0.50736338  0.49433954  1  1.33358  0  0.679835  0.883855  0  2.424313  0
Zn  Zn1  1  0.39168477  0.49263764  0.50566727  1  1.33244  0  0.679778  0.883904  0  2.42449  0
H  H2  1  0.42212481  0.35620227  0.94911169  1  0.076461  0  0.102657  0.090359  0  0.989406  0
H  H3  1  0.00664065  0.57968958  0.43262594  1  0.183057  0  0.159015  0.170828  0  0.919435  0
H  H4  1  0.57788684  0.64380170  0.05089597  1  0.076292  0  0.102605  0.090379  0  0.98928  0
H  H5  1  0.59864086  0.35786476  0.04956091  1  0.053105  0  0.102681  0.090404  0  0.988844  0
H  H6  1  0.40136775  0.64213775  0.95044563  1  0.053181  0  0.10268  0.090415  0  0.988922  0
H  H7  1  0.31606816  0.49801790  0.05366005  1  0.053469  0  0.100988  0.088276  0  0.991199  0
H  H8  1  0.68394221  0.50198176  0.94634828  1  0.05305  0  0.100991  0.088248  0  0.991202  0
H  H9  1  0.62075443  0.98143961  0.49343802  1  0.074169  0  0.119067  0.120847  0  0.958482  0
H  H10  1  0.37921606  0.01855760  0.50655885  1  0.073624  0  0.119035  0.12087  0  0.958127  0
H  H11  1  0.99336065  0.42031929  0.56733556  1  0.182335  0  0.158895  0.170732  0  0.919678  0
C  C12  1  0.53704235  0.31427572  0.49822640  1  1.705924  0  0.217895  0.668974  0  4.235343  0
C  C13  1  0.85965119  0.52837906  0.48028590  1  0.77605  0  0.253093  0.329827  0  3.928145  0
C  C14  1  0.50485971  0.50061267  0.66124595  1  1.625573  0  0.217757  0.676167  0  4.230428  0
C  C15  1  0.49515081  0.49938484  0.33876113  1  1.625859  0  0.217881  0.67639  0  4.230697  0
C  C16  1  0.55495929  0.42097931  0.02656248  1  -0.012537  0  -0.068303  -0.074084  0  3.628463  0
C  C17  1  0.44504687  0.57902462  0.97344291  1  -0.012164  0  -0.068203  -0.073931  0  3.628358  0
C  C18  1  0.45655793  0.42006304  0.97267342  1  -0.014964  0  -0.068723  -0.074405  0  3.630379  0
C  C19  1  0.54345170  0.57993590  0.02733493  1  -0.015012  0  -0.068794  -0.074661  0  3.630475  0
C  C20  1  0.50555378  0.50060239  0.75080727  1  0.094456  0  -0.059445  -0.202371  0  4.004749  0
C  C21  1  0.49443960  0.49939285  0.24920049  1  0.094019  0  -0.059521  -0.202448  0  4.004874  0
C  C22  1  0.60223950  0.50112975  0.97083529  1  -0.015207  0  -0.072022  -0.080875  0  3.638089  0
C  C23  1  0.46298139  0.68572404  0.50177767  1  1.706326  0  0.217898  0.668875  0  4.235088  0
C  C24  1  0.39776900  0.49887419  0.02917249  1  -0.016454  0  -0.071985  -0.080948  0  3.638111  0
C  C25  1  0.50415021  0.50020311  0.91444671  1  0.074634  0  0.006747  0.121491  0  3.798383  0
C  C26  1  0.49585443  0.49980009  0.08555936  1  0.075138  0  0.006623  0.1214  0  3.79853  0
C  C27  1  0.50559454  0.50047537  0.82651413  1  -0.335638  0  -0.036745  -0.056818  0  4.103769  0
C  C28  1  0.49440567  0.49952350  0.17349336  1  -0.335303  0  -0.036717  -0.056793  0  4.103904  0
C  C29  1  0.45293098  0.78912853  0.50253786  1  0.159913  0  -0.039742  -0.175145  0  3.93396  0
C  C30  1  0.54706941  0.21087964  0.49746093  1  0.15945  0  -0.039786  -0.175339  0  3.934137  0
C  C31  1  0.45428729  0.97654582  0.50252264  1  0.219838  0  -0.060337  -0.044343  0  4.050425  0
C  C32  1  0.54567883  0.02344635  0.49747565  1  0.117155  0  -0.06035  -0.044312  0  4.050268  0
C  C33  1  0.54739455  0.12361601  0.49739935  1  -0.529845  0  -0.037268  -0.017683  0  4.164457  0
C  C34  1  0.45258627  0.87639130  0.50259277  1  -0.530877  0  -0.037277  -0.017776  0  4.165091  0
C  C35  1  0.97071728  0.52951745  0.47604672  1  0.213531  0  -0.006774  -0.075534  0  3.939621  0
C  C36  1  0.02928090  0.47047923  0.52391801  1  0.140084  0  -0.006644  -0.075315  0  3.939552  0
C  C37  1  0.14034955  0.47162552  0.51968928  1  0.775859  0  0.253209  0.329863  0  3.927742  0
N  N38  1  0.76844758  0.52759476  0.48357434  1  -1.053913  0  -0.234805  -0.238852  0  3.041976  0
N  N39  1  0.23155591  0.47240269  0.51642371  1  -1.053964  0  -0.234884  -0.238911  0  3.041928  0
O  O40  1  0.62137256  0.35943888  0.49438656  1  -1.15899  0  -0.319016  -0.54617  0  2.23219  0
O  O41  1  0.37863046  0.64055357  0.50561834  1  -1.158969  0  -0.319101  -0.546273  0  2.231567  0
O  O42  1  0.44270015  0.35025474  0.50281033  1  -1.144979  0  -0.316945  -0.552487  0  2.259182  0
O  O43  1  0.55731133  0.64975138  0.49720106  1  -1.145418  0  -0.316899  -0.552417  0  2.259617  0
O  O44  1  0.59379877  0.50483054  0.62139657  1  -1.139776  0  -0.320395  -0.551109  0  2.255077  0
O  O45  1  0.40619073  0.49516395  0.37861134  1  -1.139793  0  -0.320458  -0.551286  0  2.254589  0
O  O46  1  0.41517014  0.49630354  0.63016678  1  -1.147233  0  -0.319082  -0.550911  0  2.258356  0
O  O47  1  0.58481407  0.50369950  0.36983700  1  -1.147532  0  -0.319107  -0.550906  0  2.259422  0
