# generated using pymatgen
data_CdH18C24(N2O3)2
_symmetry_space_group_name_H-M   'P 1'
_cell_length_a   10.43383382
_cell_length_b   10.06190213
_cell_length_c   11.51207711
_cell_angle_alpha   73.95850225
_cell_angle_beta   79.83958101
_cell_angle_gamma   90.52688405
_symmetry_Int_Tables_number   1
_chemical_formula_structural   CdH18C24(N2O3)2
_chemical_formula_sum   'Cd2 H36 C48 N8 O12'
_cell_volume   1141.16416672
_cell_formula_units_Z   2
loop_
 _symmetry_equiv_pos_site_id
 _symmetry_equiv_pos_as_xyz
  1  'x, y, z'
loop_
 _atom_site_type_symbol
 _atom_site_label
 _atom_site_symmetry_multiplicity
 _atom_site_fract_x
 _atom_site_fract_y
 _atom_site_fract_z
 _atom_site_occupancy
 _atom_site_hle17_bader_spin_density
 _atom_site_hle17_ddec_charge
 _atom_site_hle17_ddec_spin_density
 _atom_site_hle17_ddec_sum_bond_order
 _atom_site_hle17_magmom
 _atom_site_hse06_10hf_bader_spin_density
 _atom_site_hse06_10hf_ddec_charge
 _atom_site_hse06_10hf_ddec_spin_density
 _atom_site_hse06_10hf_ddec_sum_bond_order
 _atom_site_hse06_10hf_magmom
 _atom_site_hse06_bader_spin_density
 _atom_site_hse06_ddec_charge
 _atom_site_hse06_ddec_spin_density
 _atom_site_hse06_ddec_sum_bond_order
 _atom_site_hse06_magmom
 _atom_site_pbe_bader_spin_density
 _atom_site_pbe_cm5_charge
 _atom_site_pbe_ddec_charge
 _atom_site_pbe_ddec_spin_density
 _atom_site_pbe_ddec_sum_bond_order
 _atom_site_pbe_magmom
Cd  Cd0  1  0.34223426  0.36346650  0.85407520  1  0  1.141388  0  1.681159  0  0  0.94518  0  2.135136  0  0  1.002754  0  2.07992  0  0  0.772095  0.900589  0  2.175814  0
Cd  Cd1  1  0.65776252  0.63653226  0.14592638  1  0  1.141403  0  1.681138  0  0  0.945185  0  2.135114  0  0  1.002762  0  2.079897  0  0  0.772098  0.900594  0  2.17579  0
H  H2  1  0.24287424  0.31676579  0.14962496  1  0  0.074082  0  0.953454  0  0  0.080958  0  1.019845  0  0  0.082849  0  1.018916  0  0  0.11211  0.079536  0  1.020596  0
H  H3  1  0.75712334  0.68322886  0.85037838  1  0  0.074189  0  0.953464  0  0  0.081033  0  1.019881  0  0  0.082925  0  1.01895  0  0  0.112145  0.079609  0  1.020634  0
H  H4  1  0.19462819  0.12559444  0.34832524  1  0  0.1013  0  0.996489  0  0  0.097562  0  1.077849  0  0  0.101144  0  1.07667  0  0  0.100994  0.094938  0  1.078916  0
H  H5  1  0.80536841  0.87440021  0.65167914  1  0  0.10126  0  0.996569  0  0  0.097573  0  1.077883  0  0  0.101156  0  1.076703  0  0  0.101008  0.094949  0  1.078951  0
H  H6  1  0.22061361  0.87983663  0.33815761  1  0  0.092398  0  0.935195  0  0  0.102667  0  0.995773  0  0  0.105596  0  0.993187  0  0  0.108689  0.100384  0  0.997929  0
H  H7  1  0.77938887  0.12015911  0.66184379  1  0  0.092381  0  0.935239  0  0  0.102653  0  0.99582  0  0  0.105582  0  0.993235  0  0  0.108675  0.100369  0  0.997978  0
H  H8  1  0.30451491  0.83744408  0.13710640  1  0  0.108897  0  0.973221  0  0  0.117556  0  1.036086  0  0  0.120214  0  1.035833  0  0  0.106922  0.115717  0  1.036342  0
H  H9  1  0.69549147  0.16255172  0.86289433  1  0  0.108852  0  0.973282  0  0  0.117586  0  1.036044  0  0  0.120243  0  1.035789  0  0  0.106939  0.115744  0  1.036298  0
H  H10  1  0.37507638  0.81222241  0.97384843  1  0  0.120629  0  0.98281  0  0  0.128139  0  1.046557  0  0  0.132135  0  1.043994  0  0  0.108578  0.125397  0  1.048202  0
H  H11  1  0.62492237  0.18777736  0.02614823  1  0  0.120616  0  0.982776  0  0  0.12814  0  1.046518  0  0  0.132137  0  1.043953  0  0  0.108583  0.125399  0  1.048164  0
H  H12  1  0.44956416  0.79161697  0.76460511  1  0  0.104764  0  0.919121  0  0  0.119072  0  0.969395  0  0  0.121466  0  0.968048  0  0  0.115379  0.117151  0  0.970686  0
H  H13  1  0.55043092  0.20838791  0.23539000  1  0  0.104793  0  0.919087  0  0  0.119085  0  0.969372  0  0  0.121493  0  0.968009  0  0  0.115375  0.117151  0  0.970675  0
H  H14  1  0.48791070  0.00900846  0.58558390  1  0  0.09246  0  0.965561  0  0  0.105819  0  1.020479  0  0  0.108475  0  1.019758  0  0  0.106318  0.103946  0  1.021037  0
H  H15  1  0.51208830  0.99099653  0.41441487  1  0  0.092472  0  0.965532  0  0  0.105824  0  1.02046  0  0  0.108481  0  1.019736  0  0  0.106295  0.103951  0  1.021017  0
H  H16  1  0.44239361  0.23730627  0.62832187  1  0  0.090312  0  0.911134  0  0  0.102913  0  0.964781  0  0  0.105311  0  0.962854  0  0  0.125676  0.100938  0  0.966618  0
H  H17  1  0.55761314  0.76269685  0.37168218  1  0  0.090325  0  0.911117  0  0  0.102906  0  0.964774  0  0  0.105329  0  0.962816  0  0  0.125693  0.10093  0  0.966612  0
H  H18  1  0.83804622  0.34609703  0.85433004  1  0  0.093407  0  0.97177  0  0  0.099768  0  1.043315  0  0  0.104405  0  1.039077  0  0  0.103993  0.097443  0  1.044597  0
H  H19  1  0.16195445  0.65390178  0.14567002  1  0  0.093387  0  0.971786  0  0  0.099779  0  1.043298  0  0  0.104418  0  1.039053  0  0  0.103996  0.097455  0  1.044576  0
H  H20  1  0.69606627  0.65100581  0.57016386  1  0  0.116765  0  0.939558  0  0  0.121584  0  1.007225  0  0  0.126327  0  1.002651  0  0  0.110452  0.118285  0  1.010366  0
H  H21  1  0.30393059  0.34899500  0.42983545  1  0  0.116769  0  0.939579  0  0  0.121594  0  1.007247  0  0  0.126337  0  1.002672  0  0  0.110472  0.118295  0  1.010386  0
H  H22  1  0.10959685  0.61355661  0.55365252  1  0  0.116436  0  0.932339  0  0  0.126306  0  0.992836  0  0  0.130306  0  0.989678  0  0  0.112903  0.123395  0  0.994982  0
H  H23  1  0.89040106  0.38644626  0.44634350  1  0  0.116473  0  0.932266  0  0  0.126332  0  0.992781  0  0  0.13033  0  0.989624  0  0  0.112912  0.12342  0  0.994927  0
H  H24  1  0.78168634  0.09707644  0.45830450  1  0  0.093363  0  0.947393  0  0  0.105504  0  1.007245  0  0  0.107983  0  1.005623  0  0  0.104024  0.103816  0  1.008236  0
H  H25  1  0.21831266  0.90292856  0.54169428  1  0  0.093356  0  0.947423  0  0  0.105492  0  1.00728  0  0  0.10797  0  1.005658  0  0  0.10403  0.103804  0  1.008271  0
H  H26  1  0.81064376  0.31669858  0.28532776  1  0  0.120529  0  0.971158  0  0  0.130325  0  1.030166  0  0  0.133397  0  1.029328  0  0  0.106057  0.12809  0  1.030868  0
H  H27  1  0.18935708  0.68330434  0.71466863  1  0  0.120542  0  0.971158  0  0  0.130325  0  1.030176  0  0  0.133397  0  1.029338  0  0  0.106062  0.128096  0  1.030881  0
H  H28  1  0.00018492  0.09504552  0.03848730  1  0  0.117765  0  0.953085  0  0  0.130012  0  1.010207  0  0  0.133226  0  1.00932  0  0  0.105148  0.127823  0  1.010863  0
H  H29  1  0.99981771  0.90495333  0.96151329  1  0  0.117779  0  0.953053  0  0  0.129984  0  1.010228  0  0  0.133196  0  1.009341  0  0  0.105138  0.127796  0  1.010884  0
H  H30  1  0.96971666  0.87578411  0.21147076  1  0  0.107129  0  0.962088  0  0  0.11139  0  1.033208  0  0  0.114415  0  1.031027  0  0  0.102713  0.109366  0  1.034302  0
H  H31  1  0.03028403  0.12421474  0.78853189  1  0  0.107121  0  0.962132  0  0  0.111422  0  1.03321  0  0  0.114447  0  1.031031  0  0  0.102737  0.109402  0  1.034304  0
H  H32  1  0.21564367  0.57634500  0.94605018  1  0  0.417542  0  0.889357  0  0  0.384115  0  0.957061  0  0  0.395124  0  0.941137  0  0  0.289367  0.376674  0  0.967534  0
H  H33  1  0.78435899  0.42365392  0.05395473  1  0  0.417561  0  0.889328  0  0  0.384095  0  0.957087  0  0  0.395103  0  0.941164  0  0  0.289343  0.376654  0  0.96756  0
H  H34  1  0.34463138  0.56470767  0.00637481  1  0  0.431166  0  0.873085  0  0  0.39796  0  0.940117  0  0  0.409258  0  0.923834  0  0  0.284817  0.389791  0  0.951782  0
H  H35  1  0.65537215  0.43528917  0.99362961  1  0  0.431252  0  0.872954  0  0  0.398003  0  0.940068  0  0  0.409301  0  0.923785  0  0  0.284829  0.389835  0  0.951732  0
H  H36  1  0.98431028  0.33185758  0.98251806  1  0  0.396514  0  0.910675  0  0  0.363911  0  0.990207  0  0  0.375764  0  0.973551  0  0  0.296986  0.35588  0  1.000046  0
H  H37  1  0.01569237  0.66814227  0.01747967  1  0  0.396527  0  0.91067  0  0  0.363941  0  0.990164  0  0  0.375793  0  0.97351  0  0  0.296982  0.355912  0  1.000005  0
C  C38  1  0.25564679  0.20881325  0.15128877  1  0  0.141898  0  3.702606  0  0  0.113289  0  3.951348  0  0  0.120216  0  3.970299  0  0  0.051686  0.108728  0  3.938502  0
C  C39  1  0.74435181  0.79118246  0.84871501  1  0  0.141731  0  3.70277  0  0  0.113152  0  3.951525  0  0  0.12008  0  3.970475  0  0  0.051586  0.108593  0  3.938681  0
C  C40  1  0.22795056  0.10257741  0.26099063  1  0  -0.112725  0  3.714142  0  0  -0.121898  0  3.96453  0  0  -0.12967  0  3.987763  0  0  -0.080923  -0.117274  0  3.950022  0
C  C41  1  0.77204900  0.89741829  0.73901125  1  0  -0.112748  0  3.714194  0  0  -0.121981  0  3.964598  0  0  -0.129754  0  3.98783  0  0  -0.080976  -0.117357  0  3.950094  0
C  C42  1  0.24425765  0.96695332  0.25535951  1  0  0.001642  0  3.730473  0  0  -0.017744  0  3.981026  0  0  -0.014994  0  4.00069  0  0  -0.063013  -0.018944  0  3.968341  0
C  C43  1  0.75574186  0.03304133  0.74464178  1  0  0.001722  0  3.730465  0  0  -0.017675  0  3.981079  0  0  -0.014928  0  4.000745  0  0  -0.062968  -0.018872  0  3.968395  0
C  C44  1  0.28910284  0.94265982  0.14225784  1  0  -0.13573  0  3.677473  0  0  -0.153707  0  3.923839  0  0  -0.160599  0  3.945814  0  0  -0.077932  -0.149742  0  3.909484  0
C  C45  1  0.71090164  0.05733699  0.85774295  1  0  -0.135705  0  3.677471  0  0  -0.153737  0  3.923835  0  0  -0.160623  0  3.945809  0  0  -0.077933  -0.149765  0  3.909477  0
C  C46  1  0.31567551  0.05516147  0.03581366  1  0  0.176648  0  3.755428  0  0  0.173316  0  3.996997  0  0  0.180202  0  4.017386  0  0  0.121786  0.168778  0  3.982787  0
C  C47  1  0.68432703  0.94483533  0.96418834  1  0  0.176679  0  3.755384  0  0  0.173351  0  3.996969  0  0  0.180235  0  4.017357  0  0  0.121787  0.168815  0  3.982761  0
C  C48  1  0.36415567  0.03594079  0.91235868  1  0  0.179223  0  3.75467  0  0  0.17381  0  3.99807  0  0  0.180565  0  4.018773  0  0  0.122736  0.169345  0  3.983878  0
C  C49  1  0.63584699  0.96405908  0.08764078  1  0  0.179152  0  3.754713  0  0  0.173726  0  3.998151  0  0  0.180481  0  4.018851  0  0  0.122724  0.169259  0  3.983961  0
C  C50  1  0.38842041  0.90488561  0.89598750  1  0  -0.13502  0  3.665702  0  0  -0.155608  0  3.916543  0  0  -0.162158  0  3.936553  0  0  -0.077873  -0.151649  0  3.903706  0
C  C51  1  0.61157943  0.09511629  0.10401192  1  0  -0.13488  0  3.665558  0  0  -0.155503  0  3.91645  0  0  -0.162051  0  3.936461  0  0  -0.077842  -0.151548  0  3.903612  0
C  C52  1  0.43247330  0.89355159  0.77802260  1  0  0.01242  0  3.710984  0  0  -0.005643  0  3.959856  0  0  -0.001907  0  3.978818  0  0  -0.05809  -0.00776  0  3.947459  0
C  C53  1  0.56752756  0.10645136  0.22197639  1  0  0.01233  0  3.710949  0  0  -0.005719  0  3.959839  0  0  -0.001996  0  3.978798  0  0  -0.058119  -0.007824  0  3.947442  0
C  C54  1  0.45300590  0.01324267  0.67917182  1  0  -0.117336  0  3.753885  0  0  -0.130239  0  4.007836  0  0  -0.13755  0  4.030691  0  0  -0.080769  -0.12547  0  3.992811  0
C  C55  1  0.54699302  0.98676027  0.32082836  1  0  -0.117345  0  3.753909  0  0  -0.130242  0  4.007843  0  0  -0.137557  0  4.030713  0  0  -0.080745  -0.125471  0  3.992809  0
C  C56  1  0.42774519  0.14009043  0.70201609  1  0  0.134449  0  3.720402  0  0  0.100343  0  3.977757  0  0  0.106908  0  3.997331  0  0  0.051906  0.095701  0  3.964981  0
C  C57  1  0.57225861  0.85991261  0.29798499  1  0  0.134455  0  3.720591  0  0  0.100381  0  3.977907  0  0  0.106924  0  3.997482  0  0  0.051911  0.095739  0  3.965129  0
C  C58  1  0.09836084  0.41192242  0.76701967  1  0  0.647932  0  3.897009  0  0  0.594089  0  4.192971  0  0  0.628513  0  4.186009  0  0  0.205624  0.570776  0  4.196324  0
C  C59  1  0.90164098  0.58808052  0.23297655  1  0  0.647971  0  3.896821  0  0  0.594187  0  4.192722  0  0  0.628609  0  4.185761  0  0  0.205661  0.570875  0  4.196073  0
C  C60  1  0.98579991  0.47376589  0.71074102  1  0  -0.059444  0  3.762659  0  0  -0.03608  0  4.004767  0  0  -0.044642  0  4.027064  0  0  -0.017855  -0.030751  0  3.989954  0
C  C61  1  0.01419987  0.52623496  0.28925693  1  0  -0.059589  0  3.762848  0  0  -0.036252  0  4.004972  0  0  -0.044816  0  4.027269  0  0  -0.017883  -0.030925  0  3.990155  0
C  C62  1  0.85689475  0.43038356  0.76937857  1  0  -0.074919  0  3.696269  0  0  -0.113532  0  3.948466  0  0  -0.110369  0  3.965492  0  0  -0.079904  -0.116273  0  3.937438  0
C  C63  1  0.14310785  0.56961526  0.23061943  1  0  -0.074864  0  3.696232  0  0  -0.113478  0  3.948433  0  0  -0.110311  0  3.965458  0  0  -0.079887  -0.116217  0  3.937401  0
C  C64  1  0.75238978  0.49270733  0.71832264  1  0  -0.065076  0  3.779693  0  0  -0.036547  0  4.011515  0  0  -0.045633  0  4.034805  0  0  -0.020257  -0.031192  0  3.997406  0
C  C65  1  0.24761191  0.50729252  0.28167612  1  0  -0.064982  0  3.779541  0  0  -0.036488  0  4.01142  0  0  -0.04558  0  4.03472  0  0  -0.02021  -0.031133  0  3.997309  0
C  C66  1  0.77702193  0.60249800  0.61025730  1  0  -0.112521  0  3.663493  0  0  -0.146339  0  3.908567  0  0  -0.144508  0  3.925477  0  0  -0.069958  -0.147268  0  3.8973  0
C  C67  1  0.22297576  0.39749971  0.38974179  1  0  -0.112594  0  3.663436  0  0  -0.146431  0  3.908567  0  0  -0.144598  0  3.925475  0  0  -0.070056  -0.14736  0  3.897301  0
C  C68  1  0.90582878  0.64873452  0.55324647  1  0  0.156816  0  3.824348  0  0  0.166404  0  4.078052  0  0  0.165265  0  4.102002  0  0  0.087667  0.166651  0  4.061461  0
C  C69  1  0.09416807  0.35126627  0.44675111  1  0  0.15688  0  3.824384  0  0  0.166489  0  4.078081  0  0  0.165352  0  4.102029  0  0  0.087739  0.166734  0  4.061494  0
C  C70  1  0.00969434  0.58078344  0.60070564  1  0  -0.105445  0  3.669479  0  0  -0.141896  0  3.91968  0  0  -0.140846  0  3.938711  0  0  -0.065907  -0.140693  0  3.905598  0
C  C71  1  0.99030455  0.41921945  0.39929108  1  0  -0.105409  0  3.669616  0  0  -0.14186  0  3.919828  0  0  -0.140807  0  3.938859  0  0  -0.065905  -0.140656  0  3.905745  0
C  C72  1  0.61400654  0.44465542  0.77893361  1  0  0.630581  0  3.936643  0  0  0.581532  0  4.224772  0  0  0.61504  0  4.220125  0  0  0.196224  0.558719  0  4.227085  0
C  C73  1  0.38599419  0.55534446  0.22106790  1  0  0.63045  0  3.936688  0  0  0.581421  0  4.224818  0  0  0.61493  0  4.220174  0  0  0.196189  0.558607  0  4.227127  0
C  C74  1  0.87890987  0.97511910  0.34663156  1  0  0.123183  0  3.856071  0  0  0.125257  0  4.111592  0  0  0.120605  0  4.138425  0  0  0.070485  0.127293  0  4.094805  0
C  C75  1  0.12108602  0.02488171  0.65336878  1  0  0.123168  0  3.855958  0  0  0.125224  0  4.111522  0  0  0.12057  0  4.138358  0  0  0.070487  0.12726  0  4.094737  0
C  C76  1  0.83090674  0.09886510  0.36605887  1  0  -0.097489  0  3.761792  0  0  -0.11898  0  4.013216  0  0  -0.118944  0  4.036038  0  0  -0.083273  -0.119168  0  3.998358  0
C  C77  1  0.16908816  0.90113567  0.63393904  1  0  -0.097406  0  3.761785  0  0  -0.118891  0  4.013182  0  0  -0.118855  0  4.036005  0  0  -0.083265  -0.119078  0  3.998325  0
C  C78  1  0.84753034  0.22039760  0.27104472  1  0  -0.196903  0  3.75282  0  0  -0.215391  0  4.004071  0  0  -0.224057  0  4.027569  0  0  -0.108441  -0.209846  0  3.988419  0
C  C79  1  0.15246651  0.77960319  0.72895286  1  0  -0.197028  0  3.752951  0  0  -0.215488  0  4.004217  0  0  -0.224154  0  4.027714  0  0  -0.108492  -0.209951  0  3.988572  0
C  C80  1  0.91157262  0.21928609  0.15332681  1  0  0.353423  0  3.800054  0  0  0.342891  0  4.058291  0  0  0.355629  0  4.075425  0  0  0.088642  0.334698  0  4.046837  0
C  C81  1  0.08842917  0.78071584  0.84667228  1  0  0.353405  0  3.800021  0  0  0.342838  0  4.058294  0  0  0.355578  0  4.075426  0  0  0.088622  0.334646  0  4.046843  0
C  C82  1  0.95417476  0.09438966  0.13131733  1  0  -0.207245  0  3.742214  0  0  -0.225696  0  3.993408  0  0  -0.234112  0  4.015472  0  0  -0.110132  -0.220963  0  3.979484  0
C  C83  1  0.04582215  0.90561219  0.86868171  1  0  -0.207219  0  3.742207  0  0  -0.225629  0  3.99343  0  0  -0.234042  0  4.015493  0  0  -0.110113  -0.220896  0  3.979507  0
C  C84  1  0.93850421  0.97334333  0.22737177  1  0  -0.086991  0  3.725282  0  0  -0.107952  0  3.976575  0  0  -0.10666  0  3.99806  0  0  -0.083168  -0.108092  0  3.962657  0
C  C85  1  0.06149559  0.02665755  0.77262878  1  0  -0.08698  0  3.725328  0  0  -0.107974  0  3.976604  0  0  -0.106682  0  3.99809  0  0  -0.083189  -0.108116  0  3.962691  0
N  N86  1  0.29793314  0.18595995  0.04199756  1  0  -0.363833  0  3.250732  0  0  -0.295317  0  3.514512  0  0  -0.314227  0  3.53144  0  0  -0.322748  -0.281813  0  3.502138  0
N  N87  1  0.70206554  0.81403781  0.95800395  1  0  -0.363783  0  3.250816  0  0  -0.295248  0  3.514542  0  0  -0.314157  0  3.531471  0  0  -0.322699  -0.281745  0  3.50217  0
N  N88  1  0.38415912  0.15048695  0.81554564  1  0  -0.360637  0  3.263467  0  0  -0.291956  0  3.531337  0  0  -0.311568  0  3.549878  0  0  -0.325523  -0.278083  0  3.518188  0
N  N89  1  0.61584562  0.84951508  0.18445728  1  0  -0.360656  0  3.263681  0  0  -0.291964  0  3.531534  0  0  -0.31158  0  3.550092  0  0  -0.325529  -0.27809  0  3.518386  0
N  N90  1  0.93664041  0.76330187  0.44714306  1  0  -0.161026  0  2.970305  0  0  -0.141647  0  3.255407  0  0  -0.143255  0  3.265033  0  0  -0.153635  -0.14019  0  3.247928  0
N  N91  1  0.06335557  0.23670100  0.55285588  1  0  -0.161009  0  2.970147  0  0  -0.141625  0  3.25523  0  0  -0.143232  0  3.264853  0  0  -0.153659  -0.140167  0  3.247753  0
N  N92  1  0.86003005  0.86020484  0.45044582  1  0  -0.155206  0  3.075564  0  0  -0.126599  0  3.359584  0  0  -0.123792  0  3.367512  0  0  -0.146758  -0.127287  0  3.353252  0
N  N93  1  0.13996691  0.13979806  0.54955382  1  0  -0.155265  0  3.075437  0  0  -0.126644  0  3.359454  0  0  -0.123839  0  3.367381  0  0  -0.146758  -0.127333  0  3.353124  0
O  O94  1  0.30396175  0.54051276  0.94149661  1  0  -0.856037  0  1.864218  0  0  -0.786731  0  2.068927  0  0  -0.809504  0  2.032886  0  0  -0.5981  -0.769984  0  2.093914  0
O  O95  1  0.69603883  0.45948303  0.05851030  1  0  -0.856107  0  1.864093  0  0  -0.786755  0  2.068891  0  0  -0.809529  0  2.032853  0  0  -0.598081  -0.770003  0  2.093862  0
O  O96  1  0.07692242  0.32001178  0.87172300  1  0  -0.659986  0  2.020354  0  0  -0.601384  0  2.259855  0  0  -0.626869  0  2.247592  0  0  -0.328961  -0.583001  0  2.26588  0
O  O97  1  0.92307939  0.67999115  0.12827322  1  0  -0.660034  0  2.020259  0  0  -0.601445  0  2.259699  0  0  -0.626933  0  2.247448  0  0  -0.329015  -0.583065  0  2.265725  0
O  O98  1  0.21327727  0.45589211  0.70967556  1  0  -0.609537  0  1.946437  0  0  -0.542606  0  2.178678  0  0  -0.570967  0  2.168437  0  0  -0.320347  -0.522336  0  2.186271  0
O  O99  1  0.78672259  0.54411080  0.29032099  1  0  -0.609568  0  1.946392  0  0  -0.542658  0  2.178622  0  0  -0.571019  0  2.168384  0  0  -0.320364  -0.522387  0  2.186212  0
O  O100  1  0.58882598  0.38044757  0.89410122  1  0  -0.667044  0  1.989417  0  0  -0.60308  0  2.217676  0  0  -0.629702  0  2.206793  0  0  -0.328922  -0.583568  0  2.223707  0
O  O101  1  0.41117485  0.61955439  0.10590063  1  0  -0.666969  0  1.989377  0  0  -0.60305  0  2.217631  0  0  -0.629668  0  2.206738  0  0  -0.328925  -0.583537  0  2.223662  0
O  O102  1  0.52679693  0.46927884  0.71278497  1  0  -0.611893  0  1.938244  0  0  -0.548779  0  2.164094  0  0  -0.576758  0  2.153882  0  0  -0.327544  -0.528073  0  2.171702  0
O  O103  1  0.47320065  0.53071582  0.28721925  1  0  -0.611822  0  1.938242  0  0  -0.548698  0  2.164076  0  0  -0.576677  0  2.153865  0  0  -0.327509  -0.527993  0  2.17168  0
O  O104  1  0.92742226  0.34075339  0.06302700  1  0  -0.543065  0  2.161955  0  0  -0.476334  0  2.369272  0  0  -0.499811  0  2.3579  0  0  -0.339947  -0.460448  0  2.374384  0
O  O105  1  0.07257751  0.65924745  0.93697095  1  0  -0.542997  0  2.161881  0  0  -0.476273  0  2.369207  0  0  -0.499757  0  2.357836  0  0  -0.33989  -0.460385  0  2.374316  0
