# generated using pymatgen
data_ZnH16C21(NO2)2
_symmetry_space_group_name_H-M   'P 1'
_cell_length_a   7.63197589
_cell_length_b   10.23306143
_cell_length_c   12.85460477
_cell_angle_alpha   110.05999746
_cell_angle_beta   93.44952802
_cell_angle_gamma   104.65889370
_symmetry_Int_Tables_number   1
_chemical_formula_structural   ZnH16C21(NO2)2
_chemical_formula_sum   'Zn2 H32 C42 N4 O8'
_cell_volume   900.31481932
_cell_formula_units_Z   2
loop_
 _symmetry_equiv_pos_site_id
 _symmetry_equiv_pos_as_xyz
  1  'x, y, z'
loop_
 _atom_site_type_symbol
 _atom_site_label
 _atom_site_symmetry_multiplicity
 _atom_site_fract_x
 _atom_site_fract_y
 _atom_site_fract_z
 _atom_site_occupancy
 _atom_site_hle17_bader_spin_density
 _atom_site_hle17_ddec_charge
 _atom_site_hle17_ddec_spin_density
 _atom_site_hle17_ddec_sum_bond_order
 _atom_site_hle17_magmom
 _atom_site_hse06_10hf_bader_spin_density
 _atom_site_hse06_10hf_ddec_charge
 _atom_site_hse06_10hf_ddec_spin_density
 _atom_site_hse06_10hf_ddec_sum_bond_order
 _atom_site_hse06_10hf_magmom
 _atom_site_hse06_bader_spin_density
 _atom_site_hse06_ddec_charge
 _atom_site_hse06_ddec_spin_density
 _atom_site_hse06_ddec_sum_bond_order
 _atom_site_hse06_magmom
 _atom_site_pbe_bader_spin_density
 _atom_site_pbe_cm5_charge
 _atom_site_pbe_ddec_charge
 _atom_site_pbe_ddec_spin_density
 _atom_site_pbe_ddec_sum_bond_order
 _atom_site_pbe_magmom
Zn  Zn0  1  0.83809329  0.48859557  0.11068882  1  0  1.046103  0  1.806973  0  0  0.855795  0  2.276415  0  0  0.907638  0  2.217185  0  0  0.68866  0.819201  0  2.317366  0
Zn  Zn1  1  0.16190589  0.51140364  0.88931053  1  0  1.046146  0  1.806948  0  0  0.855829  0  2.276384  0  0  0.907671  0  2.217154  0  0  0.688666  0.819236  0  2.317336  0
H  H2  1  0.05959173  0.49362819  0.31810183  1  0  0.094196  0  0.951117  0  0  0.099957  0  1.018022  0  0  0.101964  0  1.016888  0  0  0.118497  0.098518  0  1.018901  0
H  H3  1  0.94040917  0.50637210  0.68189788  1  0  0.094211  0  0.951114  0  0  0.099975  0  1.018013  0  0  0.101983  0  1.01688  0  0  0.118517  0.098537  0  1.018892  0
H  H4  1  0.14305365  0.01286465  0.39934429  1  0  0.102266  0  0.975878  0  0  0.111544  0  1.04  0  0  0.113858  0  1.041089  0  0  0.102395  0.109832  0  1.039652  0
H  H5  1  0.85694684  0.98713455  0.60065666  1  0  0.102259  0  0.975924  0  0  0.111553  0  1.040029  0  0  0.113867  0  1.041118  0  0  0.102403  0.109839  0  1.039684  0
H  H6  1  0.95141552  0.81705687  0.22427792  1  0  0.088404  0  0.949853  0  0  0.096292  0  1.012239  0  0  0.098856  0  1.010466  0  0  0.115893  0.094059  0  1.01412  0
H  H7  1  0.04858587  0.18294123  0.77572199  1  0  0.088414  0  0.949854  0  0  0.096304  0  1.012226  0  0  0.098861  0  1.010461  0  0  0.115888  0.094071  0  1.014107  0
H  H8  1  0.34147685  0.08602494  0.56879920  1  0  0.087356  0  0.95446  0  0  0.099635  0  1.015449  0  0  0.102525  0  1.014307  0  0  0.101629  0.097589  0  1.016184  0
H  H9  1  0.65852062  0.91397318  0.43119979  1  0  0.087352  0  0.954447  0  0  0.099643  0  1.015429  0  0  0.102534  0  1.014287  0  0  0.101636  0.097597  0  1.016164  0
H  H10  1  0.36742229  0.85132833  0.66528449  1  0  0.107589  0  0.97199  0  0  0.114445  0  1.040294  0  0  0.118087  0  1.037695  0  0  0.104697  0.111902  0  1.042019  0
H  H11  1  0.63257861  0.14867195  0.33471677  1  0  0.107582  0  0.972002  0  0  0.114443  0  1.040304  0  0  0.118072  0  1.037721  0  0  0.104701  0.1119  0  1.042027  0
H  H12  1  0.76634193  0.15504558  0.00805709  1  0  0.078092  0  0.940458  0  0  0.08807  0  1.003263  0  0  0.090024  0  1.001857  0  0  0.115584  0.086493  0  1.004481  0
H  H13  1  0.23365898  0.84495471  0.99194106  1  0  0.078105  0  0.940428  0  0  0.088079  0  1.003236  0  0  0.09003  0  1.001834  0  0  0.115576  0.086502  0  1.004455  0
H  H14  1  0.58615786  0.94462592  0.83595907  1  0  0.105615  0  0.989358  0  0  0.113942  0  1.052868  0  0  0.115917  0  1.054457  0  0  0.103764  0.112708  0  1.051571  0
H  H15  1  0.41384256  0.05537655  0.16404122  1  0  0.105612  0  0.989423  0  0  0.113946  0  1.052933  0  0  0.115919  0  1.054519  0  0  0.103758  0.11271  0  1.051636  0
H  H16  1  0.58767815  0.44573188  0.90181648  1  0  0.091209  0  0.971676  0  0  0.098056  0  1.035719  0  0  0.100739  0  1.03314  0  0  0.11741  0.09617  0  1.03748  0
H  H17  1  0.41232145  0.55426841  0.09818240  1  0  0.091216  0  0.971672  0  0  0.098063  0  1.035707  0  0  0.100748  0  1.033123  0  0  0.117407  0.096171  0  1.037489  0
H  H18  1  0.41046075  0.25559256  0.72881259  1  0  0.108387  0  0.949914  0  0  0.118399  0  1.010346  0  0  0.121895  0  1.008889  0  0  0.108405  0.115995  0  1.011377  0
H  H19  1  0.58953795  0.74440883  0.27118733  1  0  0.108414  0  0.949887  0  0  0.118392  0  1.010348  0  0  0.121887  0  1.008893  0  0  0.108407  0.115991  0  1.01138  0
H  H20  1  0.25096754  0.67326764  0.49862105  1  0  0.1075  0  0.961929  0  0  0.119737  0  1.019477  0  0  0.122554  0  1.018942  0  0  0.108529  0.117268  0  1.020861  0
H  H21  1  0.74903296  0.32673156  0.50137757  1  0  0.107492  0  0.961922  0  0  0.119744  0  1.019456  0  0  0.122563  0  1.018918  0  0  0.108525  0.117274  0  1.02084  0
H  H22  1  0.96132299  0.19927065  0.37962881  1  0  0.076139  0  1.012693  0  0  0.086643  0  1.078049  0  0  0.088425  0  1.07878  0  0  0.091764  0.085338  0  1.077635  0
H  H23  1  0.03867570  0.80073074  0.62037267  1  0  0.076164  0  1.012697  0  0  0.086662  0  1.078069  0  0  0.088444  0  1.078797  0  0  0.091771  0.085355  0  1.077656  0
H  H24  1  0.25900844  0.32899867  0.51143006  1  0  0.088444  0  0.946791  0  0  0.101461  0  1.002183  0  0  0.104774  0  1.000591  0  0  0.096881  0.099194  0  1.003287  0
H  H25  1  0.74099074  0.67100053  0.48857006  1  0  0.088455  0  0.946783  0  0  0.101473  0  1.002173  0  0  0.104785  0  1.000583  0  0  0.096891  0.099207  0  1.003274  0
H  H26  1  0.54447077  0.40056559  0.43419780  1  0  0.081427  0  0.981875  0  0  0.091991  0  1.04761  0  0  0.094586  0  1.046666  0  0  0.09594  0.090042  0  1.048593  0
H  H27  1  0.45552800  0.59943252  0.56580279  1  0  0.081414  0  0.981884  0  0  0.091975  0  1.047623  0  0  0.09457  0  1.046678  0  0  0.095931  0.090026  0  1.048606  0
H  H28  1  0.94971625  0.15062825  0.17820960  1  0  0.095746  0  0.944469  0  0  0.108122  0  1.003754  0  0  0.111383  0  1.0017  0  0  0.100061  0.105719  0  1.005489  0
H  H29  1  0.05028375  0.84937314  0.82179038  1  0  0.095743  0  0.944474  0  0  0.108121  0  1.003756  0  0  0.111383  0  1.001701  0  0  0.100064  0.105718  0  1.005491  0
H  H30  1  0.12747142  0.11700743  0.01704015  1  0  0.100989  0  0.926492  0  0  0.117865  0  0.985984  0  0  0.119986  0  0.98455  0  0  0.100282  0.11641  0  0.987041  0
H  H31  1  0.87252949  0.88299286  0.98295956  1  0  0.100989  0  0.926506  0  0  0.117863  0  0.985999  0  0  0.119984  0  0.984566  0  0  0.100283  0.116409  0  0.987056  0
H  H32  1  0.35425356  0.22820660  0.03596618  1  0  0.117458  0  0.94931  0  0  0.12844  0  1.012483  0  0  0.130916  0  1.012307  0  0  0.10146  0.126617  0  1.012755  0
H  H33  1  0.64574603  0.77179369  0.96403426  1  0  0.117463  0  0.949302  0  0  0.128446  0  1.012465  0  0  0.130922  0  1.01229  0  0  0.101458  0.126622  0  1.012738  0
C  C34  1  0.08159690  0.61005517  0.34043086  1  0  0.138286  0  3.680318  0  0  0.106888  0  3.928859  0  0  0.114536  0  3.947184  0  0  0.050097  0.101997  0  3.916274  0
C  C35  1  0.91840229  0.38994404  0.65956771  1  0  0.138229  0  3.680291  0  0  0.106817  0  3.928852  0  0  0.114465  0  3.947179  0  0  0.050035  0.101926  0  3.916268  0
C  C36  1  0.12749844  0.89902010  0.38549795  1  0  -0.168862  0  3.707459  0  0  -0.184939  0  3.952508  0  0  -0.193855  0  3.975299  0  0  -0.087586  -0.179287  0  3.937385  0
C  C37  1  0.87250074  0.10097911  0.61450217  1  0  -0.168829  0  3.707564  0  0  -0.184931  0  3.952606  0  0  -0.193846  0  3.975394  0  0  -0.087553  -0.179277  0  3.937483  0
C  C38  1  0.21411042  0.86087421  0.46570201  1  0  0.132505  0  3.814083  0  0  0.146357  0  4.045423  0  0  0.151993  0  4.067869  0  0  0.006775  0.142695  0  4.030102  0
C  C39  1  0.78588876  0.13912499  0.53429812  1  0  0.132456  0  3.814146  0  0  0.146312  0  4.045487  0  0  0.151948  0  4.067932  0  0  0.006781  0.142651  0  4.030166  0
C  C40  1  0.02114601  0.79125363  0.28787984  1  0  0.124355  0  3.71647  0  0  0.093208  0  3.966915  0  0  0.10042  0  3.985434  0  0  0.043119  0.088737  0  3.954446  0
C  C41  1  0.97885490  0.20874666  0.71211909  1  0  0.124275  0  3.716501  0  0  0.09315  0  3.966924  0  0  0.100366  0  3.985446  0  0  0.043083  0.08868  0  3.954452  0
C  C42  1  0.31979547  0.97624093  0.56888959  1  0  -0.110069  0  3.734833  0  0  -0.129881  0  3.987358  0  0  -0.133469  0  4.007799  0  0  -0.082515  -0.127116  0  3.973184  0
C  C43  1  0.68020461  0.02375718  0.43111027  1  0  -0.110032  0  3.734772  0  0  -0.129862  0  3.987317  0  0  -0.133451  0  4.007752  0  0  -0.082526  -0.127099  0  3.973145  0
C  C44  1  0.38689309  0.95944912  0.66179049  1  0  -0.092132  0  3.680788  0  0  -0.110831  0  3.927667  0  0  -0.113172  0  3.946527  0  0  -0.075462  -0.109297  0  3.914738  0
C  C45  1  0.61310871  0.04055007  0.33820895  1  0  -0.092185  0  3.680738  0  0  -0.110887  0  3.927637  0  0  -0.11322  0  3.946502  0  0  -0.075485  -0.10935  0  3.914703  0
C  C46  1  0.68691295  0.17109388  0.94242532  1  0  0.121697  0  3.725972  0  0  0.091421  0  3.975263  0  0  0.097849  0  3.995237  0  0  0.04186  0.087413  0  3.961601  0
C  C47  1  0.31308444  0.82890751  0.05757456  1  0  0.12169  0  3.725937  0  0  0.091417  0  3.97523  0  0  0.097848  0  3.995205  0  0  0.041884  0.087409  0  3.961567  0
C  C48  1  0.48716010  0.08069341  0.76383094  1  0  0.135649  0  3.791107  0  0  0.151213  0  4.019391  0  0  0.156245  0  4.042215  0  0  0.008446  0.148106  0  4.00363  0
C  C49  1  0.51283990  0.91930797  0.23616904  1  0  0.135728  0  3.790983  0  0  0.151268  0  4.019292  0  0  0.156301  0  4.042113  0  0  0.008461  0.148162  0  4.00353  0
C  C50  1  0.58626370  0.05501146  0.84722907  1  0  -0.166165  0  3.691328  0  0  -0.181014  0  3.931655  0  0  -0.189633  0  3.954783  0  0  -0.085295  -0.175321  0  3.915598  0
C  C51  1  0.41373499  0.94498993  0.15277086  1  0  -0.166196  0  3.69128  0  0  -0.181057  0  3.931636  0  0  -0.189671  0  3.954754  0  0  -0.085309  -0.175363  0  3.915578  0
C  C52  1  0.59059409  0.33461464  0.88369668  1  0  0.148314  0  3.679444  0  0  0.114634  0  3.934224  0  0  0.12289  0  3.950421  0  0  0.048217  0.109157  0  3.92327  0
C  C53  1  0.40940813  0.66538564  0.11630151  1  0  0.148238  0  3.679477  0  0  0.114559  0  3.934242  0  0  0.122815  0  3.950441  0  0  0.048168  0.109081  0  3.923287  0
C  C54  1  0.48946167  0.22529874  0.78541072  1  0  -0.14483  0  3.668717  0  0  -0.163071  0  3.915912  0  0  -0.170438  0  3.935577  0  0  -0.076626  -0.15833  0  3.902706  0
C  C55  1  0.51053966  0.77470264  0.21458774  1  0  -0.144844  0  3.668694  0  0  -0.163037  0  3.915883  0  0  -0.170405  0  3.935551  0  0  -0.076618  -0.158297  0  3.902673  0
C  C56  1  0.18861825  0.71134606  0.44055607  1  0  -0.165586  0  3.683657  0  0  -0.178902  0  3.921553  0  0  -0.187754  0  3.943293  0  0  -0.080858  -0.173146  0  3.907483  0
C  C57  1  0.81138053  0.28865206  0.55944296  1  0  -0.16551  0  3.683605  0  0  -0.17884  0  3.921502  0  0  -0.187689  0  3.943239  0  0  -0.080821  -0.173081  0  3.907431  0
C  C58  1  0.23918418  0.24989364  0.18997436  1  0  0.100739  0  3.731171  0  0  0.113522  0  3.966474  0  0  0.115135  0  3.98921  0  0  -0.009036  0.112578  0  3.951271  0
C  C59  1  0.76081672  0.75010665  0.81002535  1  0  0.100763  0  3.731165  0  0  0.113531  0  3.966485  0  0  0.115146  0  3.989221  0  0  -0.009008  0.112587  0  3.951283  0
C  C60  1  0.40722192  0.32089952  0.26395108  1  0  -0.098535  0  3.716568  0  0  -0.079733  0  3.946794  0  0  -0.085142  0  3.966323  0  0  -0.018065  -0.076404  0  3.933627  0
C  C61  1  0.59277767  0.67910077  0.73604936  1  0  -0.098569  0  3.716562  0  0  -0.079768  0  3.946792  0  0  -0.085178  0  3.966321  0  0  -0.018109  -0.076439  0  3.933625  0
C  C62  1  0.08726633  0.23279464  0.34818786  1  0  -0.073523  0  3.795387  0  0  -0.087879  0  4.045068  0  0  -0.087735  0  4.064175  0  0  -0.099862  -0.087651  0  4.032102  0
C  C63  1  0.91273285  0.76720457  0.65181149  1  0  -0.073572  0  3.795458  0  0  -0.087931  0  4.045137  0  0  -0.087786  0  4.064243  0  0  -0.099865  -0.087702  0  4.032169  0
C  C64  1  0.25378813  0.30496065  0.42153440  1  0  -0.09139  0  3.806669  0  0  -0.105248  0  4.06046  0  0  -0.107102  0  4.079861  0  0  -0.102955  -0.104069  0  4.047481  0
C  C65  1  0.74621146  0.69503964  0.57846604  1  0  -0.091395  0  3.806674  0  0  -0.105257  0  4.060468  0  0  -0.107112  0  4.079868  0  0  -0.102966  -0.104077  0  4.047488  0
C  C66  1  0.41297487  0.34595755  0.37853426  1  0  -0.098309  0  3.792888  0  0  -0.121017  0  4.043077  0  0  -0.122511  0  4.064277  0  0  -0.096839  -0.119738  0  4.028646  0
C  C67  1  0.58702472  0.65404275  0.62146618  1  0  -0.098262  0  3.792855  0  0  -0.120961  0  4.043028  0  0  -0.122454  0  4.064226  0  0  -0.096797  -0.119683  0  4.028597  0
C  C68  1  0.08141080  0.20455100  0.23388574  1  0  -0.102418  0  3.720623  0  0  -0.123866  0  3.970707  0  0  -0.125855  0  3.98894  0  0  -0.089648  -0.122957  0  3.958826  0
C  C69  1  0.91858880  0.79544930  0.76611392  1  0  -0.102369  0  3.720636  0  0  -0.123812  0  3.970715  0  0  -0.125801  0  3.988949  0  0  -0.089632  -0.122902  0  3.958834  0
C  C70  1  0.58584131  0.36689623  0.22404822  1  0  0.636563  0  3.951703  0  0  0.5864  0  4.252479  0  0  0.620269  0  4.244259  0  0  0.193303  0.563513  0  4.256998  0
C  C71  1  0.41415787  0.63310297  0.77595268  1  0  0.636531  0  3.951842  0  0  0.586375  0  4.252596  0  0  0.620244  0  4.244375  0  0  0.193294  0.563489  0  4.257116  0
C  C72  1  0.14545834  0.33466350  0.03717987  1  0  0.725766  0  3.826615  0  0  0.673187  0  4.133273  0  0  0.707941  0  4.124164  0  0  0.22366  0.649655  0  4.138334  0
C  C73  1  0.85454125  0.66533679  0.96282057  1  0  0.725785  0  3.826577  0  0  0.673192  0  4.133241  0  0  0.707948  0  4.124129  0  0  0.22367  0.64966  0  4.138304  0
C  C74  1  0.22337673  0.22510273  0.06701742  1  0  -0.30756  0  3.69196  0  0  -0.351804  0  3.939525  0  0  -0.357224  0  3.945472  0  0  -0.162142  -0.347987  0  3.935293  0
C  C75  1  0.77662417  0.77489756  0.93298307  1  0  -0.307593  0  3.691956  0  0  -0.351829  0  3.939523  0  0  -0.357252  0  3.945474  0  0  -0.162164  -0.348015  0  3.935295  0
N  N76  1  0.99816150  0.64882718  0.26492978  1  0  -0.320192  0  3.257785  0  0  -0.240416  0  3.523274  0  0  -0.25937  0  3.538852  0  0  -0.320473  -0.227744  0  3.512395  0
N  N77  1  0.00183810  0.35117312  0.73506988  1  0  -0.320142  0  3.257772  0  0  -0.240372  0  3.523263  0  0  -0.259326  0  3.53884  0  0  -0.320455  -0.2277  0  3.512386  0
N  N78  1  0.69143225  0.30978220  0.96052463  1  0  -0.336422  0  3.277504  0  0  -0.256807  0  3.545941  0  0  -0.276378  0  3.562422  0  0  -0.324071  -0.243433  0  3.534646  0
N  N79  1  0.30857038  0.69021918  0.03947310  1  0  -0.336381  0  3.27751  0  0  -0.256763  0  3.545943  0  0  -0.276334  0  3.562424  0  0  -0.324023  -0.243387  0  3.534648  0
O  O80  1  0.59779169  0.46113041  0.17716204  1  0  -0.645949  0  2.038427  0  0  -0.576301  0  2.298787  0  0  -0.606661  0  2.287854  0  0  -0.324146  -0.554936  0  2.305261  0
O  O81  1  0.40220881  0.53886879  0.82283813  1  0  -0.645934  0  2.038539  0  0  -0.576281  0  2.298883  0  0  -0.606644  0  2.287958  0  0  -0.324123  -0.554917  0  2.305356  0
O  O82  1  0.71066503  0.31204522  0.23841400  1  0  -0.621217  0  1.885624  0  0  -0.573408  0  2.110522  0  0  -0.597463  0  2.102423  0  0  -0.324554  -0.556266  0  2.115098  0
O  O83  1  0.28933415  0.68795399  0.76158690  1  0  -0.621216  0  1.885642  0  0  -0.573422  0  2.110556  0  0  -0.597479  0  2.102457  0  0  -0.324565  -0.55628  0  2.115133  0
O  O84  1  0.18226979  0.35151460  0.94646501  1  0  -0.647086  0  2.077832  0  0  -0.575648  0  2.353297  0  0  -0.60336  0  2.338376  0  0  -0.317498  -0.556296  0  2.362947  0
O  O85  1  0.81772980  0.64848569  0.05353543  1  0  -0.647052  0  2.077857  0  0  -0.575615  0  2.353324  0  0  -0.603331  0  2.338403  0  0  -0.317484  -0.556263  0  2.362971  0
O  O86  1  0.05091188  0.39750487  0.10339050  1  0  -0.650555  0  2.137712  0  0  -0.586458  0  2.430373  0  0  -0.614276  0  2.415872  0  0  -0.30971  -0.566926  0  2.439727  0
O  O87  1  0.94908771  0.60249543  0.89660994  1  0  -0.650636  0  2.137701  0  0  -0.586511  0  2.430353  0  0  -0.614328  0  2.415848  0  0  -0.30974  -0.566981  0  2.43971  0
