# generated using pymatgen
data_ZnH10C22S2NO11
_symmetry_space_group_name_H-M   'P 1'
_cell_length_a   11.87248457
_cell_length_b   14.56880831
_cell_length_c   16.00991383
_cell_angle_alpha   103.73077075
_cell_angle_beta   85.50508361
_cell_angle_gamma   111.21514450
_symmetry_Int_Tables_number   1
_chemical_formula_structural   ZnH10C22S2NO11
_chemical_formula_sum   'Zn2 H20 C44 S4 N2 O22'
_cell_volume   2507.66615458
_cell_formula_units_Z   2
loop_
 _symmetry_equiv_pos_site_id
 _symmetry_equiv_pos_as_xyz
  1  'x, y, z'
loop_
 _atom_site_type_symbol
 _atom_site_label
 _atom_site_symmetry_multiplicity
 _atom_site_fract_x
 _atom_site_fract_y
 _atom_site_fract_z
 _atom_site_occupancy
 _atom_site_pbe_bader_charge
 _atom_site_pbe_bader_spin_density
 _atom_site_pbe_cm5_charge
 _atom_site_pbe_ddec_charge
 _atom_site_pbe_ddec_spin_density
 _atom_site_pbe_ddec_sum_bond_order
 _atom_site_pbe_magmom
Zn  Zn0  1  0.54898532  0.60094505  0.49212204  1  1.291989  0  0.680372  0.825378  0  2.398087  0
Zn  Zn1  1  0.45447802  0.39559808  0.50254245  1  1.291871  0  0.678452  0.825878  0  2.409343  0
H  H2  1  0.42427750  0.73411058  0.06027558  1  0.107824  0  0.113868  0.125622  0  0.999188  0
H  H3  1  0.34275160  0.21888375  0.93711787  1  0.111142  0  0.112745  0.12353  0  1.009117  0
H  H4  1  0.39431206  0.86321050  0.60482255  1  0.076996  0  0.114463  0.114038  0  0.994369  0
H  H5  1  0.64305114  0.15253121  0.41762345  1  0.092768  0  0.117378  0.118657  0  0.987983  0
H  H6  1  0.38338819  0.24337682  0.24154879  1  0.149022  0  0.117454  0.135118  0  1.002549  0
H  H7  1  0.46767656  0.72854832  0.75573275  1  0.122561  0  0.118729  0.135531  0  0.993152  0
H  H8  1  0.43640123  0.62437700  0.14930173  1  0.14505  0  0.112928  0.131402  0  1.010118  0
H  H9  1  0.39700261  0.34060289  0.84709927  1  0.090466  0  0.106235  0.110119  0  1.037449  0
H  H10  1  0.28636915  0.97538828  0.67412457  1  0.131139  0  0.113385  0.12502  0  1.017166  0
H  H11  1  0.76404010  0.04775055  0.35876782  1  0.17711  0  0.116496  0.131836  0  1.011061  0
H  H12  1  0.46710827  0.76827996  0.53947396  1  0.146331  0  0.127072  0.098898  0  1.01012  0
H  H13  1  0.53070841  0.22540031  0.45365938  1  0.112436  0  0.13111  0.100998  0  0.994655  0
H  H14  1  0.75162420  0.72183253  0.39443134  1  0.140932  0  0.129542  0.104846  0  1.00131  0
H  H15  1  0.28480450  0.29335289  0.62985548  1  0.124281  0  0.128969  0.099802  0  0.982312  0
H  H16  1  0.64246245  0.64314174  0.10452361  1  0.63374  0  0.326925  0.377015  0  0.900285  0
H  H17  1  0.73657264  0.50935030  0.85983302  1  0.632755  0  0.360642  0.410991  0  0.82332  0
H  H18  1  0.37829526  0.89554260  0.85709892  1  0.652046  0  0.362828  0.42267  0  0.811734  0
H  H19  1  0.39686298  0.05731898  0.13483361  1  0.63802  0  0.360964  0.416243  0  0.818294  0
H  H20  1  0.19232284  0.20889628  0.73025224  1  0.04616  0  0.103998  0.033463  0  0.956661  0
H  H21  1  0.87232295  0.82133287  0.31320281  1  0.059229  0  0.106499  0.042912  0  0.95413  0
C  C22  1  0.51032968  0.56744046  0.66389655  1  1.614294  0  0.214726  0.589536  0  4.200028  0
C  C23  1  0.48207926  0.42875646  0.33169401  1  1.622619  0  0.2197  0.593123  0  4.172647  0
C  C24  1  0.45549677  0.64093209  0.93898709  1  -0.007065  0  0.004619  0.073929  0  3.963501  0
C  C25  1  0.40558504  0.33054428  0.05715729  1  0.025622  0  0.012551  0.089016  0  3.950736  0
C  C26  1  0.45104528  0.47353075  0.95249149  1  -0.046972  0  -0.000226  0.040979  0  3.961158  0
C  C27  1  0.45559254  0.50614133  0.04305256  1  0.024611  0  -0.003406  0.029249  0  3.979769  0
C  C28  1  0.44710870  0.60273734  0.08009309  1  -0.106125  0  -0.093222  -0.155789  0  4.025041  0
C  C29  1  0.41156894  0.36774589  0.91612997  1  0.099026  0  -0.082783  -0.100002  0  3.971298  0
C  C30  1  0.44084871  0.66504794  0.02991423  1  -0.05343  0  -0.084876  -0.115888  0  3.969965  0
C  C31  1  0.38231900  0.29902710  0.96678022  1  -0.056939  0  -0.07846  -0.11096  0  3.939275  0
C  C32  1  0.30935069  0.15505354  0.63575442  1  -0.026818  0  -0.008693  -0.070254  0  3.969598  0
C  C33  1  0.73477412  0.86452860  0.39308745  1  0.038609  0  -0.00838  -0.065714  0  3.960586  0
C  C34  1  0.32880908  0.23901469  0.60249210  1  0.46513  0  0.070038  0.087761  0  3.908016  0
C  C35  1  0.70292230  0.77358147  0.41789721  1  0.45078  0  0.068766  0.081957  0  3.89319  0
C  C36  1  0.46815039  0.20127481  0.50431955  1  0.553826  0  0.085309  0.102269  0  3.848738  0
C  C37  1  0.54431012  0.80076275  0.50071259  1  0.51872  0  0.081108  0.092144  0  3.85417  0
C  C38  1  0.45609732  0.11372113  0.53232354  1  0.051529  0  0.00856  -0.010354  0  3.94292  0
C  C39  1  0.57100369  0.89645755  0.48312117  1  -0.015253  0  0.007156  -0.012562  0  3.951446  0
C  C40  1  0.37101004  0.08727324  0.59860954  1  -0.013528  0  0.024475  0.099015  0  3.932456  0
C  C41  1  0.66730529  0.92903010  0.42526490  1  0.040802  0  0.024687  0.09697  0  3.933371  0
C  C42  1  0.52649016  0.05150309  0.49537136  1  -0.031892  0  0.008683  0.040353  0  3.96745  0
C  C43  1  0.50219038  0.95965561  0.52085692  1  0.050292  0  0.008907  0.042249  0  3.969562  0
C  C44  1  0.28313042  0.49915339  0.49965345  1  1.661588  0  0.218711  0.656789  0  4.253034  0
C  C45  1  0.72049621  0.49890419  0.49646777  1  1.672865  0  0.224805  0.661233  0  4.237578  0
C  C46  1  0.41310796  0.93360610  0.58469753  1  -0.065851  0  -0.065501  -0.091296  0  3.960592  0
C  C47  1  0.62146296  0.08072449  0.43595683  1  -0.103328  0  -0.065786  -0.09618  0  3.956843  0
C  C48  1  0.35133513  0.99543596  0.62378207  1  0.033683  0  -0.075862  -0.117262  0  3.950972  0
C  C49  1  0.69053419  0.02299625  0.40267726  1  -0.032773  0  -0.073862  -0.114021  0  3.938533  0
C  C50  1  0.16157324  0.49902483  0.49912481  1  0.260369  0  -0.019988  -0.153214  0  3.877117  0
C  C51  1  0.84223377  0.49951803  0.49708065  1  0.253498  0  -0.008975  -0.129346  0  3.85443  0
C  C52  1  0.05862131  0.49916360  0.49848087  1  -0.373138  0  -0.018333  0.020995  0  4.260714  0
C  C53  1  0.94505330  0.49917907  0.49771792  1  -0.359605  0  -0.018502  0.013266  0  4.253792  0
C  C54  1  0.49819466  0.59322873  0.76035665  1  0.11719  0  0.004465  0.00736  0  3.922661  0
C  C55  1  0.46446224  0.39878765  0.23526232  1  -0.067242  0  0.002495  -0.002853  0  3.91258  0
C  C56  1  0.45579384  0.70609836  0.88505076  1  -0.152469  0  -0.002872  -0.10732  0  3.910956  0
C  C57  1  0.38422159  0.26160486  0.11153241  1  -0.267505  0  -0.00418  -0.117769  0  3.928835  0
C  C58  1  0.47059207  0.68025572  0.79728957  1  -0.030788  0  -0.072307  -0.098559  0  3.938663  0
C  C59  1  0.40612314  0.29535315  0.19885457  1  0.148435  0  -0.071004  -0.096594  0  3.956745  0
C  C60  1  0.50650989  0.53124817  0.81227035  1  -0.181891  0  -0.004063  -0.151994  0  3.853198  0
C  C61  1  0.49598426  0.46781029  0.18215647  1  -0.161454  0  0.004423  -0.128426  0  3.818245  0
C  C62  1  0.47143077  0.54676121  0.90016483  1  0.053146  0  0.008586  0.030782  0  3.917517  0
C  C63  1  0.45359819  0.43682735  0.09538873  1  0.077547  0  0.008903  0.033112  0  3.900145  0
C  C64  1  0.23203096  0.14804711  0.71260872  1  0.949298  0  0.104943  0.2781  0  3.981889  0
C  C65  1  0.83519832  0.88371167  0.33106769  1  0.968236  0  0.10342  0.272508  0  3.98063  0
S  S66  1  0.61621192  0.58869174  0.22032133  1  3.054683  0  0.544337  1.153584  0  5.948802  0
S  S67  1  0.59395403  0.45116471  0.76726736  1  3.061572  0  0.549755  1.15483  0  5.94003  0
S  S68  1  0.44206519  0.82522174  0.93478629  1  3.052637  0  0.541337  1.155785  0  5.996321  0
S  S69  1  0.31984410  0.12880001  0.06630360  1  3.06382  0  0.544934  1.155219  0  6.003714  0
N  N70  1  0.40521386  0.26072758  0.53697463  1  -1.2505  0  -0.326388  -0.203918  0  3.54764  0
N  N71  1  0.60798896  0.74165094  0.46945591  1  -1.263999  0  -0.325751  -0.194213  0  3.548273  0
O  O72  1  0.56323932  0.63850684  0.62621304  1  -1.158165  0  -0.308077  -0.518299  0  2.266834  0
O  O73  1  0.47243523  0.35920353  0.37004234  1  -1.155063  0  -0.312907  -0.529134  0  2.277849  0
O  O74  1  0.45744027  0.47447406  0.62940184  1  -1.163693  0  -0.309265  -0.556432  0  2.376587  0
O  O75  1  0.49706828  0.52004986  0.36698174  1  -1.156592  0  -0.302584  -0.542331  0  2.390023  0
O  O76  1  0.36778440  0.58524268  0.51252034  1  -1.139941  0  -0.30891  -0.540396  0  2.274608  0
O  O77  1  0.63668483  0.42010515  0.51027947  1  -1.137712  0  -0.302349  -0.533478  0  2.290641  0
O  O78  1  0.29401082  0.41308635  0.48730534  1  -1.126215  0  -0.310335  -0.527309  0  2.249972  0
O  O79  1  0.70860589  0.57720491  0.48197541  1  -1.13064  0  -0.301515  -0.519409  0  2.270162  0
O  O80  1  0.57005863  0.66854270  0.25645249  1  -1.289587  0  -0.307371  -0.537623  0  2.186672  0
O  O81  1  0.70301411  0.57024289  0.26503877  1  -1.271363  0  -0.295979  -0.493549  0  2.137486  0
O  O82  1  0.68505118  0.61155496  0.13245471  1  -1.196279  0  -0.364436  -0.527928  0  2.163772  0
O  O83  1  0.52027495  0.34737605  0.73550569  1  -1.292007  0  -0.293071  -0.505697  0  2.20043  0
O  O84  1  0.68653233  0.50642553  0.71577532  1  -1.280543  0  -0.298526  -0.512439  0  2.140972  0
O  O85  1  0.65993250  0.45199112  0.85229369  1  -1.175897  0  -0.351923  -0.529015  0  2.162167  0
O  O86  1  0.32441622  0.81036659  0.97307727  1  -1.287191  0  -0.320736  -0.54646  0  2.086702  0
O  O87  1  0.54935628  0.88476028  0.98552093  1  -1.270099  0  -0.307492  -0.511795  0  2.08189  0
O  O88  1  0.44654842  0.87173107  0.85197392  1  -1.198063  0  -0.352066  -0.531129  0  2.124425  0
O  O89  1  0.19403999  0.10484175  0.05114861  1  -1.260205  0  -0.297906  -0.491872  0  2.077697  0
O  O90  1  0.39705881  0.09976791  0.99914458  1  -1.292813  0  -0.319861  -0.553159  0  2.11101  0
O  O91  1  0.32823632  0.08071872  0.14565090  1  -1.181837  0  -0.352106  -0.526706  0  2.127348  0
O  O92  1  0.21273767  0.08607690  0.75701317  1  -1.054007  0  -0.255159  -0.342218  0  2.107717  0
O  O93  1  0.87646655  0.95796849  0.29960908  1  -1.071812  0  -0.255455  -0.341212  0  2.10843  0
