# generated using pymatgen
data_MnFeH18C30S2N2(OF3)4
_symmetry_space_group_name_H-M   'P 1'
_cell_length_a   8.49082486
_cell_length_b   10.16802646
_cell_length_c   10.68284122
_cell_angle_alpha   95.42925380
_cell_angle_beta   112.47678952
_cell_angle_gamma   98.52857573
_symmetry_Int_Tables_number   1
_chemical_formula_structural   MnFeH18C30S2N2(OF3)4
_chemical_formula_sum   'Mn1 Fe1 H18 C30 S2 N2 O4 F12'
_cell_volume   831.18056280
_cell_formula_units_Z   1
loop_
 _symmetry_equiv_pos_site_id
 _symmetry_equiv_pos_as_xyz
  1  'x, y, z'
loop_
 _atom_site_type_symbol
 _atom_site_label
 _atom_site_symmetry_multiplicity
 _atom_site_fract_x
 _atom_site_fract_y
 _atom_site_fract_z
 _atom_site_occupancy
 _atom_site_hle17_ddec_charge
 _atom_site_hle17_ddec_spin_density
 _atom_site_hle17_ddec_sum_bond_order
 _atom_site_hle17_magmom
 _atom_site_hse06_10hf_ddec_charge
 _atom_site_hse06_10hf_ddec_spin_density
 _atom_site_hse06_10hf_ddec_sum_bond_order
 _atom_site_hse06_10hf_magmom
 _atom_site_hse06_ddec_charge
 _atom_site_hse06_ddec_spin_density
 _atom_site_hse06_ddec_sum_bond_order
 _atom_site_hse06_magmom
 _atom_site_pbe_cm5_charge
 _atom_site_pbe_ddec_charge
 _atom_site_pbe_ddec_spin_density
 _atom_site_pbe_ddec_sum_bond_order
 _atom_site_pbe_magmom
Mn  Mn0  1  0.50000014  0.49999969  0.00000024  1  1.081614  4.777688  1.893378  4.656  0.930656  4.681109  2.384745  4.49  0.979315  4.739512  2.321001  4.571  0.624618  0.897178  4.612878  2.430676  4.4
Fe  Fe1  1  0.00000031  0.99999697  0.50000011  1  0.095559  5.8e-05  3.598161  0.0  0.198629  0.000102  4.003114  0.0  0.205499  -3.1e-05  3.988311  0.0  0.522325  0.200998  0.000409  4.006813  0.0
H  H2  1  0.66246167  0.51212503  0.32045503  1  0.075359  9.4e-05  0.95136  0.0  0.078858  0.000528  1.023941  0.0  0.082012  0.000361  1.020521  0.0  0.111772  0.076923  0.000708  1.025906  0.001
H  H3  1  0.33752999  0.48787416  0.67954234  1  0.075394  9.5e-05  0.951345  0.0  0.078886  0.000529  1.023928  0.0  0.082036  0.000362  1.020503  0.0  0.111776  0.076951  0.000708  1.025892  0.001
H  H4  1  0.60464489  0.40328144  0.50092773  1  0.107029  0.00018  0.977332  0.0  0.111252  0.000187  1.048183  0.0  0.115571  0.000138  1.045576  0.0  0.095209  0.108445  0.000267  1.049978  0.0
H  H5  1  0.39535461  0.59671367  0.49906985  1  0.107076  0.000176  0.977284  0.0  0.111282  0.000187  1.048155  0.0  0.115835  0.000138  1.045045  0.0  0.095242  0.108474  0.000267  1.049952  0.0
H  H6  1  0.17283433  0.12668405  0.17746296  1  0.118125  0.000215  0.958947  0.0  0.125183  0.000247  1.022919  0.0  0.128767  0.000185  1.021886  0.0  0.101518  0.12273  0.000272  1.023793  0.0
H  H7  1  0.82716490  0.87331010  0.82254008  1  0.118206  0.000204  0.958923  0.0  0.125272  0.000246  1.022874  0.0  0.128856  0.000185  1.02183  0.0  0.101553  0.122816  0.000272  1.023751  0.0
H  H8  1  0.24993502  0.24542881  0.00986036  1  0.083731  3.1e-05  0.934571  0.0  0.093037  0.000451  0.997066  0.0  0.095624  0.000285  0.994524  0.0  0.117783  0.091419  0.000602  0.99856  0.001
H  H9  1  0.75005811  0.75456636  0.99013995  1  0.083707  3.7e-05  0.934548  0.0  0.093022  0.000452  0.997043  0.0  0.095617  0.000285  0.994477  0.0  0.117776  0.091404  0.000602  0.998538  0.001
H  H10  1  0.16441273  0.88395471  0.34782448  1  0.124427  3e-06  0.958019  0.0  0.13295  6e-06  1.02367  0.0  0.13718  7e-06  1.020239  0.0  0.100008  0.13033  -1e-06  1.025637  0.0
H  H11  1  0.83558731  0.11604241  0.65217343  1  0.124428  -1e-06  0.958039  0.0  0.132952  5e-06  1.02368  0.0  0.136702  7e-06  1.020941  0.0  0.100029  0.13033  -1e-06  1.025647  0.0
H  H12  1  0.81180303  0.81566804  0.25260306  1  0.123217  -0.000306  0.94626  0.0  0.135083  -0.00037  1.00655  0.0  0.138642  -0.000373  1.00433  0.0  0.107704  0.132682  -0.000348  1.008016  0.0
H  H13  1  0.18819447  0.18432905  0.74739032  1  0.12321  -0.000309  0.946157  0.0  0.135069  -0.00037  1.006472  0.0  0.138611  -0.000373  1.004273  0.0  0.10768  0.132668  -0.000348  1.007937  0.0
H  H14  1  0.69228760  0.04138514  0.29233023  1  0.120323  2e-06  0.939335  0.0  0.134824  -1e-06  0.991765  0.0  0.138052  -2e-06  0.990353  0.0  0.105955  0.132436  4e-06  0.99308  0.0
H  H15  1  0.30771143  0.95861300  0.70766838  1  0.120323  0.0  0.939428  0.0  0.134824  -1e-06  0.991851  0.0  0.138052  -2e-06  0.99043  0.0  0.105962  0.132435  4e-06  0.993166  0.0
H  H16  1  0.97005609  0.24959432  0.41348450  1  0.124059  -1e-05  0.954912  0.0  0.136228  -1.6e-05  1.014102  0.0  0.139822  -1.8e-05  1.011597  0.0  0.101254  0.134017  -4e-06  1.015525  0.0
H  H17  1  0.02994468  0.75040082  0.58651721  1  0.124  -1.2e-05  0.955021  0.0  0.136219  -1.6e-05  1.014186  0.0  0.139815  -1.8e-05  1.01168  0.0  0.101245  0.134002  -4e-06  1.015615  0.0
H  H18  1  0.02825866  0.69358355  0.87037570  1  0.135824  -1.4e-05  0.990496  0.0  0.132198  -3.6e-05  1.071811  0.0  0.136889  -4.2e-05  1.072348  0.0  0.094327  0.129176  -1.9e-05  1.071143  0.0
H  H19  1  0.97173807  0.30641569  0.12962979  1  0.135836  -2e-05  0.990448  0.0  0.132213  -3.7e-05  1.071749  0.0  0.136899  -4.2e-05  1.072311  0.0  0.094353  0.129192  -1.9e-05  1.071081  0.0
C  C20  1  0.55697692  0.42471837  0.29246782  1  0.131827  0.002646  3.729599  0.003  0.104426  0.004549  3.981314  0.004  0.112518  0.003915  3.99896  0.004  0.041991  0.099295  0.005052  3.968913  0.004
C  C21  1  0.44301574  0.57527980  0.70752978  1  0.131771  0.002598  3.729784  0.003  0.10437  0.00455  3.981527  0.004  0.112451  0.003917  3.999227  0.004  0.041955  0.099237  0.005053  3.969126  0.004
C  C22  1  0.52481779  0.36369651  0.39318536  1  -0.177364  -0.001299  3.739406  -0.001  -0.196035  -0.000924  3.990378  0.0  -0.204699  -0.0015  4.009935  -0.001  -0.100036  -0.190198  -0.00039  3.976788  0.0
C  C23  1  0.47517943  0.63629964  0.60681441  1  -0.177435  -0.001226  3.739531  0.0  -0.19609  -0.000924  3.990515  0.0  -0.204692  -0.0015  4.009817  -0.001  -0.100048  -0.19025  -0.00039  3.976933  0.0
C  C24  1  0.38318692  0.25515022  0.35450084  1  0.096493  0.002093  3.787331  0.002  0.11043  0.003183  4.043071  0.003  0.118675  0.002903  4.06255  0.003  0.006852  0.105113  0.003518  4.029472  0.003
C  C25  1  0.61680929  0.74484695  0.64549870  1  0.096661  0.00205  3.787165  0.002  0.110622  0.003185  4.042881  0.003  0.118866  0.002904  4.062364  0.003  0.006908  0.105291  0.003519  4.029299  0.003
C  C26  1  0.28320061  0.21097649  0.21364434  1  -0.176445  -0.001126  3.728458  0.0  -0.19774  -0.00069  3.984884  0.0  -0.20567  -0.001299  4.003576  0.0  -0.098348  -0.192563  -0.00011  3.972114  0.0
C  C27  1  0.71679559  0.78902071  0.78635801  1  -0.176669  -0.001  3.72852  0.0  -0.19797  -0.00069  3.984942  0.0  -0.205909  -0.001301  4.003643  0.0  -0.098425  -0.192785  -0.000111  3.972173  0.0
C  C28  1  0.32630971  0.27732707  0.11993244  1  0.139668  0.002458  3.709577  0.003  0.111177  0.004449  3.962406  0.004  0.12005  0.00378  3.978277  0.004  0.04603  0.105527  0.005122  3.951008  0.004
C  C29  1  0.67368141  0.72267011  0.88006554  1  0.139788  0.002375  3.709584  0.003  0.111297  0.004452  3.962428  0.004  0.120176  0.003781  3.978315  0.004  0.04607  0.105645  0.005124  3.951031  0.004
C  C30  1  0.12779713  0.09399881  0.39830990  1  -0.020131  4.4e-05  3.8093  0.0  -0.006153  0.000107  4.085682  0.0  -0.009616  8.7e-05  4.107901  0.0  -0.084241  -0.004886  0.000127  4.071232  0.0
C  C31  1  0.87220162  0.90599837  0.60169229  1  -0.020219  3.8e-05  3.809434  0.0  -0.00625  0.000107  4.085845  0.0  -0.009705  8.9e-05  4.107989  0.0  -0.084285  -0.00498  0.000127  4.071387  0.0
C  C32  1  0.07625723  0.95139427  0.34593092  1  -0.144408  4.8e-05  3.714863  0.0  -0.185096  7.8e-05  3.996995  0.0  -0.187365  6e-05  4.012221  0.0  -0.15625  -0.183701  0.000109  3.986314  0.0
C  C33  1  0.92373973  0.04860084  0.65406588  1  -0.144373  5e-05  3.714881  0.0  -0.185063  7.9e-05  3.997013  0.0  -0.187549  5.8e-05  4.013033  0.0  -0.156276  -0.183668  0.000109  3.986327  0.0
C  C34  1  0.89081452  0.91641417  0.29564518  1  -0.093097  -5.3e-05  3.688502  0.0  -0.122296  -3.1e-05  3.963279  0.0  -0.125769  -4.3e-05  3.980734  0.0  -0.148497  -0.120331  -1.8e-05  3.951201  0.0
C  C35  1  0.10918325  0.08358395  0.70435023  1  -0.093079  -3.4e-05  3.688352  0.0  -0.122278  -3.1e-05  3.963136  0.0  -0.125802  -4.2e-05  3.980669  0.0  -0.148475  -0.120313  -1.8e-05  3.951056  0.0
C  C36  1  0.82747138  0.03626106  0.31682838  1  -0.087364  -1.9e-05  3.703911  0.0  -0.114675  3e-06  3.973301  0.0  -0.117867  -4e-06  3.991323  0.0  -0.147838  -0.113144  2.2e-05  3.961374  0.0
C  C37  1  0.17252993  0.96373606  0.68317085  1  -0.087344  -2.3e-05  3.70386  0.0  -0.114645  4e-06  3.973243  0.0  -0.117839  -4e-06  3.991245  0.0  -0.147836  -0.113114  2.2e-05  3.961314  0.0
C  C38  1  0.97286806  0.14621429  0.38025823  1  -0.150832  2.3e-05  3.717203  0.0  -0.186106  6e-05  3.990678  0.0  -0.189657  4.2e-05  4.008435  0.0  -0.156726  -0.183924  0.000101  3.978204  0.0
C  C39  1  0.02713017  0.85378087  0.61974364  1  -0.150806  2.5e-05  3.717269  0.0  -0.186155  5.9e-05  3.99076  0.0  -0.189704  4.2e-05  4.008508  0.0  -0.156722  -0.183965  0.000101  3.978279  0.0
C  C40  1  0.28496633  0.85704552  0.08018037  1  0.713483  0.001963  3.624278  0.002  0.637588  0.002517  3.96935  0.002  0.665438  0.001819  3.942597  0.002  0.300935  0.617449  0.003289  3.989226  0.003
C  C41  1  0.71503664  0.14296267  0.91981744  1  0.713302  0.001964  3.624567  0.002  0.637263  0.002517  3.96983  0.002  0.665108  0.001824  3.943283  0.002  0.300919  0.617135  0.003289  3.989693  0.003
C  C42  1  0.28694376  0.71157540  0.02372759  1  0.296464  0.007702  3.820528  0.007  0.27215  0.014901  4.096192  0.012  0.297506  0.010517  4.098316  0.009  0.121536  0.254408  0.020838  4.095254  0.016
C  C43  1  0.71305505  0.28842684  0.97627690  1  0.296617  0.00768  3.820688  0.007  0.272375  0.014897  4.096315  0.012  0.297368  0.010511  4.0993  0.009  0.121626  0.254635  0.02083  4.09536  0.016
C  C44  1  0.13683459  0.64284458  0.90976102  1  -0.35303  -0.000439  3.761649  0.0  -0.400053  0.002136  4.048848  0.001  -0.423612  0.001092  4.068998  0.0  -0.152815  -0.384047  0.002923  4.035364  0.001
C  C45  1  0.86316367  0.35715566  0.09024501  1  -0.353144  -0.00039  3.76171  0.0  -0.400192  0.002137  4.048858  0.001  -0.423828  0.001094  4.069226  0.001  -0.152889  -0.384185  0.002924  4.035371  0.001
C  C46  1  0.12218577  0.51398664  0.84261775  1  0.27602  0.007935  3.848295  0.007  0.249773  0.015373  4.126681  0.013  0.273594  0.010637  4.132405  0.009  0.111508  0.233203  0.021677  4.122454  0.017
C  C47  1  0.87781605  0.48601259  0.15739023  1  0.276025  0.007921  3.848377  0.007  0.249813  0.015363  4.126625  0.013  0.274243  0.010634  4.131075  0.009  0.111496  0.23325  0.021666  4.122395  0.017
C  C48  1  0.95272443  0.45377310  0.71600863  1  0.713855  0.002018  3.625376  0.002  0.636764  0.002559  3.97115  0.002  0.666881  0.001815  3.940738  0.002  0.302006  0.616467  0.003361  3.991409  0.002
C  C49  1  0.04728364  0.54623509  0.28399262  1  0.713728  0.002012  3.625602  0.002  0.636869  0.00256  3.970948  0.002  0.66825  0.00181  3.938032  0.002  0.302046  0.616556  0.00336  3.991216  0.002
S  S50  1  0.34123642  0.18669267  0.48550676  1  0.047783  0.000742  2.448402  0.001  0.038165  0.001556  2.763868  0.001  0.034743  0.001121  2.764255  0.001  0.045518  0.041183  0.002265  2.762905  0.002
S  S51  1  0.65876335  0.81330347  0.51449379  1  0.047743  0.000739  2.448414  0.001  0.038121  0.001557  2.763883  0.001  0.034771  0.001121  2.76402  0.001  0.04548  0.041138  0.002266  2.762926  0.002
N  N52  1  0.45984685  0.38354492  0.15683011  1  -0.360335  0.027679  3.24544  0.016  -0.290027  0.031813  3.513039  0.016  -0.309478  0.028093  3.528959  0.013  -0.333046  -0.276144  0.035519  3.501773  0.019
N  N53  1  0.54014272  0.61645128  0.84316918  1  -0.360331  0.027726  3.245508  0.016  -0.290028  0.031811  3.513126  0.016  -0.309491  0.02809  3.529085  0.013  -0.333035  -0.276145  0.035519  3.501861  0.019
O  O54  1  0.42733686  0.67257270  0.08342756  1  -0.466599  0.028923  2.062204  0.019  -0.425579  0.038117  2.312306  0.025  -0.448103  0.033212  2.302265  0.02  -0.26935  -0.409957  0.043897  2.319199  0.03
O  O55  1  0.57266450  0.32742951  0.91657584  1  -0.466606  0.028938  2.062302  0.019  -0.425596  0.038116  2.312392  0.025  -0.448246  0.033208  2.302855  0.02  -0.269345  -0.409971  0.043893  2.319279  0.03
O  O56  1  0.23040934  0.43596277  0.87126855  1  -0.496048  0.029073  2.092589  0.017  -0.447629  0.036013  2.352563  0.021  -0.473284  0.032069  2.343696  0.017  -0.278855  -0.429193  0.040325  2.35793  0.025
O  O57  1  0.76959199  0.56403957  0.12874701  1  -0.495986  0.029064  2.092412  0.017  -0.447664  0.036017  2.352453  0.021  -0.473098  0.032076  2.342854  0.017  -0.278804  -0.429226  0.040326  2.357815  0.025
F  F58  1  0.12043586  0.87841670  0.05259693  1  -0.253597  0.000152  1.161809  0.0  -0.203487  0.000274  1.316746  0.0  -0.213032  0.000204  1.302088  0.0  -0.094317  -0.196374  0.000339  1.32683  0.0
F  F59  1  0.87957146  0.12159355  0.94740800  1  -0.253565  0.000153  1.161867  0.0  -0.203461  0.000274  1.316886  0.0  -0.213154  0.000205  1.302486  0.0  -0.094351  -0.196352  0.000339  1.326967  0.0
F  F60  1  0.35915366  0.94771076  0.02237954  1  -0.245646  0.000552  1.16144  0.001  -0.205931  0.001327  1.318572  0.002  -0.215303  0.00083  1.303523  0.001  -0.099984  -0.19911  0.001959  1.329065  0.002
F  F61  1  0.64084593  0.05228929  0.97760909  1  -0.245616  0.00055  1.161517  0.001  -0.205837  0.001325  1.318669  0.002  -0.215247  0.000831  1.30362  0.001  -0.100004  -0.199019  0.001958  1.329158  0.002
F  F62  1  0.37619908  0.88760033  0.21828054  1  -0.245223  -0.000435  1.19361  0.0  -0.212124  -0.000326  1.366599  0.0  -0.221567  -0.000327  1.351814  0.0  -0.09316  -0.204996  -0.000297  1.376641  0.0
F  F63  1  0.62381442  0.11241385  0.78171818  1  -0.245179  -0.000437  1.193636  0.0  -0.212051  -0.000327  1.366684  0.0  -0.221832  -0.00033  1.352314  0.0  -0.093145  -0.204927  -0.000297  1.376722  0.0
F  F64  1  0.85043840  0.54490481  0.66931740  1  -0.248926  0.000543  1.219738  0.001  -0.20019  0.00092  1.384726  0.001  -0.21531  0.000649  1.376168  0.001  -0.083519  -0.192574  0.001237  1.394142  0.001
F  F65  1  0.14957577  0.45510232  0.33068284  1  -0.248824  0.000541  1.219685  0.001  -0.20019  0.000921  1.384593  0.001  -0.214583  0.000646  1.375437  0.001  -0.083504  -0.192566  0.001237  1.394009  0.001
F  F66  1  0.85420910  0.35165510  0.74484925  1  -0.250492  -0.000429  1.155869  0.0  -0.205322  -0.000164  1.312583  0.0  -0.21364  -0.000254  1.296127  0.0  -0.096405  -0.198686  -5e-06  1.323851  0.0
F  F67  1  0.14578848  0.64834696  0.25513706  1  -0.250493  -0.000423  1.155887  0.0  -0.205408  -0.000164  1.312527  0.0  -0.219737  -0.000244  1.302562  0.0  -0.096497  -0.198764  -5e-06  1.323798  0.0
F  F68  1  0.98703892  0.40050578  0.60938876  1  -0.246739  0.000101  1.165445  0.0  -0.206278  0.000603  1.327419  0.001  -0.218384  0.000302  1.314868  0.001  -0.091997  -0.200061  0.001024  1.339094  0.001
F  F69  1  0.01298167  0.59950640  0.39061571  1  -0.246731  0.000101  1.16554  0.0  -0.206242  0.000601  1.327361  0.001  -0.217659  0.0003  1.314329  0.001  -0.091941  -0.200017  0.001023  1.339036  0.001
