# generated using pymatgen
data_CuH22C26(N6O7)2
_symmetry_space_group_name_H-M   'P 1'
_cell_length_a   12.57239610
_cell_length_b   12.83394653
_cell_length_c   12.83600000
_cell_angle_alpha   62.24922240
_cell_angle_beta   68.08874752
_cell_angle_gamma   89.60037143
_symmetry_Int_Tables_number   1
_chemical_formula_structural   CuH22C26(N6O7)2
_chemical_formula_sum   'Cu2 H44 C52 N24 O28'
_cell_volume   1665.05605494
_cell_formula_units_Z   2
loop_
 _symmetry_equiv_pos_site_id
 _symmetry_equiv_pos_as_xyz
  1  'x, y, z'
loop_
 _atom_site_type_symbol
 _atom_site_label
 _atom_site_symmetry_multiplicity
 _atom_site_fract_x
 _atom_site_fract_y
 _atom_site_fract_z
 _atom_site_occupancy
 _atom_site_hle17_ddec_charge
 _atom_site_hle17_ddec_spin_density
 _atom_site_hle17_ddec_sum_bond_order
 _atom_site_hle17_magmom
 _atom_site_hse06_10hf_ddec_charge
 _atom_site_hse06_10hf_ddec_spin_density
 _atom_site_hse06_10hf_ddec_sum_bond_order
 _atom_site_hse06_10hf_magmom
 _atom_site_hse06_ddec_charge
 _atom_site_hse06_ddec_spin_density
 _atom_site_hse06_ddec_sum_bond_order
 _atom_site_hse06_magmom
 _atom_site_pbe_bader_charge
 _atom_site_pbe_bader_spin_density
 _atom_site_pbe_cm5_charge
 _atom_site_pbe_ddec_charge
 _atom_site_pbe_ddec_spin_density
 _atom_site_pbe_ddec_sum_bond_order
 _atom_site_pbe_magmom
Cu  Cu0  1  0.72322321  0.01204208  0.24542653  1  0.889316  0.69812  1.830698  0.529  0.863423  0.781168  2.233057  0.637  0.950678  0.84397  2.163425  0.721  1.105609  0.579498  0.767742  0.80727  0.734148  2.284204  0.579
Cu  Cu1  1  0.27677814  0.98795923  0.75457338  1  0.889249  0.698096  1.830731  0.529  0.863437  0.781158  2.23307  0.637  0.950641  0.843975  2.163426  0.721  1.105697  0.579501  0.767748  0.807266  0.734144  2.284212  0.579
H  H2  1  0.92191224  0.42095384  0.19283046  1  0.131225  -6e-05  0.929873  0.0  0.136387  1.2e-05  0.992724  0.0  0.141073  8e-06  0.988729  0.0  0.135482  0.000101  0.118742  0.132946  1.8e-05  0.995689  0.0
H  H3  1  0.07809307  0.57905016  0.80716519  1  0.131245  -5.9e-05  0.929731  0.0  0.136409  1.2e-05  0.992583  0.0  0.141098  8e-06  0.988584  0.0  0.132064  0.000106  0.118721  0.132967  1.8e-05  0.995549  0.0
H  H4  1  0.79720398  0.71904829  0.96062774  1  0.154308  -4.8e-05  0.936842  0.0  0.153131  -9e-06  1.0095  0.0  0.158362  -8e-06  1.004413  0.0  0.175296  -4e-06  0.127184  0.149265  -9e-06  1.013295  0.0
H  H5  1  0.20279961  0.28095571  0.03936932  1  0.154331  -3.5e-05  0.936902  0.0  0.153183  -9e-06  1.009525  0.0  0.158414  -7e-06  1.004432  0.0  0.175358  -4e-06  0.127194  0.149319  -9e-06  1.013316  0.0
H  H6  1  0.69283530  0.36023811  0.03860044  1  0.144745  7.5e-05  0.924065  0.0  0.145565  9.3e-05  0.993233  0.0  0.150947  4.7e-05  0.987435  0.0  0.161464  0.000166  0.126532  0.141592  0.000153  0.997503  0.0
H  H7  1  0.30716537  0.63976410  0.96140086  1  0.144766  7.9e-05  0.924063  0.0  0.145549  9.4e-05  0.993277  0.0  0.150931  4.7e-05  0.987476  0.0  0.161397  0.000167  0.126539  0.141576  0.000154  0.99755  0.0
H  H8  1  0.01055366  0.19330806  0.50176073  1  0.08024  8e-06  0.924608  0.0  0.099421  8e-06  0.97973  0.0  0.100957  1e-05  0.979344  0.0  0.040333  -5e-06  0.093411  0.098278  6e-06  0.980104  0.0
H  H9  1  0.98944630  0.80669055  0.49823939  1  0.080207  1.2e-05  0.924619  0.0  0.099387  8e-06  0.979746  0.0  0.100926  1e-05  0.97934  0.0  0.040311  -5e-06  0.093391  0.098244  6e-06  0.980122  0.0
H  H10  1  0.88719652  0.11201325  0.51812564  1  0.064766  -2e-06  0.952956  0.0  0.076618  2e-06  1.027826  0.0  0.077974  3e-06  1.027352  0.0  0.040397  -1.2e-05  0.08362  0.075548  -2e-06  1.028347  0.0
H  H11  1  0.11280343  0.88798536  0.48187526  1  0.064765  2e-06  0.952932  0.0  0.076609  2e-06  1.027814  0.0  0.077962  3e-06  1.027334  0.0  0.040407  -1.2e-05  0.083616  0.075539  -1e-06  1.028337  0.0
H  H12  1  0.04520895  0.12430351  0.70824164  1  0.310215  -7e-06  0.957689  0.0  0.281824  -6e-05  1.040357  0.0  0.291564  -0.000106  1.031609  0.0  0.572929  0.00013  0.306481  0.274812  5e-06  1.046406  0.0
H  H13  1  0.95479236  0.87569330  0.29176038  1  0.310228  -7e-06  0.957663  0.0  0.281823  -6e-05  1.040336  0.0  0.291438  -0.000106  1.031919  0.0  0.572933  0.00013  0.306498  0.274812  5e-06  1.046385  0.0
H  H14  1  0.29622908  0.07164100  0.25428212  1  0.30646  -5.5e-05  0.930376  0.0  0.280879  -2.6e-05  1.008639  0.0  0.289507  -2.6e-05  1.000673  0.0  0.539046  -3e-05  0.317209  0.274815  -2.4e-05  1.013824  0.0
H  H15  1  0.70377191  0.92835850  0.74571798  1  0.306426  -5.6e-05  0.930419  0.0  0.280852  -2.6e-05  1.008653  0.0  0.289481  -2.6e-05  1.000701  0.0  0.539026  -3e-05  0.317212  0.274789  -2.4e-05  1.013839  0.0
H  H16  1  0.46743554  0.25608836  0.26783662  1  0.13113  0.000438  0.922266  0.001  0.138149  0.000376  0.985556  0.0  0.141422  0.000281  0.980066  0.0  0.198517  0.000784  0.149692  0.135602  0.000444  0.989258  0.0
H  H17  1  0.53256477  0.74391205  0.73216098  1  0.131151  0.000435  0.922272  0.001  0.138171  0.000376  0.985568  0.0  0.141444  0.000281  0.980076  0.0  0.198381  0.000784  0.149697  0.135622  0.000444  0.989271  0.0
H  H18  1  0.48128993  0.81147159  0.19839883  1  0.066995  -6e-06  0.954351  0.0  0.08408  -7e-06  1.01758  0.0  0.085058  -4e-06  1.017325  0.0  0.026314  -7e-06  0.085934  0.083332  -1e-05  1.01789  0.0
H  H19  1  0.51870746  0.18852702  0.80160301  1  0.067016  -1.2e-05  0.954343  0.0  0.084092  -7e-06  1.017578  0.0  0.085071  -4e-06  1.017323  0.0  0.026334  -8e-06  0.085932  0.083343  -1.1e-05  1.017888  0.0
H  H20  1  0.60817166  0.92600890  0.08722958  1  0.074942  -2.6e-05  0.937233  0.0  0.091432  3e-06  1.000661  0.0  0.092349  -7e-06  1.001178  0.0  0.038361  1.3e-05  0.089354  0.090655  1.1e-05  1.000495  0.0
H  H21  1  0.39182658  0.07398971  0.91277117  1  0.074929  -3e-05  0.937253  0.0  0.091414  3e-06  1.000691  0.0  0.09233  -7e-06  1.0012  0.0  0.038331  1.2e-05  0.089344  0.090635  1.1e-05  1.000524  0.0
H  H22  1  0.43561791  0.17799739  0.01761419  1  0.078403  1.1e-05  0.942598  0.0  0.09456  8e-06  1.005663  0.0  0.096069  5e-06  1.005279  0.0  0.024705  1.3e-05  0.089218  0.093504  1e-05  1.006  0.0
H  H23  1  0.56437965  0.82200211  0.98238639  1  0.078417  8e-06  0.942573  0.0  0.094577  7e-06  1.005637  0.0  0.096087  5e-06  1.005256  0.0  0.024721  1.3e-05  0.089205  0.093515  1e-05  1.005981  0.0
H  H24  1  0.57995449  0.15221286  0.97598739  1  0.072306  -3e-06  0.944909  0.0  0.089052  -6e-06  1.007912  0.0  0.090136  -3e-06  1.008351  0.0  0.024173  -6e-06  0.087538  0.088194  -7e-06  1.007755  0.0
H  H25  1  0.42004478  0.84778665  0.02401333  1  0.072325  -6e-06  0.944853  0.0  0.089068  -6e-06  1.007868  0.0  0.090151  -3e-06  1.008295  0.0  0.024162  -7e-06  0.087544  0.088209  -7e-06  1.00771  0.0
H  H26  1  0.81526637  0.54432308  0.47545519  1  0.142503  -2.6e-05  0.915687  0.0  0.146992  2e-06  0.977533  0.0  0.152284  -1e-06  0.971894  0.0  0.166336  7.6e-05  0.126612  0.14308  9e-06  0.98172  0.0
H  H27  1  0.18473134  0.45567283  0.52454545  1  0.142516  -2.3e-05  0.915593  0.0  0.147001  2e-06  0.977445  0.0  0.152293  -2e-06  0.971807  0.0  0.166296  7.6e-05  0.126601  0.143091  9e-06  0.981634  0.0
H  H28  1  0.59061826  0.33098536  0.42763246  1  0.156287  -2.7e-05  0.927524  0.0  0.154256  -2e-06  1.000393  0.0  0.159937  -7e-06  0.994907  0.0  0.208637  1.3e-05  0.129881  0.150096  8e-06  1.004415  0.0
H  H29  1  0.40937605  0.66901505  0.57236733  1  0.156224  -2.2e-05  0.927536  0.0  0.154172  -2e-06  1.000446  0.0  0.159853  -7e-06  0.99496  0.0  0.208711  1.3e-05  0.129876  0.150013  8e-06  1.004467  0.0
H  H30  1  0.85482363  0.87109210  0.64212602  1  0.063332  -1.3e-05  0.951148  0.0  0.07747  -1.2e-05  1.019405  0.0  0.078798  -9e-06  1.019202  0.0  0.021848  -1.1e-05  0.086512  0.076555  -1.6e-05  1.01942  0.0
H  H31  1  0.14517632  0.12890651  0.35787410  1  0.063324  -5e-06  0.951141  0.0  0.077477  -1.1e-05  1.019424  0.0  0.078817  -8e-06  1.019181  0.0  0.021845  -1.1e-05  0.086516  0.07656  -1.6e-05  1.019447  0.0
H  H32  1  0.95802673  0.80635065  0.70345756  1  0.085423  2.8e-05  0.937877  0.0  0.105631  3.1e-05  0.994296  0.0  0.106839  2.6e-05  0.994358  0.0  0.053455  2.1e-05  0.092127  0.104724  3.7e-05  0.994352  0.0
H  H33  1  0.04197236  0.19364796  0.29654287  1  0.08544  3.7e-05  0.937838  0.0  0.105672  3.1e-05  0.994259  0.0  0.106876  2.6e-05  0.994319  0.0  0.053451  2.1e-05  0.092147  0.104765  3.7e-05  0.994315  0.0
H  H34  1  0.88246309  0.93381125  0.04079280  1  0.131506  -0.000218  0.955151  0.0  0.136455  -0.000199  1.023466  0.0  0.139568  -0.000172  1.018571  0.0  0.22501  -3.8e-05  0.146382  0.133859  -0.000215  1.026866  0.0
H  H35  1  0.11753858  0.06618736  0.95920824  1  0.131475  -0.000219  0.955179  0.0  0.136438  -0.000199  1.023501  0.0  0.139477  -0.000173  1.018875  0.0  0.225037  -3.8e-05  0.146389  0.133841  -0.000215  1.026903  0.0
H  H36  1  0.25804072  0.91006340  0.55589553  1  0.127724  -0.000106  0.940646  0.0  0.135611  -8.3e-05  1.004969  0.0  0.138184  -7.1e-05  1.00076  0.0  0.192497  0.000139  0.149317  0.133481  -8.7e-05  1.007801  0.0
H  H37  1  0.74195788  0.08993701  0.44410658  1  0.127694  -0.000101  0.940669  0.0  0.135598  -8.3e-05  1.004969  0.0  0.13817  -7.1e-05  1.000758  0.0  0.192413  0.000139  0.149302  0.13347  -8.7e-05  1.0078  0.0
H  H38  1  0.60490521  0.71374212  0.26940739  1  0.142331  0.000151  0.937368  0.0  0.146038  0.000114  1.003275  0.0  0.150539  6.9e-05  0.999153  0.0  0.157189  0.000184  0.125385  0.142742  0.000159  1.006234  0.0
H  H39  1  0.39509460  0.28626009  0.73059423  1  0.142301  0.000146  0.937406  0.0  0.145983  0.000114  1.003333  0.0  0.150484  6.9e-05  0.999211  0.0  0.156062  0.000184  0.12536  0.142688  0.000159  1.006288  0.0
H  H40  1  0.35450935  0.96052826  0.15367401  1  0.078575  -1.2e-05  0.933317  0.0  0.087547  -1.2e-05  0.996509  0.0  0.089974  -1.1e-05  0.995914  0.0  0.050299  -8e-06  0.101268  0.085762  -1.1e-05  0.997227  0.0
H  H41  1  0.64548821  0.03947125  0.84632734  1  0.078562  -4e-06  0.933331  0.0  0.087523  -1.1e-05  0.996515  0.0  0.089955  -1.1e-05  0.995911  0.0  0.05034  -8e-06  0.10126  0.085739  -1.1e-05  0.997232  0.0
H  H42  1  0.07478498  0.00546443  0.61170701  1  0.076211  -0.000194  0.930595  0.0  0.085425  -0.000185  0.995626  0.0  0.086786  -0.00018  0.995765  0.0  0.067894  -8.6e-05  0.102904  0.084283  -0.000178  0.995956  0.0
H  H43  1  0.92521412  0.99453418  0.38829342  1  0.076193  -0.000194  0.930606  0.0  0.085417  -0.000185  0.995605  0.0  0.086776  -0.00018  0.995702  0.0  0.067889  -8.6e-05  0.102894  0.084275  -0.000179  0.995934  0.0
H  H44  1  0.85733640  0.26647051  0.75791165  1  0.130362  0.000297  0.920505  0.0  0.141803  0.000257  0.976202  0.0  0.144229  0.000209  0.972122  0.0  0.198489  0.000539  0.151877  0.139734  0.000288  0.979021  0.0
H  H45  1  0.14266405  0.73352630  0.24208912  1  0.130348  0.000298  0.920508  0.0  0.141818  0.000257  0.976173  0.0  0.144175  0.000209  0.972337  0.0  0.198468  0.000539  0.151859  0.139749  0.000288  0.978993  0.0
C  C46  1  0.86433308  0.57627343  0.07951540  1  0.065848  0.000457  3.703011  0.001  0.06318  0.000251  3.962925  0.0  0.057542  7.2e-05  3.987528  0.0  0.207081  0.000748  0.076618  0.0665  0.000419  3.946496  0.0
C  C47  1  0.13567119  0.42372967  0.92048027  1  0.06588  0.000533  3.702889  0.001  0.063168  0.000247  3.962873  0.0  0.057526  7.8e-05  3.987479  0.0  0.206949  0.000749  0.076583  0.066487  0.000419  3.946445  0.0
C  C48  1  0.86954563  0.45467741  0.13747437  1  -0.08689  0.001319  3.677398  0.001  -0.127299  0.001612  3.934105  0.002  -0.124931  0.000969  3.953029  0.001  -0.016585  0.004093  -0.063756  -0.128514  0.002558  3.92142  0.003
C  C49  1  0.13046054  0.54532659  0.86252097  1  -0.086868  0.001253  3.677455  0.001  -0.127254  0.001613  3.934125  0.002  -0.124891  0.000966  3.953061  0.001  -0.013021  0.004088  -0.063717  -0.128464  0.002557  3.921438  0.003
C  C50  1  0.74038384  0.54317661  0.99244593  1  0.072623  -0.0004  3.685968  0.0  0.06999  -0.000156  3.939842  0.0  0.064611  -0.000227  3.963037  0.0  0.150713  0.000156  0.080308  0.073086  -1.3e-05  3.924325  0.0
C  C51  1  0.25962025  0.45682560  0.00755178  1  0.072763  -0.00029  3.685936  0.0  0.070105  -0.000154  3.939872  0.0  0.064726  -0.000227  3.963066  0.0  0.150324  0.000156  0.080356  0.0732  -1.4e-05  3.924354  0.0
C  C52  1  0.80030562  0.62387794  0.00568692  1  -0.106428  0.000521  3.647123  0.001  -0.148256  0.000629  3.911533  0.001  -0.144361  0.000412  3.926219  0.0  0.064045  0.001462  -0.059914  -0.150448  0.000937  3.901729  0.001
C  C53  1  0.19969969  0.37612606  0.99430795  1  -0.106512  0.000421  3.647099  0.0  -0.148376  0.000631  3.911583  0.001  -0.144484  0.000408  3.926275  0.0  0.064144  0.001463  -0.059925  -0.150568  0.000937  3.901778  0.001
C  C54  1  0.70594910  0.42866987  0.45842269  1  0.071246  0.000638  3.695949  0.001  0.065045  0.000255  3.95958  0.0  0.059846  0.000161  3.982001  0.0  0.181593  0.000568  0.080174  0.068036  0.000334  3.944556  0.0
C  C55  1  0.29404864  0.57133053  0.54157350  1  0.071216  0.000651  3.695909  0.001  0.064908  0.000256  3.959696  0.0  0.059695  0.000163  3.982136  0.0  0.181694  0.000569  0.080156  0.067902  0.000336  3.944669  0.0
C  C56  1  0.74113740  0.42073084  0.05068285  1  -0.047759  -0.000377  3.620478  0.0  -0.090175  0.0001  3.875802  0.0  -0.084044  9.1e-05  3.888485  0.0  0.08165  0.000162  -0.049262  -0.09382  2e-06  3.867354  0.0
C  C57  1  0.25886652  0.57927046  0.94931768  1  -0.047711  -0.000478  3.62044  0.0  -0.090098  0.0001  3.875782  0.0  -0.083965  8.6e-05  3.88846  0.0  0.081691  0.000161  -0.049232  -0.093743  2e-06  3.867335  0.0
C  C58  1  0.97904084  0.11197459  0.50446800  1  -0.114539  1.9e-05  3.64527  0.0  -0.159725  2.2e-05  3.904532  0.0  -0.160542  1.4e-05  3.918112  0.0  -0.036027  2.9e-05  -0.162669  -0.158953  2.8e-05  3.895084  0.0
C  C59  1  0.02095912  0.88802402  0.49553212  1  -0.114434  -1.1e-05  3.645206  0.0  -0.159657  2e-05  3.904447  0.0  -0.160475  1.6e-05  3.917984  0.0  -0.036009  2.8e-05  -0.162648  -0.158881  2.7e-05  3.894991  0.0
C  C60  1  0.80583509  0.37620699  0.12456245  1  -0.020959  0.009918  3.697213  0.011  0.00469  0.005629  3.93073  0.007  -0.00435  0.003684  3.95128  0.005  0.016821  0.010646  -0.002742  0.010148  0.007192  3.917288  0.008
C  C61  1  0.19416987  0.62379522  0.87543417  1  -0.021124  0.009977  3.697432  0.011  0.004551  0.005628  3.930903  0.007  -0.004492  0.003687  3.951455  0.005  0.016825  0.010646  -0.002797  0.010008  0.007193  3.917463  0.008
C  C62  1  0.76819502  0.76348133  0.33835488  1  0.651707  -0.00277  3.90886  -0.003  0.599556  0.001564  4.220735  0.001  0.637862  0.000652  4.211887  0.001  1.627657  0.002542  0.211125  0.573435  0.002655  4.225888  0.001
C  C63  1  0.23180562  0.23651638  0.66164697  1  0.651633  -0.00279  3.908977  -0.003  0.599518  0.001565  4.220837  0.001  0.637826  0.000652  4.212005  0.001  1.627696  0.002541  0.211127  0.573396  0.002654  4.22599  0.001
C  C64  1  0.71562574  0.64156070  0.36919491  1  -0.031014  0.007793  3.689205  0.009  -0.007157  0.004579  3.928896  0.005  -0.017874  0.003175  3.951039  0.004  0.035539  0.008592  -0.005248  -0.000777  0.005795  3.914706  0.006
C  C65  1  0.28437439  0.35843881  0.63080473  1  -0.031062  0.00781  3.689368  0.009  -0.007201  0.004577  3.929014  0.005  -0.017922  0.003179  3.951164  0.004  0.035556  0.008594  -0.005271  -0.000823  0.005796  3.914827  0.006
C  C66  1  0.41786746  0.17858907  0.36227787  1  0.153549  0.002591  3.605948  0.004  0.081713  0.001628  3.880224  0.003  0.103535  0.001168  3.891916  0.002  0.994151  0.002622  0.168567  0.073736  0.002034  3.874892  0.003
C  C67  1  0.58213114  0.82141134  0.63772191  1  0.153458  0.002611  3.605964  0.004  0.081614  0.001627  3.880237  0.003  0.103441  0.001167  3.891925  0.002  0.994438  0.002622  0.168536  0.07364  0.002035  3.874903  0.003
C  C68  1  0.51649553  0.89862918  0.10811365  1  -0.111633  5e-06  3.675938  0.0  -0.155813  2.3e-05  3.932704  0.0  -0.156072  8e-06  3.946421  0.0  -0.012588  4.3e-05  -0.167921  -0.155431  3.2e-05  3.923235  0.0
C  C69  1  0.48350307  0.10137123  0.89188691  1  -0.111667  3.2e-05  3.675997  0.0  -0.15587  2.4e-05  3.93277  0.0  -0.15613  9e-06  3.946482  0.0  -0.01254  4.4e-05  -0.167933  -0.155488  3.3e-05  3.923305  0.0
C  C70  1  0.48956190  0.11462633  0.00167843  1  -0.11492  -4.1e-05  3.640166  0.0  -0.158235  -2e-05  3.894309  0.0  -0.158949  -2e-05  3.907631  0.0  0.019783  1.1e-05  -0.16419  -0.157567  -7e-06  3.885105  0.0
C  C71  1  0.51043773  0.88537498  0.99832055  1  -0.114998  -1.4e-05  3.640143  0.0  -0.158322  -1.9e-05  3.894234  0.0  -0.159036  -1.8e-05  3.907553  0.0  0.019781  1.2e-05  -0.164209  -0.157649  -7e-06  3.885035  0.0
C  C72  1  0.80696597  0.24345461  0.18969484  1  0.616986  -0.008058  3.943613  -0.008  0.574607  -0.001474  4.251554  -0.002  0.611663  -0.001964  4.246396  -0.002  1.624067  -0.000574  0.194907  0.549472  -0.000672  4.254241  -0.002
C  C73  1  0.19303588  0.75654490  0.81030494  1  0.616982  -0.008068  3.943524  -0.008  0.574592  -0.001473  4.25148  -0.002  0.611647  -0.001964  4.246311  -0.002  1.624045  -0.000573  0.194888  0.549456  -0.000672  4.254172  -0.002
C  C74  1  0.75179675  0.53838387  0.43855961  1  -0.058323  -0.000197  3.639395  0.0  -0.104481  0.000681  3.901928  0.001  -0.098725  0.000354  3.915976  0.001  0.015212  0.001966  -0.054342  -0.107811  0.001152  3.892332  0.001
C  C75  1  0.24820303  0.46161384  0.56144099  1  -0.058356  -0.000227  3.639443  0.0  -0.104484  0.000684  3.901997  0.001  -0.098723  0.000347  3.916052  0.001  0.015205  0.001964  -0.054337  -0.107811  0.001151  3.892396  0.001
C  C76  1  0.62583141  0.41727522  0.41127918  1  -0.116901  -0.000559  3.670062  0.0  -0.15519  0.00018  3.933857  0.0  -0.151843  5.6e-05  3.949573  0.0  0.047471  0.000663  -0.060732  -0.156883  0.000416  3.923214  0.0
C  C77  1  0.37416651  0.58272609  0.58871964  1  -0.116659  -0.00061  3.66986  0.0  -0.154922  0.00018  3.933676  0.0  -0.151572  5.4e-05  3.949397  0.0  0.047796  0.000663  -0.060646  -0.156616  0.000416  3.923032  0.0
C  C78  1  0.94794711  0.88381397  0.62327547  1  -0.112218  6.6e-05  3.666709  0.0  -0.156189  5e-05  3.919825  0.0  -0.156788  3.5e-05  3.933395  0.0  -0.007047  7e-05  -0.166198  -0.155563  6.4e-05  3.910341  0.0
C  C79  1  0.05205249  0.11618284  0.37672483  1  -0.112173  2.5e-05  3.666679  0.0  -0.156259  4.9e-05  3.919909  0.0  -0.156853  3.6e-05  3.933454  0.0  -0.007022  6.9e-05  -0.166242  -0.155637  6.3e-05  3.910425  0.0
C  C80  1  0.59089860  0.52202654  0.34421830  1  0.062858  0.000118  3.725718  0.0  0.06009  -0.000125  3.984174  0.0  0.054331  -8.6e-05  4.008786  0.0  0.171672  -3.1e-05  0.076109  0.063453  -0.000119  3.967671  0.0
C  C81  1  0.40909864  0.47797567  0.65578191  1  0.062852  0.000138  3.725599  0.0  0.060102  -0.000126  3.984012  0.0  0.054344  -8.5e-05  4.00862  0.0  0.171216  -3.1e-05  0.076131  0.063465  -0.00012  3.967509  0.0
C  C82  1  0.86166323  0.02157449  0.99647009  1  0.146189  -0.008839  3.610752  -0.003  0.070101  -0.002717  3.886932  0.0  0.095163  -0.004333  3.899987  -0.001  0.997965  -0.000847  0.166549  0.06025  -0.001478  3.880573  0.002
C  C83  1  0.13833740  0.97842322  0.00353098  1  0.146207  -0.008832  3.610891  -0.003  0.070084  -0.002718  3.887109  0.0  0.091147  -0.004329  3.897653  -0.001  0.997939  -0.000847  0.16652  0.060235  -0.001479  3.880748  0.002
C  C84  1  0.30907743  0.99943032  0.50975444  1  0.153618  -0.010919  3.60213  -0.004  0.079632  -0.003442  3.871264  0.0  0.105184  -0.005137  3.884676  -0.002  1.009063  -0.001349  0.171606  0.069469  -0.002122  3.864792  0.001
C  C85  1  0.69092135  0.00057099  0.49024641  1  0.153576  -0.010957  3.602247  -0.004  0.079577  -0.003442  3.871381  0.0  0.105137  -0.005137  3.884791  -0.002  1.009043  -0.00135  0.171608  0.069415  -0.002123  3.864907  0.001
C  C86  1  0.63302076  0.63312980  0.32322143  1  -0.070399  -0.00088  3.638947  -0.001  -0.111239  9.7e-05  3.894625  0.0  -0.106334  -1.4e-05  3.910112  0.0  0.011049  0.000418  -0.058601  -0.113953  0.000201  3.884117  0.0
C  C87  1  0.36697697  0.36687060  0.67678022  1  -0.070403  -0.000884  3.638983  -0.001  -0.111216  9.8e-05  3.894629  0.0  -0.106308  -1.8e-05  3.910113  0.0  0.012224  0.000418  -0.058611  -0.113928  0.000201  3.88412  0.0
C  C88  1  0.45241633  0.00530797  0.23552473  1  0.576342  -0.000902  3.763839  -0.001  0.532141  -0.000484  4.060273  0.0  0.562647  -0.000449  4.054817  0.0  1.382445  -0.000356  0.255703  0.511736  -0.000461  4.061843  0.0
C  C89  1  0.54758294  0.99469154  0.76447600  1  0.576364  -0.000893  3.763845  -0.001  0.532139  -0.000483  4.060274  0.0  0.562649  -0.000449  4.054818  0.0  1.382445  -0.000356  0.255733  0.511734  -0.000461  4.061845  0.0
C  C90  1  0.90742664  0.99809411  0.74394463  1  0.572789  -8.5e-05  3.751553  0.0  0.521678  7.6e-05  4.054615  0.0  0.551013  2e-05  4.050279  0.0  1.370753  0.000222  0.26035  0.501765  0.00016  4.055851  0.0
C  C91  1  0.09257195  0.00190630  0.25605515  1  0.57283  -7.5e-05  3.75148  0.0  0.521666  7.3e-05  4.054577  0.0  0.55069  2.3e-05  4.051272  0.0  1.370723  0.000222  0.26034  0.501752  0.00016  4.055813  0.0
C  C92  1  0.44718574  0.99122692  0.12714050  1  -0.116226  0.000109  3.665688  0.0  -0.114802  3.7e-05  3.901704  0.0  -0.121569  4e-06  3.917854  0.0  0.008342  7.8e-05  -0.088627  -0.110263  5e-05  3.890772  0.0
C  C93  1  0.55281439  0.00877259  0.87285914  1  -0.116208  7.9e-05  3.665786  0.0  -0.114696  3.6e-05  3.901684  0.0  -0.12146  6e-06  3.917841  0.0  0.008309  7.7e-05  -0.088612  -0.110159  4.9e-05  3.890753  0.0
C  C94  1  0.98419159  0.99891418  0.62056085  1  -0.112039  -7e-06  3.656216  0.0  -0.107043  -3.7e-05  3.886707  0.0  -0.11299  -5.5e-05  3.903323  0.0  0.006541  2.5e-05  -0.086165  -0.103033  -4e-06  3.875668  0.0
C  C95  1  0.01580836  0.00108443  0.37943927  1  -0.112087  1e-06  3.656221  0.0  -0.107016  -3.4e-05  3.886659  0.0  -0.112955  -6e-05  3.903172  0.0  0.006548  2.6e-05  -0.086147  -0.103006  -3e-06  3.875625  0.0
C  C96  1  0.84691269  0.19343035  0.85147426  1  0.134082  0.002172  3.624876  0.004  0.062292  0.001495  3.902211  0.003  0.083144  0.001047  3.913934  0.002  0.967009  0.002467  0.166658  0.054976  0.001897  3.896595  0.003
C  C97  1  0.15308795  0.80656736  0.14852525  1  0.134086  0.002161  3.624956  0.004  0.062283  0.001496  3.902286  0.003  0.079132  0.001044  3.911448  0.002  0.967354  0.002467  0.166678  0.054966  0.001897  3.896672  0.003
N  N98  1  0.79848500  0.07664954  0.05544645  1  -0.240395  0.060339  3.288484  0.079  -0.207477  0.04394  3.626496  0.061  -0.233038  0.036203  3.639841  0.054  -0.74987  0.071611  -0.259691  -0.191657  0.048259  3.616604  0.063
N  N99  1  0.20151495  0.92334907  0.94455366  1  -0.240318  0.060337  3.288507  0.079  -0.207422  0.043938  3.626556  0.061  -0.233434  0.036204  3.641548  0.054  -0.750095  0.071612  -0.259665  -0.191597  0.048259  3.616657  0.063
N  N100  1  0.33186582  0.05317415  0.56720281  1  -0.234089  0.067461  3.308197  0.088  -0.199961  0.047045  3.641494  0.065  -0.226021  0.038348  3.655509  0.057  -0.749244  0.077288  -0.262223  -0.183633  0.052023  3.630778  0.068
N  N101  1  0.66813399  0.94682806  0.43279725  1  -0.234063  0.067477  3.308202  0.088  -0.199912  0.047041  3.641485  0.065  -0.22599  0.038355  3.655523  0.057  -0.749055  0.07729  -0.262197  -0.183588  0.052025  3.630773  0.068
N  N102  1  0.40074928  0.16602815  0.47523706  1  -0.197541  0.003797  2.903225  0.005  -0.178001  0.003099  3.190636  0.004  -0.186409  0.001337  3.204274  0.002  -0.673498  0.008378  -0.218218  -0.171513  0.004863  3.178871  0.005
N  N103  1  0.59925035  0.83397315  0.52476192  1  -0.197465  0.003785  2.903124  0.005  -0.177926  0.003105  3.190531  0.004  -0.186333  0.00133  3.204171  0.002  -0.673648  0.008378  -0.218207  -0.171437  0.004863  3.178764  0.005
N  N104  1  0.78900853  0.18508848  0.96491342  1  -0.190893  0.003574  2.919751  0.005  -0.171494  0.003018  3.210144  0.004  -0.178167  0.001218  3.221937  0.002  -0.671286  0.008355  -0.212504  -0.166219  0.004891  3.199699  0.006
N  N105  1  0.21099125  0.81490923  0.03508718  1  -0.190945  0.003581  2.919813  0.005  -0.171541  0.003021  3.210218  0.004  -0.178603  0.001217  3.22353  0.002  -0.671058  0.008355  -0.212542  -0.166266  0.00489  3.199775  0.006
N  N106  1  0.66956015  0.58778498  0.91702971  1  0.502705  4.9e-05  3.903333  0.0  0.535013  -5e-06  4.195919  0.0  0.555263  0.0  4.205979  0.0  0.379543  0.000129  0.062408  0.521448  5.6e-05  4.189264  0.0
N  N107  1  0.33044205  0.41221632  0.08296989  1  0.502642  2e-05  3.903527  0.0  0.534943  -4e-06  4.196145  0.0  0.555192  -1e-06  4.206208  0.0  0.379796  0.000129  0.062349  0.521381  5.6e-05  4.189488  0.0
N  N108  1  0.92582681  0.65627070  0.10110575  1  0.504493  0.000111  3.905899  0.0  0.532281  8.2e-05  4.206339  0.0  0.553035  4.8e-05  4.216674  0.0  0.37508  0.000295  0.058974  0.51842  0.00016  4.199431  0.0
N  N109  1  0.07417900  0.34373151  0.89889211  1  0.504539  0.000101  3.905808  0.0  0.532338  8.5e-05  4.206256  0.0  0.553092  4.6e-05  4.216601  0.0  0.375144  0.000295  0.059035  0.518478  0.00016  4.199344  0.0
N  N110  1  0.74533304  0.32031186  0.52996627  1  0.509234  8.8e-05  3.889749  0.0  0.5393  7.1e-05  4.185244  0.0  0.560329  5.2e-05  4.194084  0.0  0.388807  0.000197  0.065728  0.52525  0.000107  4.179385  0.0
N  N111  1  0.25466142  0.67968495  0.47003670  1  0.509501  7.9e-05  3.8894  0.0  0.539526  7e-05  4.18495  0.0  0.560555  5.3e-05  4.193794  0.0  0.388976  0.000196  0.06586  0.525475  0.000107  4.179095  0.0
N  N112  1  0.50835892  0.51518273  0.28997196  1  0.497954  -2.7e-05  3.909731  0.0  0.527067  -1.1e-05  4.207791  0.0  0.547657  -1e-05  4.21731  0.0  0.402491  1.9e-05  0.059987  0.513265  2e-06  4.201409  0.0
N  N113  1  0.49163696  0.48482127  0.71002714  1  0.497969  -3.9e-05  3.909915  0.0  0.527055  -9e-06  4.20798  0.0  0.547643  -1.2e-05  4.2175  0.0  0.402828  1.9e-05  0.059939  0.513252  2e-06  4.201597  0.0
N  N114  1  0.96075075  0.06843626  0.77123475  1  -0.367501  0.001417  3.244387  0.002  -0.345444  0.000566  3.498459  0.001  -0.354318  0.000271  3.511647  0.001  -0.849971  0.001758  -0.298298  -0.332262  0.000941  3.492975  0.002
N  N115  1  0.03924989  0.93156145  0.22876554  1  -0.367499  0.001418  3.244332  0.002  -0.345355  0.000568  3.498369  0.001  -0.358416  0.000271  3.508159  0.001  -0.849984  0.001758  -0.29827  -0.332177  0.000941  3.492887  0.002
N  N116  1  0.89443815  0.09322718  0.86702695  1  0.05618  0.000317  3.609635  0.001  0.16073  0.000314  3.801694  0.001  0.122365  0.000146  3.859637  0.001  -0.903892  0.001099  -0.127982  0.166638  0.00045  3.787199  0.001
N  N117  1  0.10556231  0.90676963  0.13297305  1  0.056178  0.000318  3.609768  0.001  0.160691  0.000314  3.801852  0.001  0.136099  0.000145  3.84023  0.001  -0.904203  0.001098  -0.127976  0.166601  0.00045  3.787357  0.001
N  N118  1  0.36303210  0.05391959  0.28481767  1  -0.37068  0.001851  3.302404  0.002  -0.348477  0.000692  3.554666  0.001  -0.355242  0.000359  3.566739  0.001  -0.827033  0.001826  -0.308192  -0.336506  0.001102  3.550016  0.001
N  N119  1  0.63696785  0.94607902  0.71518244  1  -0.370703  0.001857  3.30236  0.002  -0.348499  0.000689  3.554627  0.001  -0.355277  0.000362  3.566731  0.001  -0.827027  0.001827  -0.308228  -0.33653  0.001103  3.549977  0.001
N  N120  1  0.36040089  0.07727269  0.37961828  1  0.057336  -6.7e-05  3.614554  0.001  0.163387  0.000125  3.800886  0.001  0.123685  -2.2e-05  3.860013  0.001  -0.884802  0.000905  -0.127197  0.16917  0.000253  3.787814  0.001
N  N121  1  0.63959924  0.92272682  0.62038135  1  0.057355  -7.3e-05  3.614598  0.001  0.163424  0.000125  3.800915  0.001  0.123719  -2.3e-05  3.860053  0.001  -0.884774  0.000905  -0.127189  0.169205  0.000253  3.787846  0.001
O  O122  1  0.73412614  0.85025675  0.26432279  1  -0.607856  0.066535  2.13257  0.093  -0.581097  0.04546  2.432056  0.069  -0.621666  0.034325  2.421925  0.056  -1.134787  0.084511  -0.320073  -0.552927  0.053395  2.438553  0.076
O  O123  1  0.26587778  0.14974455  0.73567852  1  -0.607785  0.066547  2.132594  0.093  -0.581065  0.045465  2.432077  0.069  -0.621622  0.034326  2.421917  0.056  -1.134852  0.084519  -0.32007  -0.552887  0.053399  2.438567  0.076
O  O124  1  0.52844680  0.97897173  0.27720650  1  -0.543415  -0.000663  2.020099  0.001  -0.515542  -0.000785  2.277656  0.0  -0.537553  -0.00105  2.264989  0.0  -1.163617  -0.000448  -0.294295  -0.500284  -0.000468  2.285775  0.001
O  O125  1  0.47155248  0.02102777  0.72279501  1  -0.54339  -0.000665  2.020128  0.001  -0.515515  -0.000785  2.277679  0.0  -0.537514  -0.00105  2.264996  0.0  -1.163614  -0.000449  -0.294296  -0.500255  -0.000469  2.285795  0.001
O  O126  1  0.89217647  0.20922299  0.21452697  1  -0.599862  -0.001326  1.897148  0.001  -0.576178  -0.001118  2.132531  0.001  -0.601507  -0.002063  2.124783  0.0  -1.169065  0.001883  -0.326575  -0.558378  -0.000149  2.137264  0.002
O  O127  1  0.10782402  0.79077832  0.78547170  1  -0.599826  -0.001318  1.897025  0.001  -0.576144  -0.001119  2.132417  0.001  -0.601475  -0.002066  2.124674  0.0  -1.16904  0.001881  -0.326562  -0.558344  -0.00015  2.137151  0.002
O  O128  1  0.71443339  0.17720880  0.21416376  1  -0.577615  0.104976  2.066101  0.147  -0.566034  0.064456  2.35652  0.098  -0.612129  0.047249  2.352348  0.078  -1.096523  0.120704  -0.322007  -0.534635  0.075712  2.358974  0.109
O  O129  1  0.28556692  0.82279161  0.78583539  1  -0.577635  0.104981  2.066146  0.147  -0.566043  0.064456  2.35654  0.098  -0.612128  0.047249  2.352348  0.078  -1.096537  0.1207  -0.322003  -0.534641  0.07571  2.358991  0.109
O  O130  1  0.62416802  0.51627976  0.89908848  1  -0.320668  -8e-06  1.746955  0.0  -0.316873  3.5e-05  1.949967  0.0  -0.327133  1.5e-05  1.945476  0.0  -0.422558  0.000206  -0.113909  -0.310107  0.000105  1.953271  0.0
O  O131  1  0.37582972  0.48372065  0.10091551  1  -0.320628  2.3e-05  1.747048  0.0  -0.316828  3.1e-05  1.950057  0.0  -0.327088  1.7e-05  1.945569  0.0  -0.422619  0.000207  -0.113875  -0.310057  0.000106  1.95336  0.0
O  O132  1  0.65955989  0.69446868  0.87719521  1  -0.360255  -1.8e-05  1.765997  0.0  -0.350295  -3.6e-05  1.980819  0.0  -0.364311  -7.6e-05  1.977795  0.0  -0.47634  0.000125  -0.125478  -0.341119  3.7e-05  1.983025  0.0
O  O133  1  0.34044335  0.30553352  0.12280203  1  -0.360288  -1.1e-05  1.766049  0.0  -0.350297  -3.5e-05  1.980856  0.0  -0.364316  -7.5e-05  1.977834  0.0  -0.476302  0.000124  -0.125458  -0.341117  3.7e-05  1.983062  0.0
O  O134  1  0.98290793  0.61204538  0.16625913  1  -0.351815  -0.00044  1.737119  0.0  -0.338757  -0.00027  1.938303  0.0  -0.351981  -0.000293  1.937568  0.0  -0.445571  -0.000224  -0.122496  -0.329969  -0.000282  1.938987  0.0
O  O135  1  0.01709667  0.38795503  0.83374001  1  -0.351876  -0.000452  1.737112  0.0  -0.338803  -0.000269  1.938294  0.0  -0.352027  -0.000297  1.937568  0.0  -0.445561  -0.000224  -0.122525  -0.330017  -0.000282  1.938977  0.0
O  O136  1  0.91503022  0.76272960  0.05515483  1  -0.350276  0.000437  1.769733  0.001  -0.332868  0.000267  1.980849  0.0  -0.34649  0.000187  1.978609  0.0  -0.477108  0.000711  -0.121014  -0.323985  0.000451  1.982683  0.001
O  O137  1  0.08497474  0.23727261  0.94484568  1  -0.350287  0.000458  1.769646  0.001  -0.332888  0.000266  1.980773  0.0  -0.346506  0.000191  1.978524  0.0  -0.477137  0.00071  -0.121045  -0.324006  0.00045  1.982605  0.001
O  O138  1  0.44856517  0.59361449  0.26934920  1  -0.339583  -2.5e-05  1.741695  0.0  -0.326133  -2.1e-05  1.94017  0.0  -0.339723  -4.3e-05  1.938451  0.0  -0.465049  2.5e-05  -0.118221  -0.316993  3e-06  1.941454  0.0
O  O139  1  0.55143053  0.40638861  0.73065272  1  -0.339517  2e-05  1.741865  0.0  -0.32606  -2.9e-05  1.940334  0.0  -0.339651  -3.1e-05  1.938618  0.0  -0.465229  2.6e-05  -0.118169  -0.316918  4e-06  1.941614  0.0
O  O140  1  0.50550583  0.43174244  0.26756080  1  -0.333713  3.8e-05  1.803916  0.0  -0.321811  -4e-06  2.023433  0.0  -0.334877  8e-06  2.021307  0.0  -0.450081  4.4e-05  -0.106189  -0.312907  3e-06  2.024935  0.0
O  O141  1  0.49448901  0.56826067  0.73243831  1  -0.333805  6e-06  1.803916  0.0  -0.32188  0.0  2.02343  0.0  -0.334945  3e-06  2.021303  0.0  -0.450198  4.3e-05  -0.106209  -0.312975  3e-06  2.024932  0.0
O  O142  1  0.80809194  0.32847030  0.58191425  1  -0.348559  8e-06  1.721265  0.0  -0.336265  7e-06  1.91473  0.0  -0.348541  4e-06  1.910604  0.0  -0.459433  2.3e-05  -0.12003  -0.328092  -1e-06  1.917771  0.0
O  O143  1  0.19189494  0.67152291  0.41809705  1  -0.348611  -2.2e-05  1.720892  0.0  -0.336353  1.3e-05  1.914414  0.0  -0.348629  -1e-05  1.910287  0.0  -0.459223  2.3e-05  -0.12009  -0.32818  -1e-06  1.917459  0.0
O  O144  1  0.71392054  0.22700106  0.53320133  1  -0.349639  0.000241  1.765966  0.0  -0.330438  0.000125  1.971558  0.0  -0.343966  6.3e-05  1.968948  0.0  -0.477743  0.000337  -0.114313  -0.321579  0.00021  1.973588  0.0
O  O145  1  0.28607495  0.77299665  0.46679694  1  -0.349905  0.000274  1.766058  0.0  -0.330552  0.000119  1.97155  0.0  -0.344065  7.7e-05  1.968921  0.0  -0.478155  0.000337  -0.114382  -0.321692  0.00021  1.973582  0.0
O  O146  1  0.84048194  0.76928476  0.38263311  1  -0.591963  0.000962  1.956854  0.003  -0.553366  0.000827  2.182769  0.002  -0.577187  -2.4e-05  2.172567  0.001  -1.16684  0.003734  -0.316946  -0.536765  0.001684  2.189327  0.003
O  O147  1  0.15952124  0.23070846  0.61736912  1  -0.59194  0.000968  1.956981  0.003  -0.553345  0.000826  2.182868  0.002  -0.577159  -2.3e-05  2.172652  0.001  -1.166849  0.003732  -0.316943  -0.536746  0.001682  2.189426  0.003
O  O148  1  0.80408625  0.94285989  0.81298842  1  -0.548441  0.000392  1.9748  0.001  -0.502124  0.000197  2.204085  0.0  -0.522488  8.6e-05  2.196125  0.0  -1.174441  0.000555  -0.284465  -0.487836  0.000346  2.208713  0.0
O  O149  1  0.19591134  0.05714411  0.18701005  1  -0.54845  0.000389  1.974681  0.001  -0.502161  0.000197  2.204032  0.0  -0.52266  8.6e-05  2.196523  0.0  -1.174398  0.000555  -0.284467  -0.48787  0.000346  2.208658  0.0
