# generated using pymatgen
data_CdH15C15NO12
_symmetry_space_group_name_H-M   'P 1'
_cell_length_a   8.37427004
_cell_length_b   8.64972908
_cell_length_c   12.78806864
_cell_angle_alpha   94.97150187
_cell_angle_beta   98.94726652
_cell_angle_gamma   98.99222069
_symmetry_Int_Tables_number   1
_chemical_formula_structural   CdH15C15NO12
_chemical_formula_sum   'Cd2 H30 C30 N2 O24'
_cell_volume   897.92390633
_cell_formula_units_Z   2
loop_
 _symmetry_equiv_pos_site_id
 _symmetry_equiv_pos_as_xyz
  1  'x, y, z'
loop_
 _atom_site_type_symbol
 _atom_site_label
 _atom_site_symmetry_multiplicity
 _atom_site_fract_x
 _atom_site_fract_y
 _atom_site_fract_z
 _atom_site_occupancy
 _atom_site_hle17_bader_spin_density
 _atom_site_hle17_ddec_charge
 _atom_site_hle17_ddec_spin_density
 _atom_site_hle17_ddec_sum_bond_order
 _atom_site_hle17_magmom
 _atom_site_hse06_10hf_bader_spin_density
 _atom_site_hse06_10hf_ddec_charge
 _atom_site_hse06_10hf_ddec_spin_density
 _atom_site_hse06_10hf_ddec_sum_bond_order
 _atom_site_hse06_10hf_magmom
 _atom_site_hse06_bader_spin_density
 _atom_site_hse06_ddec_charge
 _atom_site_hse06_ddec_spin_density
 _atom_site_hse06_ddec_sum_bond_order
 _atom_site_hse06_magmom
 _atom_site_pbe_bader_spin_density
 _atom_site_pbe_cm5_charge
 _atom_site_pbe_ddec_charge
 _atom_site_pbe_ddec_spin_density
 _atom_site_pbe_ddec_sum_bond_order
 _atom_site_pbe_magmom
Cd  Cd0  1  0.30184751  0.72655688  0.01326491  1  0  1.293198  0  1.473075  0  0  1.125024  0  1.898899  0  0  1.182808  0  1.838505  0  0  0.768196  1.083344  0  1.940703  0
Cd  Cd1  1  0.69815374  0.27344935  0.98673918  1  0  1.293217  0  1.4731  0  0  1.125043  0  1.898919  0  0  1.182829  0  1.83852  0  0  0.768192  1.083354  0  1.940717  0
H  H2  1  0.64431636  0.70341521  0.06301156  1  0  0.433332  0  0.834689  0  0  0.404098  0  0.905358  0  0  0.414912  0  0.889504  0  0  0.30223  0.396312  0  0.916778  0
H  H3  1  0.35569501  0.29660461  0.93697859  1  0  0.43347  0  0.834587  0  0  0.40425  0  0.905156  0  0  0.415063  0  0.889303  0  0  0.302335  0.396469  0  0.916566  0
H  H4  1  0.63642762  0.89014729  0.07921903  1  0  0.42181  0  0.884326  0  0  0.387988  0  0.952555  0  0  0.399167  0  0.936672  0  0  0.290437  0.380069  0  0.963787  0
H  H5  1  0.36357044  0.10986690  0.92077719  1  0  0.4218  0  0.884306  0  0  0.388035  0  0.952485  0  0  0.399217  0  0.936592  0  0  0.290471  0.38012  0  0.96371  0
H  H6  1  0.46142307  0.51931099  0.87965463  1  0  0.421728  0  0.886093  0  0  0.390478  0  0.950606  0  0  0.401207  0  0.935338  0  0  0.286204  0.382894  0  0.961359  0
H  H7  1  0.53859977  0.48069404  0.12035030  1  0  0.421556  0  0.886272  0  0  0.390284  0  0.950839  0  0  0.401013  0  0.935571  0  0  0.286178  0.382702  0  0.961588  0
H  H8  1  0.29050668  0.51699093  0.80819767  1  0  0.436452  0  0.853289  0  0  0.406668  0  0.914159  0  0  0.417491  0  0.898333  0  0  0.295648  0.398996  0  0.925349  0
H  H9  1  0.70951341  0.48299883  0.19180711  1  0  0.436365  0  0.853417  0  0  0.406673  0  0.914149  0  0  0.417496  0  0.898322  0  0  0.295641  0.399004  0  0.925336  0
H  H10  1  0.23547747  0.97960070  0.15087831  1  0  0.419244  0  0.882821  0  0  0.384125  0  0.953338  0  0  0.395661  0  0.936205  0  0  0.29307  0.375979  0  0.965422  0
H  H11  1  0.76450973  0.02041344  0.84911590  1  0  0.419127  0  0.882961  0  0  0.384018  0  0.953465  0  0  0.395553  0  0.936334  0  0  0.293049  0.375873  0  0.965545  0
H  H12  1  0.33473949  0.07297018  0.07200490  1  0  0.423753  0  0.860732  0  0  0.397473  0  0.921367  0  0  0.407826  0  0.906081  0  0  0.296817  0.390032  0  0.932361  0
H  H13  1  0.66524792  0.92703799  0.92798674  1  0  0.42381  0  0.860669  0  0  0.397528  0  0.921291  0  0  0.407884  0  0.906001  0  0  0.296858  0.390086  0  0.932289  0
H  H14  1  0.03177142  0.67573603  0.85702558  1  0  0.429595  0  0.871167  0  0  0.395003  0  0.939701  0  0  0.406376  0  0.923311  0  0  0.291098  0.386992  0  0.951224  0
H  H15  1  0.96823915  0.32425497  0.14298052  1  0  0.429667  0  0.871094  0  0  0.395077  0  0.939628  0  0  0.406451  0  0.923237  0  0  0.291109  0.387062  0  0.951156  0
H  H16  1  0.93142059  0.64084885  0.95314066  1  0  0.44347  0  0.809586  0  0  0.42191  0  0.867433  0  0  0.431073  0  0.854155  0  0  0.320436  0.415349  0  0.875704  0
H  H17  1  0.06859201  0.35910551  0.04686027  1  0  0.443302  0  0.809699  0  0  0.421742  0  0.867629  0  0  0.430906  0  0.854352  0  0  0.320361  0.41518  0  0.875816  0
H  H18  1  0.40233952  0.29680586  0.22171719  1  0  0.096971  0  0.949445  0  0  0.107317  0  1.012491  0  0  0.110891  0  1.009136  0  0  0.105774  0.104684  0  1.014994  0
H  H19  1  0.59766529  0.70319335  0.77828780  1  0  0.097044  0  0.94933  0  0  0.107369  0  1.012407  0  0  0.110947  0  1.009046  0  0  0.105801  0.104733  0  1.014909  0
H  H20  1  0.40073544  0.14568814  0.37821357  1  0  0.093341  0  0.984418  0  0  0.101129  0  1.05335  0  0  0.103736  0  1.052696  0  0  0.100259  0.099312  0  1.053865  0
H  H21  1  0.59925307  0.85430742  0.62178707  1  0  0.093375  0  0.984345  0  0  0.101114  0  1.053325  0  0  0.103726  0  1.052665  0  0  0.10026  0.099301  0  1.053838  0
H  H22  1  0.20743065  0.65894538  0.38601243  1  0  0.112097  0  0.964821  0  0  0.116557  0  1.036362  0  0  0.120284  0  1.032846  0  0  0.107929  0.113852  0  1.038966  0
H  H23  1  0.79257561  0.34106209  0.61399384  1  0  0.112091  0  0.964821  0  0  0.116473  0  1.036453  0  0  0.120197  0  1.032942  0  0  0.107875  0.113781  0  1.039039  0
H  H24  1  0.53399404  0.17051195  0.58511838  1  0  0.108527  0  0.945633  0  0  0.116922  0  1.010349  0  0  0.119753  0  1.009021  0  0  0.109223  0.114901  0  1.011327  0
H  H25  1  0.46599794  0.82948950  0.41488289  1  0  0.108577  0  0.945716  0  0  0.116951  0  1.010438  0  0  0.119779  0  1.009116  0  0  0.109279  0.11493  0  1.011413  0
H  H26  1  0.48969965  0.99840811  0.72663764  1  0  0.116615  0  0.96256  0  0  0.124618  0  1.024972  0  0  0.128225  0  1.022702  0  0  0.108664  0.121999  0  1.02668  0
H  H27  1  0.51029431  0.00159817  0.27336719  1  0  0.116545  0  0.962557  0  0  0.124595  0  1.024936  0  0  0.128211  0  1.022664  0  0  0.108637  0.121972  0  1.026659  0
H  H28  1  0.02656190  0.22862532  0.54829175  1  0  0.125999  0  0.970237  0  0  0.128427  0  1.043398  0  0  0.132855  0  1.039555  0  0  0.114258  0.12524  0  1.04612  0
H  H29  1  0.97342656  0.77136166  0.45169915  1  0  0.126069  0  0.970119  0  0  0.128418  0  1.043368  0  0  0.132844  0  1.039529  0  0  0.114263  0.125239  0  1.046074  0
H  H30  1  0.11399935  0.69800744  0.63886637  1  0  0.401154  0  0.887547  0  0  0.368257  0  0.969452  0  0  0.380517  0  0.956816  0  0  0.302227  0.359715  0  0.978123  0
H  H31  1  0.88600150  0.30198926  0.36113416  1  0  0.401161  0  0.887528  0  0  0.368272  0  0.969426  0  0  0.380535  0  0.956788  0  0  0.302239  0.359726  0  0.978101  0
C  C32  1  0.28868870  0.57091660  0.19602269  1  0  0.624022  0  3.950224  0  0  0.575663  0  4.239526  0  0  0.609499  0  4.235505  0  0  0.194715  0.552764  0  4.241262  0
C  C33  1  0.71133221  0.42909782  0.80398162  1  0  0.624024  0  3.950436  0  0  0.575703  0  4.239697  0  0  0.609544  0  4.235668  0  0  0.1947  0.552793  0  4.24144  0
C  C34  1  0.29952418  0.48511894  0.29279568  1  0  -0.058295  0  3.736676  0  0  -0.035181  0  3.974649  0  0  -0.044226  0  3.996165  0  0  -0.015567  -0.029593  0  3.960332  0
C  C35  1  0.70048681  0.51488720  0.70720638  1  0  -0.058168  0  3.736622  0  0  -0.035032  0  3.974535  0  0  -0.044086  0  3.996059  0  0  -0.015504  -0.029444  0  3.960216  0
C  C36  1  0.36006301  0.34323553  0.29244307  1  0  -0.023516  0  3.701017  0  0  -0.056033  0  3.960684  0  0  -0.051788  0  3.977087  0  0  -0.074863  -0.058467  0  3.949418  0
C  C37  1  0.63993808  0.65676944  0.70755860  1  0  -0.023641  0  3.700899  0  0  -0.05616  0  3.96058  0  0  -0.051913  0  3.976981  0  0  -0.074916  -0.058588  0  3.949308  0
C  C38  1  0.36176444  0.25986888  0.38066283  1  0  -0.115808  0  3.733262  0  0  -0.140312  0  3.996198  0  0  -0.146267  0  4.018095  0  0  -0.090955  -0.136462  0  3.981279  0
C  C39  1  0.63823241  0.74013252  0.61933743  1  0  -0.115862  0  3.733114  0  0  -0.140327  0  3.996116  0  0  -0.146286  0  4.018015  0  0  -0.090978  -0.136479  0  3.981195  0
C  C40  1  0.30444959  0.31574964  0.47129274  1  0  0.066981  0  3.721022  0  0  0.071708  0  3.953736  0  0  0.074842  0  3.977314  0  0  0.008542  0.069911  0  3.937697  0
C  C41  1  0.69554306  0.68424814  0.52870456  1  0  0.067112  0  3.720925  0  0  0.07179  0  3.953652  0  0  0.074924  0  3.977233  0  0  0.008602  0.069992  0  3.937618  0
C  C42  1  0.25440942  0.46470367  0.47494250  1  0  -0.117019  0  3.730035  0  0  -0.098787  0  3.965365  0  0  -0.109222  0  3.988654  0  0  -0.015194  -0.092116  0  3.949746  0
C  C43  1  0.74558922  0.53529421  0.52505783  1  0  -0.117056  0  3.730011  0  0  -0.09883  0  3.965352  0  0  -0.109272  0  3.988634  0  0  -0.015178  -0.092159  0  3.949744  0
C  C44  1  0.21719342  0.53800551  0.57625376  1  0  0.661216  0  3.807815  0  0  0.611383  0  4.103175  0  0  0.644586  0  4.094844  0  0  0.234811  0.588779  0  4.108382  0
C  C45  1  0.78280766  0.46199234  0.42374605  1  0  0.661398  0  3.807768  0  0  0.611568  0  4.103118  0  0  0.644791  0  4.094764  0  0  0.23492  0.588958  0  4.108349  0
C  C46  1  0.24938178  0.54597669  0.38493876  1  0  -0.046801  0  3.664314  0  0  -0.084261  0  3.915541  0  0  -0.080173  0  3.932579  0  0  -0.068633  -0.086645  0  3.904062  0
C  C47  1  0.75062533  0.45402832  0.61506438  1  0  -0.046802  0  3.664334  0  0  -0.084199  0  3.915558  0  0  -0.080106  0  3.932595  0  0  -0.068596  -0.086591  0  3.904065  0
C  C48  1  0.28365375  0.21102113  0.55553343  1  0  0.081718  0  3.756154  0  0  0.094803  0  3.996546  0  0  0.094713  0  4.017425  0  0  0.006793  0.094597  0  3.982469  0
C  C49  1  0.71633947  0.78897311  0.44446379  1  0  0.081498  0  3.756183  0  0  0.094683  0  3.996431  0  0  0.094594  0  4.017309  0  0  0.006687  0.094478  0  3.982358  0
C  C50  1  0.41206935  0.14332446  0.60562794  1  0  -0.060128  0  3.647308  0  0  -0.089792  0  3.905546  0  0  -0.090053  0  3.923682  0  0  -0.069075  -0.089487  0  3.893294  0
C  C51  1  0.58792445  0.85667340  0.39437183  1  0  -0.060069  0  3.647098  0  0  -0.089756  0  3.905363  0  0  -0.090016  0  3.923498  0  0  -0.069079  -0.089446  0  3.893107  0
C  C52  1  0.38748436  0.04514819  0.68481871  1  0  -0.060697  0  3.695781  0  0  -0.083607  0  3.948274  0  0  -0.085564  0  3.967451  0  0  -0.079105  -0.082325  0  3.935455  0
C  C53  1  0.61250559  0.95485567  0.31518400  1  0  -0.060643  0  3.695496  0  0  -0.08362  0  3.948029  0  0  -0.085586  0  3.967208  0  0  -0.079148  -0.082334  0  3.935211  0
C  C54  1  0.23327711  0.00812934  0.71383578  1  0  -0.095953  0  3.734991  0  0  -0.0843  0  3.981191  0  0  -0.08771  0  3.999847  0  0  -0.008164  -0.082086  0  3.968744  0
C  C55  1  0.76671163  0.99187452  0.28616678  1  0  -0.095845  0  3.735139  0  0  -0.084143  0  3.981311  0  0  -0.08755  0  3.999977  0  0  -0.008014  -0.081932  0  3.968868  0
C  C56  1  0.20650260  0.88700563  0.78969328  1  0  0.676915  0  3.90227  0  0  0.611614  0  4.216829  0  0  0.647394  0  4.206427  0  0  0.22088  0.587279  0  4.223126  0
C  C57  1  0.79349681  0.11299707  0.21031046  1  0  0.676878  0  3.90223  0  0  0.611527  0  4.216858  0  0  0.647305  0  4.206456  0  0  0.220849  0.587184  0  4.223158  0
C  C58  1  0.10591111  0.07729202  0.66273801  1  0  0.068385  0  3.699007  0  0  0.047094  0  3.948784  0  0  0.044834  0  3.970049  0  0  0.079497  0.048388  0  3.9346  0
C  C59  1  0.89407728  0.92270222  0.33725866  1  0  0.068253  0  3.699222  0  0  0.046935  0  3.948978  0  0  0.044664  0  3.970265  0  0  0.079437  0.048232  0  3.934796  0
C  C60  1  0.12846256  0.17585684  0.58442838  1  0  -0.11094  0  3.660388  0  0  -0.151001  0  3.925257  0  0  -0.150551  0  3.941479  0  0  -0.071147  -0.151086  0  3.914444  0
C  C61  1  0.87152462  0.82413025  0.41556551  1  0  -0.110929  0  3.660286  0  0  -0.150903  0  3.925081  0  0  -0.150448  0  3.941301  0  0  -0.071139  -0.150985  0  3.914268  0
N  N62  1  0.94637295  0.05592622  0.69670397  1  0  0.491807  0  3.91049  0  0  0.544306  0  4.161965  0  0  0.56677  0  4.168374  0  0  0.062255  0.529209  0  4.157678  0
N  N63  1  0.05361593  0.94407026  0.30328971  1  0  0.49164  0  3.910165  0  0  0.544154  0  4.161656  0  0  0.566623  0  4.168065  0  0  0.062222  0.529052  0  4.157376  0
O  O64  1  0.34667139  0.51452303  0.11522255  1  0  -0.699418  0  2.034279  0  0  -0.625267  0  2.267203  0  0  -0.656549  0  2.25744  0  0  -0.338308  -0.603126  0  2.273024  0
O  O65  1  0.65335172  0.48549022  0.88478196  1  0  -0.69941  0  2.034387  0  0  -0.625321  0  2.267368  0  0  -0.656608  0  2.257613  0  0  -0.338268  -0.603182  0  2.273195  0
O  O66  1  0.22332220  0.69225357  0.19342325  1  0  -0.611791  0  1.953695  0  0  -0.561109  0  2.186268  0  0  -0.58962  0  2.179917  0  0  -0.321171  -0.540939  0  2.189816  0
O  O67  1  0.77670217  0.30775960  0.80657906  1  0  -0.611866  0  1.953735  0  0  -0.561201  0  2.186314  0  0  -0.589715  0  2.179962  0  0  -0.321201  -0.541022  0  2.189854  0
O  O68  1  0.26513358  0.49565249  0.66382002  1  0  -0.569065  0  1.998792  0  0  -0.52011  0  2.214522  0  0  -0.54258  0  2.208552  0  0  -0.283651  -0.504544  0  2.218338  0
O  O69  1  0.73486476  0.50433005  0.33617886  1  0  -0.569141  0  1.998811  0  0  -0.520251  0  2.214567  0  0  -0.54273  0  2.208582  0  0  -0.283772  -0.504687  0  2.218399  0
O  O70  1  0.13183952  0.65497233  0.56458151  1  0  -0.556911  0  2.119138  0  0  -0.502943  0  2.343113  0  0  -0.526721  0  2.330959  0  0  -0.32881  -0.486206  0  2.350802  0
O  O71  1  0.86815720  0.34502213  0.43542158  1  0  -0.556999  0  2.119172  0  0  -0.503007  0  2.34308  0  0  -0.526761  0  2.33085  0  0  -0.328827  -0.486255  0  2.350763  0
O  O72  1  0.10512344  0.76077152  0.75423714  1  0  -0.623763  0  2.041019  0  0  -0.564903  0  2.266301  0  0  -0.591518  0  2.257263  0  0  -0.303095  -0.54633  0  2.271938  0
O  O73  1  0.89487238  0.23923112  0.24576462  1  0  -0.623701  0  2.040977  0  0  -0.564858  0  2.26629  0  0  -0.591478  0  2.257259  0  0  -0.303066  -0.546276  0  2.271927  0
O  O74  1  0.29206130  0.91519453  0.88249794  1  0  -0.641206  0  2.055486  0  0  -0.567591  0  2.297363  0  0  -0.598164  0  2.286196  0  0  -0.302773  -0.546018  0  2.304282  0
O  O75  1  0.70793773  0.08480576  0.11750409  1  0  -0.641273  0  2.055598  0  0  -0.567593  0  2.29745  0  0  -0.598161  0  2.286286  0  0  -0.302785  -0.546014  0  2.30437  0
O  O76  1  0.94293454  0.02109512  0.78937585  1  0  -0.36098  0  1.82028  0  0  -0.338252  0  2.007197  0  0  -0.352676  0  2.001139  0  0  -0.114072  -0.328829  0  2.011712  0
O  O77  1  0.05704952  0.97890133  0.21061650  1  0  -0.360938  0  1.820188  0  0  -0.33823  0  2.007122  0  0  -0.352665  0  2.001077  0  0  -0.114084  -0.328804  0  2.011636  0
O  O78  1  0.82482427  0.07484278  0.63395262  1  0  -0.331996  0  1.81498  0  0  -0.316579  0  2.013655  0  0  -0.328186  0  2.010432  0  0  -0.101001  -0.308861  0  2.01596  0
O  O79  1  0.17516581  0.92515371  0.36604120  1  0  -0.33183  0  1.814824  0  0  -0.316451  0  2.01354  0  0  -0.328045  0  2.010292  0  0  -0.10093  -0.308719  0  2.015818  0
O  O80  1  0.59520917  0.78884935  0.03145469  1  0  -0.837402  0  1.875197  0  0  -0.770441  0  2.068475  0  0  -0.793882  0  2.032947  0  0  -0.567972  -0.753798  0  2.093393  0
O  O81  1  0.40478647  0.21116484  0.96854126  1  0  -0.837547  0  1.875131  0  0  -0.770633  0  2.068202  0  0  -0.794073  0  2.032669  0  0  -0.568156  -0.753999  0  2.093113  0
O  O82  1  0.34223004  0.51643689  0.88309633  1  0  -0.850618  0  1.821212  0  0  -0.78661  0  1.998511  0  0  -0.810178  0  1.964654  0  0  -0.584372  -0.769718  0  2.021995  0
O  O83  1  0.65779067  0.48355640  0.11690867  1  0  -0.850344  0  1.821385  0  0  -0.786371  0  1.99852  0  0  -0.809931  0  1.96465  0  0  -0.584325  -0.769478  0  2.022002  0
O  O84  1  0.32880120  0.98078880  0.11199925  1  0  -0.834079  0  1.899038  0  0  -0.775996  0  2.091794  0  0  -0.79821  0  2.057916  0  0  -0.581655  -0.760127  0  2.115337  0
O  O85  1  0.67118175  0.01922177  0.88799354  1  0  -0.834045  0  1.899154  0  0  -0.775955  0  2.091881  0  0  -0.79817  0  2.058  0  0  -0.581689  -0.76009  0  2.115422  0
O  O86  1  0.03469012  0.63585797  0.92813970  1  0  -0.841942  0  1.865809  0  0  -0.779478  0  2.062427  0  0  -0.801587  0  2.027633  0  0  -0.580376  -0.763839  0  2.085415  0
O  O87  1  0.96532567  0.36411400  0.07186074  1  0  -0.841873  0  1.865836  0  0  -0.779376  0  2.062464  0  0  -0.801491  0  2.02767  0  0  -0.580308  -0.763737  0  2.085374  0
