# generated using pymatgen
data_AlH39(C6O)6
_symmetry_space_group_name_H-M   'P 1'
_cell_length_a   4.01112239
_cell_length_b   28.61592585
_cell_length_c   28.63931546
_cell_angle_alpha   119.98806197
_cell_angle_beta   89.83990466
_cell_angle_gamma   90.13212882
_symmetry_Int_Tables_number   1
_chemical_formula_structural   AlH39(C6O)6
_chemical_formula_sum   'Al2 H78 C72 O12'
_cell_volume   2847.19541752
_cell_formula_units_Z   2
loop_
 _symmetry_equiv_pos_site_id
 _symmetry_equiv_pos_as_xyz
  1  'x, y, z'
loop_
 _atom_site_type_symbol
 _atom_site_label
 _atom_site_symmetry_multiplicity
 _atom_site_fract_x
 _atom_site_fract_y
 _atom_site_fract_z
 _atom_site_occupancy
 _atom_site_pbe_bader_charge
 _atom_site_pbe_bader_spin_density
 _atom_site_pbe_cm5_charge
 _atom_site_pbe_ddec_charge
 _atom_site_pbe_ddec_spin_density
 _atom_site_pbe_ddec_sum_bond_order
 _atom_site_pbe_magmom
Al  Al0  1  0.99432754  0.49836573  0.49965787  1  2.50396  0  0.424919  1.592899  0  2.578703  0
Al  Al1  1  0.97854390  0.16530845  0.83350719  1  2.504669  0  0.424772  1.594812  0  2.575667  0
H  H2  1  0.82097025  0.36549338  0.70746057  1  0.065726  0  0.097406  0.091448  0  1.041469  0
H  H3  1  0.22027933  0.30596877  0.63729162  1  0.083364  0  0.097596  0.096401  0  1.037112  0
H  H4  1  0.83591873  0.83955846  0.63536273  1  0.07323  0  0.097946  0.093408  0  1.038581  0
H  H5  1  0.21580093  0.82797649  0.69088099  1  0.082928  0  0.097472  0.09526  0  1.041016  0
H  H6  1  0.22017471  0.30371066  0.16379261  1  0.065713  0  0.097396  0.095599  0  1.039819  0
H  H7  1  0.82843728  0.37237863  0.17341319  1  0.051689  0  0.097743  0.093106  0  1.037976  0
H  H8  1  0.45733127  0.35338330  0.88096903  1  0.018284  0  0.087258  0.116655  0  1.00765  0
H  H9  1  0.25606554  0.29240673  0.86587378  1  0.043933  0  0.097609  0.140789  0  1.02146  0
H  H10  1  0.04192799  0.34072504  0.85640608  1  0.039711  0  0.090616  0.126647  0  1.014685  0
H  H11  1  0.17259699  0.39473560  0.77602195  1  0.025883  0  0.086991  0.117416  0  1.033835  0
H  H12  1  0.58213020  0.41090539  0.80135576  1  0.01726  0  0.088115  0.11991  0  1.0139  0
H  H13  1  0.26930049  0.40046324  0.83900329  1  0.015266  0  0.0894  0.124098  0  1.019316  0
H  H14  1  0.58540494  0.13502319  0.64463637  1  0.051817  0  0.085703  0.113188  0  1.012568  0
H  H15  1  0.65821076  0.13752265  0.70687681  1  0.062046  0  0.095826  0.137207  0  1.028067  0
H  H16  1  0.98235775  0.15363391  0.67542081  1  0.068962  0  0.092245  0.132908  0  1.010139  0
H  H17  1  0.79456758  0.24737879  0.61468709  1  0.030781  0  0.084467  0.115308  0  1.054906  0
H  H18  1  0.61625834  0.18561222  0.60277409  1  0.016556  0  0.085565  0.113913  0  1.011248  0
H  H19  1  0.02592090  0.20254608  0.62820362  1  0.019556  0  0.088946  0.124014  0  1.02042  0
H  H20  1  0.90412954  0.45244223  0.71904620  1  0.045209  0  0.090312  0.128986  0  1.00861  0
H  H21  1  0.50479449  0.43586951  0.73301164  1  0.009041  0  0.084534  0.110999  0  1.066255  0
H  H22  1  0.56361369  0.49549519  0.72939334  1  0.036037  0  0.086853  0.118739  0  1.016193  0
H  H23  1  0.51489172  0.53591618  0.67965552  1  0.003786  0  0.087451  0.116038  0  1.011006  0
H  H24  1  0.75436728  0.52173391  0.62212786  1  0.075045  0  0.097339  0.139688  0  1.023902  0
H  H25  1  0.93043987  0.51254492  0.67337077  1  0.046965  0  0.090545  0.127099  0  1.010327  0
H  H26  1  0.98170234  0.28013324  0.54508742  1  0.059056  0  0.09135  0.130852  0  1.013182  0
H  H27  1  0.37804262  0.25979278  0.55563380  1  0.01985  0  0.087861  0.11946  0  1.029642  0
H  H28  1  0.30347931  0.26440663  0.49729604  1  -0.015638  0  0.088635  0.121986  0  1.017335  0
H  H29  1  0.42973116  0.31118078  0.45676232  1  0.032864  0  0.087209  0.114977  0  1.010392  0
H  H30  1  0.24863353  0.37261733  0.46899893  1  0.049953  0  0.096787  0.138263  0  1.025763  0
H  H31  1  0.01083390  0.32651650  0.47912320  1  0.051427  0  0.091382  0.129437  0  1.009573  0
H  H32  1  0.43410097  0.02206888  0.64390117  1  0.019102  0  0.087787  0.118742  0  1.002975  0
H  H33  1  0.25495672  0.07005084  0.70618721  1  0.059711  0  0.096893  0.138637  0  1.023592  0
H  H34  1  0.02374178  0.01273029  0.66108616  1  0.057448  0  0.091087  0.127781  0  1.016826  0
H  H35  1  0.20658308  0.87311375  0.60361835  1  0.039075  0  0.086865  0.116614  0  1.0384  0
H  H36  1  0.58572376  0.89368179  0.58815447  1  0.018421  0  0.088964  0.122283  0  1.004359  0
H  H37  1  0.22317668  0.93351810  0.60070271  1  0.021115  0  0.08932  0.123095  0  1.022214  0
H  H38  1  0.58994704  0.00690729  0.86405225  1  -0.003875  0  0.085937  0.113478  0  1.012058  0
H  H39  1  0.65916164  0.06680181  0.86150826  1  0.07277  0  0.095418  0.136958  0  1.026606  0
H  H40  1  0.98574203  0.01984033  0.84546360  1  0.058569  0  0.092509  0.133509  0  1.010365  0
H  H41  1  0.80300656  0.86481749  0.75181963  1  -0.016724  0  0.084578  0.115855  0  1.052316  0
H  H42  1  0.64087464  0.91562986  0.81445835  1  0.022344  0  0.085814  0.11438  0  1.010669  0
H  H43  1  0.04512109  0.92281123  0.79433761  1  0.041972  0  0.08947  0.124738  0  1.021505  0
H  H44  1  0.92497103  0.76058919  0.54389858  1  0.026816  0  0.090614  0.129526  0  1.008336  0
H  H45  1  0.54165038  0.79583596  0.56409229  1  -0.003277  0  0.084247  0.111021  0  1.069913  0
H  H46  1  0.56705437  0.73257275  0.50368950  1  0.009964  0  0.086597  0.117731  0  1.015131  0
H  H47  1  0.53359260  0.64226968  0.46260000  1  0.006729  0  0.087169  0.115068  0  1.012973  0
H  H48  1  0.76203155  0.59778753  0.47646809  1  0.033738  0  0.097664  0.139948  0  1.024138  0
H  H49  1  0.94780373  0.65820176  0.48686355  1  0.032697  0  0.090244  0.126331  0  1.012241  0
H  H50  1  0.96724446  0.76018476  0.71556079  1  0.070863  0  0.091419  0.131175  0  1.013945  0
H  H51  1  0.35804653  0.79300285  0.73759637  1  0.00048  0  0.087998  0.120298  0  1.027681  0
H  H52  1  0.28942739  0.72979926  0.73300434  1  0.025118  0  0.088606  0.121939  0  1.017696  0
H  H53  1  0.42136859  0.64335741  0.68713152  1  0.020412  0  0.086612  0.11331  0  1.012083  0
H  H54  1  0.25384095  0.59291331  0.62514573  1  0.034938  0  0.0971  0.139296  0  1.024761  0
H  H55  1  0.00385326  0.64810083  0.66975420  1  0.053589  0  0.091428  0.130467  0  1.009425  0
H  H56  1  0.41496097  0.12219802  0.97729158  1  0.027111  0  0.087289  0.115337  0  1.009015  0
H  H57  1  0.22265199  0.13495461  0.92920573  1  0.093506  0  0.09685  0.138295  0  1.02403  0
H  H58  1  0.99641746  0.14494541  0.98633499  1  0.034706  0  0.091563  0.1295  0  1.010028  0
H  H59  1  0.96558502  0.21061587  0.09612780  1  0.036882  0  0.091271  0.130956  0  1.013396  0
H  H60  1  0.35687682  0.22243725  0.12881670  1  0.040652  0  0.087926  0.119998  0  1.029664  0
H  H61  1  0.29222286  0.16348969  0.06591985  1  0.06466  0  0.088603  0.121713  0  1.016893  0
H  H62  1  0.50966498  0.34526795  0.97629938  1  0.019807  0  0.087287  0.115279  0  1.013411  0
H  H63  1  0.74000231  0.28713650  0.93179724  1  0.051802  0  0.097504  0.139939  0  1.027167  0
H  H64  1  0.92663827  0.33770456  0.99167220  1  0.041027  0  0.090336  0.127222  0  1.010267  0
H  H65  1  0.91099121  0.38344520  0.09606398  1  0.030774  0  0.090353  0.129418  0  1.008489  0
H  H66  1  0.52044402  0.39849087  0.12940944  1  0.036613  0  0.08457  0.111017  0  1.066872  0
H  H67  1  0.56109303  0.39486605  0.06594642  1  0.028967  0  0.086732  0.118199  0  1.016003  0
H  H68  1  0.79818920  0.27955815  0.19815371  1  0.021212  0  0.084784  0.116079  0  1.055027  0
H  H69  1  0.63296641  0.26749501  0.24868331  1  0.008887  0  0.085667  0.11438  0  1.010694  0
H  H70  1  0.04007232  0.29369072  0.25567593  1  0.057264  0  0.089083  0.124383  0  1.020379  0
H  H71  1  0.59296853  0.30884222  0.34046843  1  0.02656  0  0.086  0.113442  0  1.011496  0
H  H72  1  0.67183382  0.37090223  0.40021144  1  0.01754  0  0.095823  0.137117  0  1.024644  0
H  H73  1  0.99176028  0.33912091  0.35196493  1  0.034063  0  0.092428  0.132772  0  1.010074  0
H  H74  1  0.20375510  0.43992098  0.21093699  1  0.057391  0  0.086925  0.116832  0  1.03495  0
H  H75  1  0.59960087  0.47096179  0.22660512  1  0.033949  0  0.088921  0.121864  0  1.007481  0
H  H76  1  0.25845048  0.50305338  0.27050597  1  0.010263  0  0.089557  0.123481  0  1.021275  0
H  H77  1  0.46512485  0.54560134  0.35757881  1  0.028386  0  0.087058  0.116516  0  1.007976  0
H  H78  1  0.28837007  0.53179300  0.40602419  1  0.041123  0  0.097179  0.140674  0  1.023261  0
H  H79  1  0.05030842  0.52117065  0.34988768  1  0.040688  0  0.090874  0.127974  0  1.014678  0
C  C80  1  0.49657808  0.45900399  0.41672325  1  1.575022  0  0.281443  0.679155  0  4.048776  0
C  C81  1  0.49193839  0.45509930  0.53955000  1  1.535339  0  0.281952  0.676669  0  4.052342  0
C  C82  1  0.49432309  0.58151382  0.54288984  1  1.591616  0  0.281129  0.675869  0  4.051805  0
C  C83  1  0.48258449  0.20967226  0.79488961  1  1.556856  0  0.282216  0.679478  0  4.048021  0
C  C84  1  0.48011819  0.08228609  0.78937009  1  1.544409  0  0.282266  0.678277  0  4.049998  0
C  C85  1  0.47757568  0.20441097  0.91658964  1  1.562787  0  0.2811  0.676952  0  4.052216  0
C  C86  1  0.49894311  0.24153275  0.76648151  1  -0.046879  0  -0.014842  -0.15346  0  3.938122  0
C  C87  1  0.61219923  0.21614678  0.71299382  1  0.045173  0  -0.010141  0.086395  0  3.951881  0
C  C88  1  0.64490355  0.24688971  0.68714701  1  0.027589  0  -0.012062  0.057899  0  3.929234  0
C  C89  1  0.56495058  0.30224929  0.71564037  1  -0.06768  0  -0.014284  -0.006015  0  3.963967  0
C  C90  1  0.44955186  0.32699479  0.76947243  1  -0.026323  0  -0.013443  0.056251  0  3.927285  0
C  C91  1  0.41412754  0.29652785  0.79529935  1  0.056531  0  -0.009212  0.091079  0  3.950599  0
C  C92  1  0.61266059  0.33709082  0.69144167  1  -0.116998  0  -0.088093  -0.109855  0  3.977674  0
C  C93  1  0.42197136  0.33560849  0.65213103  1  -0.067864  0  -0.094171  -0.126898  0  3.997574  0
C  C94  1  0.36240399  0.34191132  0.56987750  1  0.011477  0  -0.012691  0.052623  0  3.925447  0
C  C95  1  0.45293286  0.36771219  0.62511983  1  0.00197  0  -0.016409  -0.006373  0  3.973589  0
C  C96  1  0.55707071  0.42238889  0.65200626  1  -0.020193  0  -0.01085  0.06155  0  3.912395  0
C  C97  1  0.57838206  0.45039074  0.62329883  1  -0.037638  0  -0.009342  0.08807  0  3.946109  0
C  C98  1  0.48414633  0.42408995  0.56889299  1  0.086174  0  -0.014206  -0.14933  0  3.93537  0
C  C99  1  0.37315836  0.37035035  0.54167453  1  -0.024306  0  -0.009983  0.087997  0  3.954687  0
C  C100  1  0.49687782  0.02199758  0.75766042  1  -0.05058  0  -0.015149  -0.153415  0  3.937314  0
C  C101  1  0.61522949  0.99417711  0.78299298  1  0.008783  0  -0.009405  0.086123  0  3.951577  0
C  C102  1  0.65216181  0.93766147  0.75225819  1  -0.039978  0  -0.012261  0.056805  0  3.931453  0
C  C103  1  0.56919836  0.91058182  0.69708245  1  0.013901  0  -0.013686  -0.00421  0  3.963227  0
C  C104  1  0.44705247  0.93929035  0.67242995  1  0.053165  0  -0.01407  0.055442  0  3.927526  0
C  C105  1  0.40912422  0.99556230  0.70282465  1  0.025245  0  -0.009205  0.088762  0  3.952553  0
C  C106  1  0.62073797  0.85160086  0.66242595  1  -0.060854  0  -0.087383  -0.108442  0  3.975782  0
C  C107  1  0.42380770  0.81349855  0.66243500  1  -0.120105  0  -0.094478  -0.128202  0  4.001908  0
C  C108  1  0.35827870  0.72479060  0.65564444  1  0.023931  0  -0.01289  0.054249  0  3.924903  0
C  C109  1  0.45540563  0.75442492  0.63024342  1  0.053207  0  -0.016398  -0.007682  0  3.976388  0
C  C110  1  0.56660003  0.72687954  0.57596790  1  -0.085262  0  -0.011046  0.060176  0  3.913639  0
C  C111  1  0.58701060  0.67016610  0.54792765  1  0.028058  0  -0.009039  0.088862  0  3.944454  0
C  C112  1  0.48735128  0.64187202  0.57388080  1  -0.103957  0  -0.013766  -0.147932  0  3.933246  0
C  C113  1  0.37105185  0.66818727  0.62729872  1  -0.016943  0  -0.0104  0.087484  0  3.953802  0
C  C114  1  0.47344532  0.23412422  0.97691421  1  -0.020971  0  -0.014326  -0.148828  0  3.933696  0
C  C115  1  0.57240019  0.28840288  0.00471648  1  0.09728  0  -0.009143  0.089466  0  3.945439  0
C  C116  1  0.55527950  0.31731061  0.06141021  1  -0.065745  0  -0.010575  0.060983  0  3.913282  0
C  C117  1  0.44915466  0.29075559  0.08944462  1  -0.01462  0  -0.016428  -0.007466  0  3.976519  0
C  C118  1  0.35193892  0.23570252  0.06029385  1  -0.044655  0  -0.013153  0.053616  0  3.924818  0
C  C119  1  0.35976609  0.20729822  0.00369704  1  0.029287  0  -0.010133  0.087105  0  3.954235  0
C  C120  1  0.42290952  0.31795108  0.14855550  1  -0.080877  0  -0.094161  -0.126985  0  4.000555  0
C  C121  1  0.61885062  0.35674306  0.18601874  1  -0.072849  0  -0.0879  -0.109735  0  3.97756  0
C  C122  1  0.45980369  0.43467071  0.27445507  1  -0.016377  0  -0.013905  0.055883  0  3.927398  0
C  C123  1  0.57366106  0.38079907  0.24502984  1  -0.017512  0  -0.013937  -0.005165  0  3.964718  0
C  C124  1  0.65375023  0.35196930  0.27150468  1  0.002232  0  -0.012248  0.057562  0  3.930513  0
C  C125  1  0.62173716  0.37745664  0.32803748  1  0.070888  0  -0.010034  0.085712  0  3.952497  0
C  C126  1  0.51009781  0.43101160  0.35650568  1  -0.098348  0  -0.015032  -0.153721  0  3.937197  0
C  C127  1  0.42638765  0.46024229  0.33073568  1  0.003572  0  -0.009146  0.090885  0  3.948967  0
C  C128  1  0.28658041  0.32188439  0.85245584  1  -0.068939  0  -0.239389  -0.403526  0  3.957211  0
C  C129  1  0.36353453  0.38615049  0.79818315  1  -0.055163  0  -0.240041  -0.396365  0  3.98127  0
C  C130  1  0.71286365  0.15761630  0.68374502  1  -0.129539  0  -0.240506  -0.403479  0  3.958923  0
C  C131  1  0.77688406  0.21952265  0.63029517  1  -0.019656  0  -0.242369  -0.398515  0  3.98931  0
C  C132  1  0.63544485  0.45295453  0.71136042  1  -0.039522  0  -0.244763  -0.406978  0  3.994518  0
C  C133  1  0.70024596  0.50796909  0.65078360  1  -0.068403  0  -0.23875  -0.399907  0  3.9514  0
C  C134  1  0.25219421  0.28364700  0.54062556  1  -0.045648  0  -0.24205  -0.40615  0  3.987845  0
C  C135  1  0.26087404  0.34402695  0.48376183  1  -0.085501  0  -0.23889  -0.400355  0  3.958349  0
C  C136  1  0.27494317  0.02682253  0.67737501  1  -0.091525  0  -0.239085  -0.402784  0  3.957073  0
C  C137  1  0.35991707  0.90869324  0.61337030  1  -0.080173  0  -0.240958  -0.398016  0  3.982956  0
C  C138  1  0.71599660  0.02366901  0.84146648  1  -0.059425  0  -0.240682  -0.403046  0  3.957977  0
C  C139  1  0.79180905  0.90841344  0.77930097  1  -0.015494  0  -0.242966  -0.398809  0  3.987759  0
C  C140  1  0.65345160  0.75566206  0.54560433  1  0.002413  0  -0.245238  -0.406637  0  3.995204  0
C  C141  1  0.71344882  0.64043116  0.49065552  1  -0.0024  0  -0.23926  -0.400075  0  3.953068  0
C  C142  1  0.23878114  0.75354352  0.71338837  1  -0.053313  0  -0.24254  -0.407448  0  3.984974  0
C  C143  1  0.25733623  0.63638212  0.65343684  1  -0.043825  0  -0.239495  -0.401986  0  3.956664  0
C  C144  1  0.24343687  0.14947494  0.97241237  1  -0.0934  0  -0.239213  -0.401003  0  3.955301  0
C  C145  1  0.23728782  0.20675744  0.08941412  1  -0.118043  0  -0.241886  -0.406558  0  3.986027  0
C  C146  1  0.69303076  0.31575396  0.97443012  1  -0.05388  0  -0.239318  -0.401517  0  3.953992  0
C  C147  1  0.64028763  0.37652495  0.08982730  1  -0.087097  0  -0.245126  -0.406948  0  3.994819  0
C  C148  1  0.78741110  0.29525914  0.24165039  1  -0.063631  0  -0.242557  -0.400086  0  3.988352  0
C  C149  1  0.72286840  0.34783546  0.35689072  1  -0.023242  0  -0.240525  -0.402267  0  3.956923  0
C  C150  1  0.37516660  0.46386292  0.24446618  1  -0.063163  0  -0.240728  -0.397433  0  3.983943  0
C  C151  1  0.30205426  0.51754888  0.36280575  1  -0.031995  0  -0.239528  -0.404653  0  3.95875  0
O  O152  1  0.73019026  0.55733065  0.55198343  1  -1.259284  0  -0.23419  -0.596504  0  2.381075  0
O  O153  1  0.73029457  0.49256071  0.44199135  1  -1.264091  0  -0.235303  -0.603238  0  2.395013  0
O  O154  1  0.72893512  0.44605835  0.50631784  1  -1.254604  0  -0.233798  -0.596982  0  2.378043  0
O  O155  1  0.26011690  0.55782941  0.50897925  1  -1.260796  0  -0.234141  -0.60018  0  2.393028  0
O  O156  1  0.25800411  0.48906813  0.54971907  1  -1.265812  0  -0.234797  -0.60173  0  2.391432  0
O  O157  1  0.25843504  0.44805262  0.43928933  1  -1.261217  0  -0.233893  -0.597466  0  2.377431  0
O  O158  1  0.71234719  0.17089609  0.89211895  1  -1.263063  0  -0.234045  -0.597631  0  2.37627  0
O  O159  1  0.71397404  0.21797670  0.82872964  1  -1.269916  0  -0.236682  -0.605041  0  2.391884  0
O  O160  1  0.71217940  0.10792823  0.78109548  1  -1.263411  0  -0.235816  -0.603887  0  2.388997  0
O  O161  1  0.24217477  0.21467105  0.89319652  1  -1.25791  0  -0.233631  -0.600224  0  2.39436  0
O  O162  1  0.24028572  0.10459348  0.82250596  1  -1.265184  0  -0.23283  -0.596651  0  2.381104  0
O  O163  1  0.24310559  0.17641988  0.78392649  1  -1.251888  0  -0.233266  -0.595677  0  2.378999  0
