# generated using pymatgen
data_ZnH9C6SN2O7
_symmetry_space_group_name_H-M   'P 1'
_cell_length_a   6.33315100
_cell_length_b   7.70472321
_cell_length_c   20.46650000
_cell_angle_alpha   90.00000000
_cell_angle_beta   94.14660291
_cell_angle_gamma   90.00000000
_symmetry_Int_Tables_number   1
_chemical_formula_structural   ZnH9C6SN2O7
_chemical_formula_sum   'Zn4 H36 C24 S4 N8 O28'
_cell_volume   996.05224911
_cell_formula_units_Z   4
loop_
 _symmetry_equiv_pos_site_id
 _symmetry_equiv_pos_as_xyz
  1  'x, y, z'
loop_
 _atom_site_type_symbol
 _atom_site_label
 _atom_site_symmetry_multiplicity
 _atom_site_fract_x
 _atom_site_fract_y
 _atom_site_fract_z
 _atom_site_occupancy
 _atom_site_hle17_bader_spin_density
 _atom_site_hle17_ddec_charge
 _atom_site_hle17_ddec_spin_density
 _atom_site_hle17_ddec_sum_bond_order
 _atom_site_hle17_magmom
 _atom_site_hse06_10hf_bader_spin_density
 _atom_site_hse06_10hf_ddec_charge
 _atom_site_hse06_10hf_ddec_spin_density
 _atom_site_hse06_10hf_ddec_sum_bond_order
 _atom_site_hse06_10hf_magmom
 _atom_site_hse06_bader_spin_density
 _atom_site_hse06_ddec_charge
 _atom_site_hse06_ddec_spin_density
 _atom_site_hse06_ddec_sum_bond_order
 _atom_site_hse06_magmom
 _atom_site_pbe_bader_charge
 _atom_site_pbe_bader_spin_density
 _atom_site_pbe_cm5_charge
 _atom_site_pbe_ddec_charge
 _atom_site_pbe_ddec_spin_density
 _atom_site_pbe_ddec_sum_bond_order
 _atom_site_pbe_magmom
Zn  Zn0  1  0.21363959  0.40675180  0.28789165  1  0  1.163787  0  1.722118  0  0  1.001833  0  2.160913  0  0  1.045071  0  2.107174  0  1.360508  0  0.693055  0.971339  0  2.198004  0
Zn  Zn1  1  0.78636473  0.90675418  0.21210952  1  0  1.163798  0  1.722054  0  0  1.001785  0  2.160897  0  0  1.045022  0  2.107159  0  1.360413  0  0.693031  0.971289  0  2.197988  0
Zn  Zn2  1  0.78635998  0.59324130  0.71210648  1  0  1.163889  0  1.722074  0  0  1.001869  0  2.160958  0  0  1.045109  0  2.107216  0  1.36044  0  0.693089  0.971382  0  2.198053  0
Zn  Zn3  1  0.21364117  0.09324151  0.78789169  1  0  1.163803  0  1.722085  0  0  1.001762  0  2.160997  0  0  1.045  0  2.107256  0  1.360457  0  0.693044  0.97127  0  2.198091  0
H  H4  1  0.08418489  0.46929006  0.42713272  1  0  0.088047  0  0.930173  0  0  0.09727  0  0.992819  0  0  0.099996  0  0.990507  0  0.111824  0  0.11808  0.095257  0  0.994525  0
H  H5  1  0.91581468  0.96928985  0.07286737  1  0  0.088042  0  0.930174  0  0  0.097267  0  0.992824  0  0  0.099991  0  0.990513  0  0.111824  0  0.118085  0.095254  0  0.99453  0
H  H6  1  0.91580835  0.53070563  0.57286381  1  0  0.088075  0  0.930108  0  0  0.097276  0  0.992793  0  0  0.099991  0  0.990502  0  0.111762  0  0.118093  0.095293  0  0.994465  0
H  H7  1  0.08419281  0.03070195  0.92713485  1  0  0.088063  0  0.930171  0  0  0.097266  0  0.992851  0  0  0.099976  0  0.990558  0  0.11172  0  0.118094  0.095262  0  0.994546  0
H  H8  1  0.22883770  0.39339505  0.54292011  1  0  0.11435  0  0.954215  0  0  0.122096  0  1.016346  0  0  0.125339  0  1.015233  0  0.126089  0  0.106564  0.119805  0  1.017204  0
H  H9  1  0.77115870  0.89339614  0.95708040  1  0  0.114367  0  0.954239  0  0  0.122131  0  1.016342  0  0  0.125374  0  1.015231  0  0.126139  0  0.106582  0.119842  0  1.017194  0
H  H10  1  0.77116028  0.60661362  0.45707652  1  0  0.114297  0  0.954292  0  0  0.122059  0  1.016396  0  0  0.125295  0  1.015299  0  0.125929  0  0.106545  0.119771  0  1.017244  0
H  H11  1  0.22884245  0.10659955  0.04292217  1  0  0.114312  0  0.954238  0  0  0.122067  0  1.016354  0  0  0.12531  0  1.015243  0  0.126038  0  0.106553  0.11978  0  1.017203  0
H  H12  1  0.55826793  0.21963151  0.55823733  1  0  0.130387  0  0.947586  0  0  0.140712  0  1.003351  0  0  0.144544  0  1.000198  0  0.16251  0  0.115115  0.137861  0  1.005828  0
H  H13  1  0.44173005  0.71963130  0.94176516  1  0  0.13041  0  0.947604  0  0  0.140739  0  1.003368  0  0  0.144582  0  1.000203  0  0.162579  0  0.115125  0.137885  0  1.005854  0
H  H14  1  0.44173164  0.78038365  0.44176178  1  0  0.130432  0  0.947765  0  0  0.14079  0  1.00345  0  0  0.144589  0  1.000346  0  0.162414  0  0.115184  0.137943  0  1.005917  0
H  H15  1  0.55826635  0.28037088  0.05823681  1  0  0.13037  0  0.947664  0  0  0.140688  0  1.003431  0  0  0.144517  0  1.000283  0  0.162492  0  0.115102  0.137843  0  1.005892  0
H  H16  1  0.56528598  0.19446773  0.34747505  1  0  0.112446  0  0.936622  0  0  0.117882  0  1.00222  0  0  0.120971  0  0.999022  0  0.121752  0  0.125852  0.115578  0  1.004581  0
H  H17  1  0.43471834  0.69446882  0.15252758  1  0  0.112504  0  0.936664  0  0  0.117925  0  1.002265  0  0  0.121013  0  0.999068  0  0.121794  0  0.125868  0.11562  0  1.004627  0
H  H18  1  0.43471992  0.80552537  0.65252420  1  0  0.112445  0  0.936655  0  0  0.117867  0  1.002299  0  0  0.120963  0  0.999091  0  0.12186  0  0.12586  0.115562  0  1.004661  0
H  H19  1  0.56528123  0.30552687  0.84747495  1  0  0.112436  0  0.936618  0  0  0.117865  0  1.002256  0  0  0.120961  0  0.999048  0  0.121847  0  0.125856  0.11556  0  1.004618  0
H  H20  1  0.83108360  0.06512629  0.41085179  1  0  0.309698  0  0.894823  0  0  0.287693  0  0.963536  0  0  0.296155  0  0.956812  0  0.519847  0  0.315575  0.281631  0  0.968392  0
H  H21  1  0.16892072  0.56511959  0.08915036  1  0  0.30964  0  0.894795  0  0  0.287663  0  0.963503  0  0  0.296122  0  0.956783  0  0.519974  0  0.315554  0.281598  0  0.968361  0
H  H22  1  0.16894130  0.93488238  0.58915766  1  0  0.309672  0  0.894973  0  0  0.287655  0  0.963714  0  0  0.296115  0  0.956991  0  0.519941  0  0.315514  0.281588  0  0.968577  0
H  H23  1  0.83105827  0.43488259  0.91084340  1  0  0.30971  0  0.894923  0  0  0.2877  0  0.963666  0  0  0.296163  0  0.956941  0  0.519972  0  0.315529  0.281632  0  0.96853  0
H  H24  1  0.99919217  0.45182415  0.16987819  1  0  0.438695  0  0.822548  0  0  0.409411  0  0.89608  0  0  0.419223  0  0.884166  0  0.65761  0  0.309276  0.402439  0  0.904556  0
H  H25  1  0.00081057  0.95183043  0.33012294  1  0  0.438716  0  0.822573  0  0  0.409428  0  0.896104  0  0  0.419241  0  0.884184  0  0.657545  0  0.309282  0.402455  0  0.904584  0
H  H26  1  0.00080898  0.54815856  0.83011900  1  0  0.438669  0  0.822632  0  0  0.409376  0  0.896167  0  0  0.419186  0  0.884255  0  0.657586  0  0.309263  0.402404  0  0.904645  0
H  H27  1  0.99919217  0.04816007  0.66987917  1  0  0.438662  0  0.822626  0  0  0.409375  0  0.896158  0  0  0.419186  0  0.884245  0  0.657573  0  0.309268  0.402404  0  0.904634  0
H  H28  1  0.37263721  0.70363722  0.31618285  1  0  0.431638  0  0.837374  0  0  0.401147  0  0.913209  0  0  0.411179  0  0.901536  0  0.620142  0  0.303043  0.394023  0  0.921464  0
H  H29  1  0.62736395  0.20363872  0.18381874  1  0  0.43154  0  0.83747  0  0  0.401091  0  0.913251  0  0  0.411124  0  0.90158  0  0.620149  0  0.303048  0.393967  0  0.921506  0
H  H30  1  0.62736395  0.29635458  0.68381728  1  0  0.431635  0  0.837347  0  0  0.401166  0  0.913151  0  0  0.4112  0  0.901474  0  0.620134  0  0.303085  0.394043  0  0.921405  0
H  H31  1  0.37263879  0.79635307  0.81618093  1  0  0.4316  0  0.837392  0  0  0.40114  0  0.913183  0  0  0.411173  0  0.901513  0  0.620076  0  0.303072  0.394018  0  0.921436  0
H  H32  1  0.20115497  0.33166019  0.16631360  1  0  0.423154  0  0.873998  0  0  0.391473  0  0.944493  0  0  0.401946  0  0.929251  0  0.643899  0  0.293838  0.384073  0  0.95523  0
H  H33  1  0.79884935  0.83166388  0.33368757  1  0  0.423144  0  0.873993  0  0  0.39143  0  0.944529  0  0  0.401931  0  0.929266  0  0.643931  0  0.293816  0.384033  0  0.95526  0
H  H34  1  0.79885093  0.66832511  0.83368419  1  0  0.422919  0  0.874244  0  0  0.391254  0  0.944758  0  0  0.401742  0  0.929499  0  0.643946  0  0.293756  0.383862  0  0.955481  0
H  H35  1  0.20115339  0.16832532  0.66631454  1  0  0.422871  0  0.874279  0  0  0.391206  0  0.944818  0  0  0.401692  0  0.929561  0  0.644044  0  0.29375  0.383813  0  0.955542  0
H  H36  1  0.17911612  0.73422625  0.26528839  1  0  0.422581  0  0.867401  0  0  0.391666  0  0.94434  0  0  0.401493  0  0.931655  0  0.643516  0  0.299328  0.384663  0  0.952183  0
H  H37  1  0.82088503  0.23422775  0.23471320  1  0  0.42257  0  0.867377  0  0  0.391642  0  0.944323  0  0  0.401468  0  0.931673  0  0.643521  0  0.299324  0.384639  0  0.952165  0
H  H38  1  0.82088662  0.26576944  0.73471226  1  0  0.422564  0  0.867399  0  0  0.391659  0  0.94431  0  0  0.401486  0  0.931648  0  0.643508  0  0.29935  0.384657  0  0.952151  0
H  H39  1  0.17911770  0.76576924  0.76528549  1  0  0.422529  0  0.867368  0  0  0.391598  0  0.944315  0  0  0.401423  0  0.931716  0  0.643504  0  0.299305  0.384597  0  0.952154  0
C  C40  1  0.22525032  0.38983750  0.43700005  1  0  0.115535  0  3.691997  0  0  0.079392  0  3.951824  0  0  0.084887  0  3.971031  0  0.48489  0  0.041097  0.076007  0  3.938733  0
C  C41  1  0.77475084  0.88983599  0.06299909  1  0  0.115694  0  3.692249  0  0  0.079507  0  3.952057  0  0  0.085002  0  3.971266  0  0.498914  0  0.041125  0.076121  0  3.938967  0
C  C42  1  0.77474767  0.61016598  0.56299658  1  0  0.115462  0  3.692058  0  0  0.079302  0  3.951913  0  0  0.084801  0  3.971124  0  0.484898  0  0.04105  0.075897  0  3.938814  0
C  C43  1  0.22525348  0.11016230  0.93700159  1  0  0.115589  0  3.692289  0  0  0.079421  0  3.952126  0  0  0.084928  0  3.97133  0  0.485302  0  0.041091  0.076031  0  3.939031  0
C  C44  1  0.30521615  0.34784767  0.50009388  1  0  -0.111478  0  3.759896  0  0  -0.12586  0  4.022916  0  0  -0.132492  0  4.045857  0  -0.090774  0  -0.087664  -0.121649  0  4.007617  0
C  C45  1  0.69477867  0.84784876  0.99990708  1  0  -0.111603  0  3.760053  0  0  -0.125992  0  4.023126  0  0  -0.132627  0  4.046071  0  -0.104522  0  -0.087699  -0.121779  0  4.007827  0
C  C46  1  0.69477867  0.65215970  0.49990415  1  0  -0.111362  0  3.759909  0  0  -0.12576  0  4.022929  0  0  -0.132391  0  4.045854  0  -0.090434  0  -0.087664  -0.12155  0  4.007639  0
C  C47  1  0.30521457  0.15215083  0.00009482  1  0  -0.111479  0  3.759868  0  0  -0.125866  0  4.022877  0  0  -0.132498  0  4.045815  0  -0.090736  0  -0.087667  -0.121654  0  4.007581  0
C  C48  1  0.49050334  0.25057746  0.50936712  1  0  -0.096552  0  3.659332  0  0  -0.126534  0  3.914705  0  0  -0.125676  0  3.932374  0  0.012186  0  -0.072912  -0.126893  0  3.902875  0
C  C49  1  0.50949307  0.75057336  0.99063534  1  0  -0.096449  0  3.659292  0  0  -0.126504  0  3.914667  0  0  -0.12565  0  3.932322  0  0.01207  0  -0.072899  -0.126867  0  3.902842  0
C  C50  1  0.50949148  0.74944029  0.49063091  1  0  -0.096757  0  3.659711  0  0  -0.126748  0  3.91501  0  0  -0.125871  0  3.932696  0  0.0122  0  -0.073005  -0.127104  0  3.90318  0
C  C51  1  0.49050492  0.24942363  0.00936911  1  0  -0.09648  0  3.659326  0  0  -0.126468  0  3.914629  0  0  -0.125613  0  3.932306  0  0.01212  0  -0.072922  -0.126824  0  3.902802  0
C  C52  1  0.58945732  0.19515821  0.45382881  1  0  0.209392  0  3.758443  0  0  0.207112  0  4.007634  0  0  0.210472  0  4.029837  0  0.319794  0  0.107275  0.204507  0  3.992556  0
C  C53  1  0.41053592  0.69516190  0.04617407  1  0  0.209253  0  3.758663  0  0  0.207155  0  4.007675  0  0  0.210512  0  4.02988  0  0.319502  0  0.107297  0.204546  0  3.992599  0
C  C54  1  0.41054542  0.80484397  0.54617184  1  0  0.209333  0  3.758338  0  0  0.207134  0  4.007447  0  0  0.210499  0  4.029634  0  0.319693  0  0.107237  0.204526  0  3.992368  0
C  C55  1  0.58945098  0.30483898  0.95382866  1  0  0.209105  0  3.758415  0  0  0.206964  0  4.007496  0  0  0.210327  0  4.029693  0  0.319657  0  0.10725  0.204353  0  3.992418  0
C  C56  1  0.49551397  0.23844075  0.39176296  1  0  0.060531  0  3.621801  0  0  0.024171  0  3.871633  0  0  0.029827  0  3.886335  0  0.604321  0  0.055843  0.020716  0  3.861669  0
C  C57  1  0.50449035  0.73843405  0.10823870  1  0  0.060544  0  3.622044  0  0  0.024154  0  3.871743  0  0  0.029812  0  3.886438  0  0.603866  0  0.055781  0.0207  0  3.861778  0
C  C58  1  0.50450144  0.76155234  0.60824090  1  0  0.06077  0  3.621616  0  0  0.024361  0  3.871373  0  0  0.029979  0  3.886142  0  0.604148  0  0.055951  0.020906  0  3.861408  0
C  C59  1  0.49550130  0.26154995  0.89175926  1  0  0.060851  0  3.621627  0  0  0.024411  0  3.871391  0  0  0.030028  0  3.88616  0  0.604079  0  0.055922  0.020957  0  3.861425  0
C  C60  1  0.90007671  0.04889858  0.50914338  1  0  0.430616  0  3.863507  0  0  0.386984  0  4.156343  0  0  0.411423  0  4.1579  0  1.43259  0  0.239646  0.370261  0  4.155424  0
C  C61  1  0.09991019  0.54890486  0.99086180  1  0  0.430491  0  3.863225  0  0  0.386891  0  4.156081  0  0  0.411306  0  4.157662  0  1.432553  0  0.239635  0.370173  0  4.155152  0
C  C62  1  0.09993711  0.95114124  0.49086240  1  0  0.430831  0  3.863388  0  0  0.387309  0  4.156088  0  0  0.411742  0  4.157641  0  1.41107  0  0.239822  0.370594  0  4.155163  0
C  C63  1  0.90006721  0.45112328  0.00913974  1  0  0.430966  0  3.863548  0  0  0.387456  0  4.156239  0  0  0.411915  0  4.157761  0  1.410893  0  0.23983  0.370733  0  4.15532  0
S  S64  1  0.27901523  0.02549086  0.21644115  1  0  1.576014  0  5.803597  0  0  1.448533  0  6.336894  0  0  1.504295  0  6.303136  0  3.805019  0  0.569345  1.409949  0  6.359122  0
S  S65  1  0.72098592  0.52548935  0.28355995  1  0  1.575952  0  5.803387  0  0  1.448451  0  6.336715  0  0  1.504208  0  6.302956  0  3.805023  0  0.569342  1.409866  0  6.358943  0
S  S66  1  0.72098592  0.97450224  0.78355800  1  0  1.576227  0  5.803128  0  0  1.448764  0  6.336405  0  0  1.504525  0  6.302631  0  3.805025  0  0.569482  1.410184  0  6.358638  0
S  S67  1  0.27901682  0.47450115  0.71644021  1  0  1.576065  0  5.803308  0  0  1.448512  0  6.336674  0  0  1.504259  0  6.302914  0  3.804997  0  0.569404  1.409943  0  6.358896  0
N  N68  1  0.32024012  0.33512041  0.38395531  1  0  -0.306959  0  3.31012  0  0  -0.230799  0  3.581776  0  0  -0.248635  0  3.599714  0  -1.249587  0  -0.321368  -0.218697  0  3.569337  0
N  N69  1  0.67975945  0.83512280  0.11604429  1  0  -0.307117  0  3.310324  0  0  -0.230856  0  3.581869  0  0  -0.248692  0  3.599806  0  -1.249386  0  -0.321335  -0.218753  0  3.569429  0
N  N70  1  0.67976578  0.66487398  0.61604296  1  0  -0.307053  0  3.310394  0  0  -0.230827  0  3.582028  0  0  -0.248648  0  3.599944  0  -1.249723  0  -0.321409  -0.218727  0  3.5696  0
N  N71  1  0.32023062  0.16487419  0.88395657  1  0  -0.307185  0  3.310508  0  0  -0.230928  0  3.582116  0  0  -0.24875  0  3.600034  0  -1.249851  0  -0.321439  -0.218825  0  3.569678  0
N  N72  1  0.77867385  0.10131967  0.45535228  1  0  -0.411781  0  3.401645  0  0  -0.355963  0  3.635002  0  0  -0.378777  0  3.648356  0  -1.308504  0  -0.383683  -0.34002  0  3.62576  0
N  N73  1  0.22132414  0.60131557  0.04464875  1  0  -0.4116  0  3.40162  0  0  -0.355952  0  3.635073  0  0  -0.378764  0  3.648447  0  -1.308646  0  -0.38368  -0.340004  0  3.625823  0
N  N74  1  0.22132889  0.89869809  0.54465472  1  0  -0.411917  0  3.401584  0  0  -0.356147  0  3.634867  0  0  -0.378962  0  3.648228  0  -1.308298  0  -0.383676  -0.340207  0  3.625639  0
N  N75  1  0.77866594  0.39869700  0.95534575  1  0  -0.411866  0  3.40157  0  0  -0.356165  0  3.634894  0  0  -0.378984  0  3.648234  0  -1.308427  0  -0.383677  -0.340215  0  3.625658  0
O  O76  1  0.86183446  0.07376255  0.56684436  1  0  -0.496644  0  1.9816  0  0  -0.45384  0  2.198349  0  0  -0.472331  0  2.194424  0  -1.124169  0  -0.273774  -0.441419  0  2.20121  0
O  O77  1  0.13815403  0.57377402  0.93315548  1  0  -0.496621  0  1.981241  0  0  -0.45384  0  2.198014  0  0  -0.47233  0  2.194102  0  -1.123946  0  -0.273769  -0.441419  0  2.200874  0
O  O78  1  0.13817145  0.92627987  0.43316710  1  0  -0.496538  0  1.981613  0  0  -0.453801  0  2.198393  0  0  -0.472284  0  2.194468  0  -1.125206  0  -0.273789  -0.441384  0  2.201251  0
O  O79  1  0.86183287  0.42626061  0.06683260  1  0  -0.496707  0  1.9819  0  0  -0.453898  0  2.198593  0  0  -0.472395  0  2.194662  0  -1.124773  0  -0.273814  -0.441481  0  2.201455  0
O  O80  1  0.19857129  0.13388670  0.26958220  1  0  -0.747915  0  2.053567  0  0  -0.676394  0  2.329543  0  0  -0.700804  0  2.311454  0  -1.340866  0  -0.354415  -0.659231  0  2.34154  0
O  O81  1  0.80142986  0.63388650  0.23041939  1  0  -0.74788  0  2.053479  0  0  -0.676342  0  2.329449  0  0  -0.700748  0  2.311358  0  -1.340801  0  -0.35439  -0.659179  0  2.341446  0
O  O82  1  0.80142828  0.86610899  0.73041544  1  0  -0.748008  0  2.053571  0  0  -0.676513  0  2.329567  0  0  -0.700922  0  2.311473  0  -1.340677  0  -0.354433  -0.659352  0  2.341565  0
O  O83  1  0.19857446  0.36610919  0.76958325  1  0  -0.747996  0  2.053567  0  0  -0.67643  0  2.329528  0  0  -0.700826  0  2.31143  0  -1.340838  0  -0.354415  -0.65928  0  2.34153  0
O  O84  1  0.11324496  0.89073414  0.19679572  1  0  -0.754598  0  2.012436  0  0  -0.685031  0  2.290049  0  0  -0.708798  0  2.269635  0  -1.327169  0  -0.356871  -0.668313  0  2.303592  0
O  O85  1  0.88675936  0.39073305  0.30320447  1  0  -0.754582  0  2.012408  0  0  -0.685015  0  2.290013  0  0  -0.708777  0  2.269599  0  -1.327206  0  -0.356884  -0.668299  0  2.303556  0
O  O86  1  0.88675936  0.10925766  0.80320301  1  0  -0.754617  0  2.012311  0  0  -0.685043  0  2.289898  0  0  -0.708807  0  2.269484  0  -1.327128  0  -0.356862  -0.668337  0  2.30345  0
O  O87  1  0.11323862  0.60925745  0.69679362  1  0  -0.754613  0  2.012309  0  0  -0.684955  0  2.289855  0  0  -0.708705  0  2.269438  0  -1.327126  0  -0.356872  -0.668267  0  2.303417  0
O  O88  1  0.47079645  0.92945714  0.24199875  1  0  -0.751531  0  2.068467  0  0  -0.68575  0  2.353439  0  0  -0.709797  0  2.333861  0  -1.349118  0  -0.359088  -0.668694  0  2.366119  0
O  O89  1  0.52920471  0.42945605  0.25800235  1  0  -0.751516  0  2.068417  0  0  -0.685694  0  2.353309  0  0  -0.709775  0  2.333809  0  -1.349077  0  -0.359107  -0.668636  0  2.365985  0
O  O90  1  0.52920471  0.07054115  0.75800186  1  0  -0.751598  0  2.068311  0  0  -0.685819  0  2.353258  0  0  -0.709888  0  2.333727  0  -1.349051  0  -0.359161  -0.668761  0  2.365932  0
O  O91  1  0.47079645  0.57054224  0.74199436  1  0  -0.751547  0  2.068393  0  0  -0.685759  0  2.353338  0  0  -0.709855  0  2.333873  0  -1.349018  0  -0.359154  -0.668701  0  2.366008  0
O  O92  1  0.32522542  0.13527417  0.15935330  1  0  -0.725099  0  1.931228  0  0  -0.66092  0  2.165154  0  0  -0.682809  0  2.149235  0  -1.346779  0  -0.34751  -0.645511  0  2.175751  0
O  O93  1  0.67477890  0.63527266  0.34064885  1  0  -0.725115  0  1.931221  0  0  -0.660916  0  2.165131  0  0  -0.682806  0  2.149221  0  -1.346827  0  -0.347481  -0.645506  0  2.175724  0
O  O94  1  0.67477890  0.86472152  0.84064543  1  0  -0.725158  0  1.931193  0  0  -0.660974  0  2.165079  0  0  -0.682857  0  2.149156  0  -1.347053  0  -0.347561  -0.645567  0  2.175675  0
O  O95  1  0.32521909  0.36471914  0.65935365  1  0  -0.725096  0  1.931254  0  0  -0.660892  0  2.165147  0  0  -0.682774  0  2.149234  0  -1.346929  0  -0.347512  -0.645483  0  2.175735  0
O  O96  1  0.22188773  0.67441488  0.30700910  1  0  -0.812042  0  1.930975  0  0  -0.755383  0  2.160796  0  0  -0.775393  0  2.131724  0  -1.221126  0  -0.570613  -0.741204  0  2.179797  0
O  O97  1  0.77811500  0.17441509  0.19299204  1  0  -0.811941  0  1.931062  0  0  -0.755293  0  2.160824  0  0  -0.775304  0  2.131787  0  -1.221161  0  -0.570605  -0.741112  0  2.179822  0
O  O98  1  0.77811342  0.32558081  0.69299151  1  0  -0.812035  0  1.93102  0  0  -0.755372  0  2.160752  0  0  -0.775381  0  2.131696  0  -1.221134  0  -0.570675  -0.741194  0  2.179754  0
O  O99  1  0.22188932  0.82557800  0.80700767  1  0  -0.811921  0  1.930918  0  0  -0.755252  0  2.160685  0  0  -0.775261  0  2.131687  0  -1.221057  0  -0.570613  -0.741072  0  2.17968  0
O  O100  1  0.15152046  0.44654427  0.18206716  1  0  -0.812314  0  1.913838  0  0  -0.751007  0  2.124711  0  0  -0.771376  0  2.094614  0  -1.257179  0  -0.56508  -0.736593  0  2.145611  0
O  O101  1  0.84848386  0.94654925  0.31793401  1  0  -0.812328  0  1.913834  0  0  -0.750964  0  2.124812  0  0  -0.771374  0  2.09463  0  -1.257025  0  -0.565058  -0.73655  0  2.145713  0
O  O102  1  0.84848386  0.55343974  0.81793010  1  0  -0.812085  0  1.914123  0  0  -0.750747  0  2.125068  0  0  -0.771128  0  2.094948  0  -1.257102  0  -0.564989  -0.736324  0  2.145937  0
O  O103  1  0.15152046  0.05343865  0.68206765  1  0  -0.812009  0  1.914147  0  0  -0.750691  0  2.125135  0  0  -0.771073  0  2.095009  0  -1.257193  0  -0.564982  -0.736268  0  2.146005  0
