# generated using pymatgen
data_CdH9C12Br(NO2)2
_symmetry_space_group_name_H-M   'P 1'
_cell_length_a   7.89746475
_cell_length_b   8.04827806
_cell_length_c   10.70936275
_cell_angle_alpha   71.10753852
_cell_angle_beta   80.38021453
_cell_angle_gamma   85.13428109
_symmetry_Int_Tables_number   1
_chemical_formula_structural   CdH9C12Br(NO2)2
_chemical_formula_sum   'Cd2 H18 C24 Br2 N4 O8'
_cell_volume   634.62685751
_cell_formula_units_Z   2
loop_
 _symmetry_equiv_pos_site_id
 _symmetry_equiv_pos_as_xyz
  1  'x, y, z'
loop_
 _atom_site_type_symbol
 _atom_site_label
 _atom_site_symmetry_multiplicity
 _atom_site_fract_x
 _atom_site_fract_y
 _atom_site_fract_z
 _atom_site_occupancy
 _atom_site_hle17_bader_spin_density
 _atom_site_hle17_ddec_charge
 _atom_site_hle17_ddec_spin_density
 _atom_site_hle17_ddec_sum_bond_order
 _atom_site_hle17_magmom
 _atom_site_hse06_10hf_bader_spin_density
 _atom_site_hse06_10hf_ddec_charge
 _atom_site_hse06_10hf_ddec_spin_density
 _atom_site_hse06_10hf_ddec_sum_bond_order
 _atom_site_hse06_10hf_magmom
 _atom_site_hse06_bader_spin_density
 _atom_site_hse06_ddec_charge
 _atom_site_hse06_ddec_spin_density
 _atom_site_hse06_ddec_sum_bond_order
 _atom_site_hse06_magmom
 _atom_site_pbe_bader_spin_density
 _atom_site_pbe_cm5_charge
 _atom_site_pbe_ddec_charge
 _atom_site_pbe_ddec_spin_density
 _atom_site_pbe_ddec_sum_bond_order
 _atom_site_pbe_magmom
Cd  Cd0  1  0.73397859  0.95414645  0.90496189  1  0  1.09607  0  1.774766  0  0  0.936107  0  2.235544  0  0  0.993051  0  2.179469  0  0  0.651659  0.895928  0  2.273454  0
Cd  Cd1  1  0.26601373  0.04585880  0.09503197  1  0  1.096047  0  1.774861  0  0  0.936107  0  2.235619  0  0  0.99305  0  2.179543  0  0  0.651631  0.895928  0  2.273531  0
H  H2  1  0.60138188  0.49192010  0.75370829  1  0  0.098757  0  0.963589  0  0  0.104526  0  1.033125  0  0  0.107788  0  1.030849  0  0  0.096928  0.10195  0  1.035261  0
H  H3  1  0.39862987  0.50807548  0.24629477  1  0  0.098759  0  0.963663  0  0  0.104496  0  1.03324  0  0  0.107759  0  1.030962  0  0  0.096909  0.101922  0  1.035376  0
H  H4  1  0.79709062  0.59193746  0.15681727  1  0  0.127862  0  0.974404  0  0  0.132454  0  1.042835  0  0  0.1362  0  1.038094  0  0  0.138043  0.129681  0  1.046139  0
H  H5  1  0.20289789  0.40806514  0.84318235  1  0  0.127807  0  0.974509  0  0  0.132449  0  1.042895  0  0  0.136165  0  1.038191  0  0  0.138044  0.129677  0  1.046199  0
H  H6  1  0.60587179  0.32224395  0.59856392  1  0  0.106658  0  0.977569  0  0  0.115451  0  1.042214  0  0  0.118803  0  1.040348  0  0  0.095217  0.113069  0  1.043539  0
H  H7  1  0.39413608  0.67775300  0.40143930  1  0  0.106595  0  0.977545  0  0  0.115406  0  1.042177  0  0  0.118763  0  1.040287  0  0  0.095222  0.11302  0  1.04351  0
H  H8  1  0.93438442  0.86914955  0.45653603  1  0  0.110954  0  0.959189  0  0  0.117844  0  1.025918  0  0  0.121388  0  1.023452  0  0  0.105416  0.115183  0  1.02792  0
H  H9  1  0.06561826  0.13085022  0.54346157  1  0  0.110931  0  0.959187  0  0  0.11782  0  1.025916  0  0  0.121364  0  1.02345  0  0  0.10541  0.11516  0  1.027918  0
H  H10  1  0.73668870  0.46698906  0.97909270  1  0  0.147064  0  0.916249  0  0  0.159772  0  0.971147  0  0  0.163344  0  0.968679  0  0  0.127301  0.157247  0  0.97304  0
H  H11  1  0.26330371  0.53301087  0.02090613  1  0  0.147043  0  0.916259  0  0  0.159791  0  0.971128  0  0  0.163363  0  0.968663  0  0  0.12734  0.157268  0  0.973028  0
H  H12  1  0.62952719  0.26397396  0.04074448  1  0  0.112864  0  0.954498  0  0  0.11732  0  1.030654  0  0  0.119525  0  1.029154  0  0  0.109428  0.115619  0  1.032159  0
H  H13  1  0.37046784  0.73602327  0.95925652  1  0  0.112875  0  0.954503  0  0  0.117363  0  1.030638  0  0  0.119568  0  1.029139  0  0  0.109475  0.115665  0  1.032148  0
H  H14  1  0.94562097  0.69720949  0.30115082  1  0  0.123037  0  0.968369  0  0  0.131817  0  1.030208  0  0  0.135271  0  1.028675  0  0  0.104602  0.129507  0  1.031148  0
H  H15  1  0.05437527  0.30279168  0.69884818  1  0  0.123077  0  0.968323  0  0  0.131824  0  1.030205  0  0  0.135278  0  1.028672  0  0  0.104612  0.129513  0  1.031143  0
H  H16  1  0.70555291  0.04721002  0.27689259  1  0  0.128196  0  0.973859  0  0  0.13614  0  1.035854  0  0  0.139357  0  1.034174  0  0  0.116691  0.133719  0  1.037283  0
H  H17  1  0.29445110  0.95278708  0.72310640  1  0  0.12824  0  0.973787  0  0  0.136108  0  1.035864  0  0  0.13932  0  1.034193  0  0  0.116671  0.133689  0  1.037291  0
H  H18  1  0.74501945  0.13576416  0.50145483  1  0  0.141887  0  0.97135  0  0  0.147083  0  1.034701  0  0  0.151158  0  1.031885  0  0  0.130158  0.144104  0  1.03682  0
H  H19  1  0.25498842  0.86423292  0.49854182  1  0  0.141897  0  0.971311  0  0  0.14708  0  1.034675  0  0  0.151153  0  1.031867  0  0  0.130161  0.144103  0  1.036791  0
C  C20  1  0.67559842  0.53705404  0.65443983  1  0  -0.04939  0  3.743075  0  0  -0.074985  0  3.995746  0  0  -0.074146  0  4.016563  0  0  -0.086457  -0.075339  0  3.981679  0
C  C21  1  0.32441208  0.46294026  0.34556275  1  0  -0.04934  0  3.742998  0  0  -0.074902  0  3.995657  0  0  -0.07406  0  4.016468  0  0  -0.086419  -0.075257  0  3.981593  0
C  C22  1  0.75243680  0.79467371  0.71193835  1  0  0.62675  0  3.923519  0  0  0.578354  0  4.213324  0  0  0.613398  0  4.207504  0  0  0.189075  0.554824  0  4.216062  0
C  C23  1  0.24756977  0.20532460  0.28806377  1  0  0.626628  0  3.923635  0  0  0.578268  0  4.213399  0  0  0.613313  0  4.207576  0  0  0.189015  0.554737  0  4.216143  0
C  C24  1  0.90882509  0.24179847  0.98856506  1  0  0.698267  0  3.854196  0  0  0.646546  0  4.161611  0  0  0.68115  0  4.153354  0  0  0.212943  0.623084  0  4.166339  0
C  C25  1  0.09116989  0.75820139  0.01143534  1  0  0.698268  0  3.853864  0  0  0.646493  0  4.161382  0  0  0.681101  0  4.153123  0  0  0.212939  0.62304  0  4.166102  0
C  C26  1  0.77701452  0.45758771  0.22055345  1  0  0.157671  0  3.485367  0  0  0.085749  0  3.744875  0  0  0.102938  0  3.751336  0  0  0.176177  0.074531  0  3.740561  0
C  C27  1  0.22297915  0.54241347  0.77944680  1  0  0.157758  0  3.485522  0  0  0.085767  0  3.745053  0  0  0.102982  0  3.751537  0  0  0.176112  0.07455  0  3.740735  0
C  C28  1  0.67966640  0.44068056  0.56761573  1  0  -0.144663  0  3.743413  0  0  -0.164073  0  3.995468  0  0  -0.169145  0  4.016344  0  0  -0.092892  -0.160802  0  3.981484  0
C  C29  1  0.32034276  0.55931637  0.43238733  1  0  -0.144604  0  3.743184  0  0  -0.164049  0  3.995248  0  0  -0.169113  0  4.016126  0  0  -0.092925  -0.160779  0  3.981272  0
C  C30  1  0.86113197  0.74994909  0.48733510  1  0  -0.056275  0  3.702657  0  0  -0.077793  0  3.950462  0  0  -0.076829  0  3.97032  0  0  -0.08142  -0.077956  0  3.936619  0
C  C31  1  0.13887332  0.25004929  0.51266437  1  0  -0.056189  0  3.702634  0  0  -0.077697  0  3.950427  0  0  -0.07673  0  3.970284  0  0  -0.081388  -0.077862  0  3.936587  0
C  C32  1  0.74500818  0.32900701  0.04273103  1  0  -0.17475  0  3.572733  0  0  -0.230815  0  3.812144  0  0  -0.232015  0  3.817161  0  0  -0.052884  -0.230224  0  3.809201  0
C  C33  1  0.25498423  0.67099288  0.95726968  1  0  -0.174565  0  3.572661  0  0  -0.230737  0  3.812197  0  0  -0.23194  0  3.817217  0  0  -0.052916  -0.230169  0  3.809289  0
C  C34  1  0.76440721  0.69349046  0.61518187  1  0  -0.070054  0  3.752939  0  0  -0.048267  0  3.986197  0  0  -0.057182  0  4.009775  0  0  -0.021741  -0.042412  0  3.969931  0
C  C35  1  0.23559816  0.30650268  0.38481788  1  0  -0.070075  0  3.753061  0  0  -0.048305  0  3.98632  0  0  -0.057222  0  4.009901  0  0  -0.021752  -0.04245  0  3.97006  0
C  C36  1  0.86760700  0.65307054  0.39937885  1  0  -0.145103  0  3.710538  0  0  -0.166017  0  3.965448  0  0  -0.170968  0  3.985879  0  0  -0.091423  -0.162675  0  3.951282  0
C  C37  1  0.13239316  0.34692662  0.60062060  1  0  -0.145147  0  3.710554  0  0  -0.166054  0  3.965467  0  0  -0.171005  0  3.985894  0  0  -0.091419  -0.16271  0  3.951299  0
C  C38  1  0.77540863  0.49912677  0.44046918  1  0  0.179906  0  3.764949  0  0  0.172106  0  4.013087  0  0  0.17798  0  4.035627  0  0  0.096357  0.168126  0  3.997923  0
C  C39  1  0.22459539  0.50087024  0.55953450  1  0  0.179864  0  3.764949  0  0  0.172113  0  4.013038  0  0  0.177989  0  4.035576  0  0  0.096328  0.168134  0  3.997872  0
C  C40  1  0.72804535  0.17202203  0.28856323  1  0  -0.012262  0  3.6136  0  0  -0.057162  0  3.876319  0  0  -0.055496  0  3.893777  0  0  0.02349  -0.058331  0  3.864916  0
C  C41  1  0.27195734  0.82797772  0.71143531  1  0  -0.012166  0  3.613561  0  0  -0.057001  0  3.876261  0  0  -0.055334  0  3.893726  0  0  0.023524  -0.05817  0  3.864856  0
C  C42  1  0.74333960  0.21670812  0.39832756  1  0  -0.02865  0  3.60702  0  0  -0.071619  0  3.872924  0  0  -0.069699  0  3.889267  0  0  0.022264  -0.07292  0  3.862196  0
C  C43  1  0.25666185  0.78328902  0.60167174  1  0  -0.028729  0  3.606963  0  0  -0.071675  0  3.872864  0  0  -0.069756  0  3.889206  0  0  0.022222  -0.072977  0  3.862134  0
Br  Br44  1  0.56695613  0.86087335  0.16187148  1  0  -0.555172  0  1.103844  0  0  -0.494173  0  1.426687  0  0  -0.516245  0  1.399523  0  0  -0.216721  -0.478282  0  1.444939  0
Br  Br45  1  0.43303728  0.13914239  0.83811980  1  0  -0.5552  0  1.103871  0  0  -0.494146  0  1.426633  0  0  -0.51621  0  1.399467  0  0  -0.21671  -0.478257  0  1.444883  0
N  N46  1  0.74775297  0.32337800  0.17979953  1  0  0.003178  0  3.577937  0  0  0.091693  0  3.799343  0  0  0.078875  0  3.82373  0  0  -0.219843  0.100036  0  3.782885  0
N  N47  1  0.25223947  0.67662056  0.82020242  1  0  0.002894  0  3.578154  0  0  0.09145  0  3.799559  0  0  0.078631  0  3.823941  0  0  -0.219802  0.099798  0  3.783104  0
N  N48  1  0.77278881  0.39618623  0.35432640  1  0  -0.069066  0  3.577789  0  0  0.017265  0  3.794603  0  0  0.002847  0  3.819207  0  0  -0.207269  0.026625  0  3.778026  0
N  N49  1  0.22721264  0.60381090  0.64567383  1  0  -0.068958  0  3.577807  0  0  0.017356  0  3.794626  0  0  0.002937  0  3.819226  0  0  -0.207201  0.026716  0  3.778045  0
O  O50  1  0.89990995  0.17367673  0.89812660  1  0  -0.64717  0  2.030958  0  0  -0.581224  0  2.290129  0  0  -0.609955  0  2.276838  0  0  -0.3357  -0.561322  0  2.29847  0
O  O51  1  0.10008748  0.82632963  0.10187290  1  0  -0.647183  0  2.030844  0  0  -0.581235  0  2.290082  0  0  -0.609946  0  2.276737  0  0  -0.335727  -0.561333  0  2.298418  0
O  O52  1  0.66763695  0.72787977  0.82843314  1  0  -0.640007  0  1.988566  0  0  -0.577453  0  2.23104  0  0  -0.607727  0  2.222932  0  0  -0.333592  -0.556569  0  2.235691  0
O  O53  1  0.33236705  0.27211865  0.17156554  1  0  -0.639969  0  1.988564  0  0  -0.577409  0  2.230973  0  0  -0.6077  0  2.222901  0  0  -0.333539  -0.556523  0  2.235623  0
O  O54  1  0.82452885  0.94229208  0.67701970  1  0  -0.632831  0  1.938444  0  0  -0.571467  0  2.171422  0  0  -0.599883  0  2.162666  0  0  -0.328937  -0.551325  0  2.176488  0
O  O55  1  0.17547515  0.05770628  0.32298180  1  0  -0.632812  0  1.938444  0  0  -0.571458  0  2.171396  0  0  -0.599873  0  2.162643  0  0  -0.328945  -0.551314  0  2.176465  0
O  O56  1  0.04370981  0.25333309  0.03378249  1  0  -0.633705  0  2.034657  0  0  -0.575198  0  2.292553  0  0  -0.603813  0  2.282565  0  0  -0.326865  -0.555097  0  2.298483  0
O  O57  1  0.95628130  0.74666810  0.96621994  1  0  -0.633773  0  2.034484  0  0  -0.575199  0  2.292354  0  0  -0.603814  0  2.282355  0  0  -0.326879  -0.555097  0  2.298276  0
