# generated using pymatgen
data_TiH6C5(NCl2)2
_symmetry_space_group_name_H-M   'P 1'
_cell_length_a   5.92456070
_cell_length_b   12.62166359
_cell_length_c   14.19873049
_cell_angle_alpha   90.00009752
_cell_angle_beta   89.99989181
_cell_angle_gamma   90.00005625
_symmetry_Int_Tables_number   1
_chemical_formula_structural   TiH6C5(NCl2)2
_chemical_formula_sum   'Ti4 H24 C20 N8 Cl16'
_cell_volume   1061.74999961
_cell_formula_units_Z   4
loop_
 _symmetry_equiv_pos_site_id
 _symmetry_equiv_pos_as_xyz
  1  'x, y, z'
loop_
 _atom_site_type_symbol
 _atom_site_label
 _atom_site_symmetry_multiplicity
 _atom_site_fract_x
 _atom_site_fract_y
 _atom_site_fract_z
 _atom_site_occupancy
 _atom_site_hle17_bader_spin_density
 _atom_site_hle17_ddec_charge
 _atom_site_hle17_ddec_spin_density
 _atom_site_hle17_ddec_sum_bond_order
 _atom_site_hle17_magmom
 _atom_site_hse06_10hf_bader_spin_density
 _atom_site_hse06_10hf_ddec_charge
 _atom_site_hse06_10hf_ddec_spin_density
 _atom_site_hse06_10hf_ddec_sum_bond_order
 _atom_site_hse06_10hf_magmom
 _atom_site_hse06_bader_spin_density
 _atom_site_hse06_ddec_charge
 _atom_site_hse06_ddec_spin_density
 _atom_site_hse06_ddec_sum_bond_order
 _atom_site_hse06_magmom
 _atom_site_pbe_bader_spin_density
 _atom_site_pbe_cm5_charge
 _atom_site_pbe_ddec_charge
 _atom_site_pbe_ddec_spin_density
 _atom_site_pbe_ddec_sum_bond_order
 _atom_site_pbe_magmom
Ti  Ti0  1  0.15934171  0.46910880  0.25000082  1  0  1.701261  0  2.479763  0  0  1.734476  0  2.824114  0  0  1.835194  0  2.783306  0  0  1.100595  1.657412  0  2.869195  0
Ti  Ti1  1  0.84066197  0.53089286  0.74999602  1  0  1.701223  0  2.479763  0  0  1.734437  0  2.824123  0  0  1.835141  0  2.783331  0  0  1.100545  1.657407  0  2.869074  0
Ti  Ti2  1  0.15933997  0.03089366  0.74999941  1  0  1.701339  0  2.479586  0  0  1.734525  0  2.823947  0  0  1.835183  0  2.783242  0  0  1.100564  1.657477  0  2.868943  0
Ti  Ti3  1  0.84065695  0.96910721  0.24999955  1  0  1.701357  0  2.479592  0  0  1.734547  0  2.823947  0  0  1.835201  0  2.783252  0  0  1.100585  1.657496  0  2.868972  0
H  H4  1  0.76872594  0.70704096  0.09888375  1  0  0.13306  0  0.934268  0  0  0.147446  0  0.992643  0  0  0.150297  0  0.991303  0  0  0.107436  0.145369  0  0.993788  0
H  H5  1  0.23127679  0.29296041  0.59888467  1  0  0.133015  0  0.934316  0  0  0.147417  0  0.992674  0  0  0.150269  0  0.991334  0  0  0.107429  0.145339  0  0.993823  0
H  H6  1  0.76872071  0.79296225  0.90111539  1  0  0.133028  0  0.934314  0  0  0.147426  0  0.992677  0  0  0.150277  0  0.991337  0  0  0.107442  0.145351  0  0.993826  0
H  H7  1  0.23127548  0.20703732  0.40111481  1  0  0.133087  0  0.934236  0  0  0.147435  0  0.99265  0  0  0.150286  0  0.991313  0  0  0.107439  0.145359  0  0.99379  0
H  H8  1  0.23128111  0.29295991  0.90111662  1  0  0.133037  0  0.934355  0  0  0.14744  0  0.992709  0  0  0.15029  0  0.991369  0  0  0.107445  0.145363  0  0.993856  0
H  H9  1  0.76872520  0.70703570  0.40111852  1  0  0.133052  0  0.93432  0  0  0.147454  0  0.992674  0  0  0.150308  0  0.991337  0  0  0.107442  0.145378  0  0.993821  0
H  H10  1  0.23127285  0.20703862  0.09888286  1  0  0.133036  0  0.93429  0  0  0.147455  0  0.992637  0  0  0.150306  0  0.991299  0  0  0.107441  0.145378  0  0.993782  0
H  H11  1  0.76872313  0.79296355  0.59888556  1  0  0.13313  0  0.934187  0  0  0.147463  0  0.992621  0  0  0.150311  0  0.991282  0  0  0.107455  0.145386  0  0.993767  0
H  H12  1  0.74799374  0.62124314  0.00029037  1  0  0.128003  0  0.940975  0  0  0.141573  0  1.000644  0  0  0.144015  0  0.999925  0  0  0.10585  0.1398  0  1.001285  0
H  H13  1  0.25200778  0.37875884  0.50029070  1  0  0.127933  0  0.941017  0  0  0.141536  0  1.000666  0  0  0.143976  0  0.999945  0  0  0.105851  0.139766  0  1.001301  0
H  H14  1  0.74799160  0.87876244  0.99970738  1  0  0.127908  0  0.940987  0  0  0.141508  0  1.000657  0  0  0.143949  0  0.999939  0  0  0.105838  0.139736  0  1.001294  0
H  H15  1  0.25200242  0.12123969  0.49970735  1  0  0.127923  0  0.940987  0  0  0.141523  0  1.000632  0  0  0.143965  0  0.999918  0  0  0.105851  0.139752  0  1.001271  0
H  H16  1  0.25200993  0.37875852  0.99970788  1  0  0.127974  0  0.941001  0  0  0.141556  0  1.000671  0  0  0.143998  0  0.999952  0  0  0.105859  0.139786  0  1.001307  0
H  H17  1  0.74799421  0.62123965  0.49971178  1  0  0.127973  0  0.940964  0  0  0.141598  0  1.000581  0  0  0.14404  0  0.999863  0  0  0.105901  0.139827  0  1.001223  0
H  H18  1  0.25200532  0.12124001  0.00029017  1  0  0.127955  0  0.940963  0  0  0.141561  0  1.000617  0  0  0.144002  0  0.999902  0  0  0.105872  0.139789  0  1.001258  0
H  H19  1  0.74799789  0.87875959  0.50028949  1  0  0.127943  0  0.940948  0  0  0.141555  0  1.000589  0  0  0.143994  0  0.999873  0  0  0.105878  0.139783  0  1.001226  0
H  H20  1  0.39015234  0.70974023  0.94865352  1  0  0.088635  0  0.945328  0  0  0.107164  0  1.003401  0  0  0.108843  0  1.003157  0  0  0.088649  0.105873  0  1.003739  0
H  H21  1  0.60984530  0.29025864  0.44865138  1  0  0.088612  0  0.94538  0  0  0.107143  0  1.003445  0  0  0.108822  0  1.003202  0  0  0.088637  0.105853  0  1.003774  0
H  H22  1  0.39015800  0.79026283  0.05135012  1  0  0.088631  0  0.945362  0  0  0.10716  0  1.003425  0  0  0.108838  0  1.003184  0  0  0.088658  0.10587  0  1.003757  0
H  H23  1  0.60983990  0.20973687  0.55134712  1  0  0.088593  0  0.945423  0  0  0.107123  0  1.003484  0  0  0.108802  0  1.00324  0  0  0.088638  0.105831  0  1.003822  0
H  H24  1  0.60984121  0.29025985  0.05134896  1  0  0.088615  0  0.945413  0  0  0.107146  0  1.003474  0  0  0.108825  0  1.003232  0  0  0.088634  0.105857  0  1.003804  0
H  H25  1  0.39015669  0.70973826  0.55135110  1  0  0.088643  0  0.945299  0  0  0.107175  0  1.003369  0  0  0.108854  0  1.003124  0  0  0.088663  0.105884  0  1.003704  0
H  H26  1  0.60984736  0.20973645  0.94865236  1  0  0.088623  0  0.945348  0  0  0.107157  0  1.003409  0  0  0.108836  0  1.003165  0  0  0.088653  0.105865  0  1.003746  0
H  H27  1  0.39016041  0.79025845  0.44865395  1  0  0.088637  0  0.945429  0  0  0.107172  0  1.003477  0  0  0.108851  0  1.003235  0  0  0.088667  0.105882  0  1.00381  0
C  C28  1  0.51168902  0.59794912  0.10675066  1  0  0.47811  0  3.587778  0  0  0.464723  0  3.858185  0  0  0.488308  0  3.866701  0  0  0.247522  0.448421  0  3.852275  0
C  C29  1  0.48832718  0.40205940  0.60675156  1  0  0.478195  0  3.588547  0  0  0.464801  0  3.858958  0  0  0.488376  0  3.867475  0  0  0.247619  0.448506  0  3.853057  0
C  C30  1  0.51167563  0.90205795  0.89324585  1  0  0.478148  0  3.58853  0  0  0.464781  0  3.858918  0  0  0.488353  0  3.867435  0  0  0.247645  0.448485  0  3.853014  0
C  C31  1  0.48831384  0.09794239  0.39324844  1  0  0.478203  0  3.588268  0  0  0.464819  0  3.858651  0  0  0.488398  0  3.867169  0  0  0.247564  0.44852  0  3.852746  0
C  C32  1  0.48831635  0.40205175  0.89324900  1  0  0.478095  0  3.587837  0  0  0.464702  0  3.858262  0  0  0.488283  0  3.866778  0  0  0.247522  0.448403  0  3.852361  0
C  C33  1  0.51168663  0.59794384  0.39325163  1  0  0.478254  0  3.588094  0  0  0.464875  0  3.858496  0  0  0.488457  0  3.86701  0  0  0.247584  0.448578  0  3.85259  0
C  C34  1  0.48830779  0.09794608  0.10675029  1  0  0.478186  0  3.588074  0  0  0.464804  0  3.858485  0  0  0.488382  0  3.867002  0  0  0.247551  0.448505  0  3.852579  0
C  C35  1  0.51168309  0.90205768  0.60674911  1  0  0.478117  0  3.588423  0  0  0.464732  0  3.858819  0  0  0.488307  0  3.867334  0  0  0.247532  0.448433  0  3.852917  0
C  C36  1  0.64823944  0.66832492  0.05069636  1  0  -0.198622  0  3.723768  0  0  -0.226528  0  3.954781  0  0  -0.231525  0  3.962913  0  0  -0.130644  -0.223148  0  3.949544  0
C  C37  1  0.35176183  0.33167557  0.55069513  1  0  -0.198456  0  3.723463  0  0  -0.226398  0  3.954473  0  0  -0.231387  0  3.962598  0  0  -0.130617  -0.223021  0  3.94924  0
C  C38  1  0.64823913  0.83167745  0.94930499  1  0  -0.198402  0  3.723352  0  0  -0.226361  0  3.954379  0  0  -0.231353  0  3.962507  0  0  -0.130633  -0.22299  0  3.94915  0
C  C39  1  0.35176020  0.16832458  0.44930425  1  0  -0.198541  0  3.72356  0  0  -0.226476  0  3.954646  0  0  -0.231475  0  3.962779  0  0  -0.130629  -0.223103  0  3.949414  0
C  C40  1  0.35176592  0.33167674  0.94930260  1  0  -0.198499  0  3.723869  0  0  -0.226413  0  3.954841  0  0  -0.231406  0  3.962971  0  0  -0.130629  -0.223036  0  3.949609  0
C  C41  1  0.64824016  0.66832054  0.44930875  1  0  -0.198481  0  3.723619  0  0  -0.226474  0  3.954676  0  0  -0.231475  0  3.962807  0  0  -0.130679  -0.223108  0  3.949461  0
C  C42  1  0.35176118  0.16832341  0.05069467  1  0  -0.198508  0  3.723609  0  0  -0.226477  0  3.954623  0  0  -0.231473  0  3.962754  0  0  -0.130646  -0.223102  0  3.949393  0
C  C43  1  0.64824179  0.83167549  0.55069752  1  0  -0.198554  0  3.723644  0  0  -0.226463  0  3.954684  0  0  -0.231448  0  3.962799  0  0  -0.130668  -0.223082  0  3.949443  0
C  C44  1  0.49884800  0.75000266  0.00000180  1  0  -0.071645  0  3.616341  0  0  -0.115174  0  3.868315  0  0  -0.116119  0  3.881232  0  0  -0.149929  -0.114289  0  3.859397  0
C  C45  1  0.50115184  0.24999852  0.50000105  1  0  -0.071612  0  3.616431  0  0  -0.115122  0  3.868349  0  0  -0.116066  0  3.88127  0  0  -0.14995  -0.114242  0  3.859434  0
C  C46  1  0.50115306  0.25000280  0.00000071  1  0  -0.071638  0  3.616363  0  0  -0.115177  0  3.868343  0  0  -0.116121  0  3.881263  0  0  -0.149933  -0.114298  0  3.859429  0
C  C47  1  0.49885015  0.75000155  0.49999932  1  0  -0.07169  0  3.616317  0  0  -0.115216  0  3.868288  0  0  -0.116161  0  3.881204  0  0  -0.149965  -0.114333  0  3.859371  0
N  N48  1  0.39124954  0.54546794  0.15119548  1  0  -0.535354  0  2.940097  0  0  -0.515048  0  3.211952  0  0  -0.541185  0  3.224864  0  0  -0.384038  -0.496265  0  3.203683  0
N  N49  1  0.60874450  0.45453116  0.65118863  1  0  -0.535453  0  2.941111  0  0  -0.51514  0  3.212959  0  0  -0.54127  0  3.22587  0  0  -0.384127  -0.496365  0  3.204685  0
N  N50  1  0.39125675  0.95452720  0.84880816  1  0  -0.535437  0  2.941126  0  0  -0.515132  0  3.212949  0  0  -0.541257  0  3.225865  0  0  -0.384154  -0.496351  0  3.204674  0
N  N51  1  0.60874813  0.04546752  0.34880776  1  0  -0.535468  0  2.940736  0  0  -0.515159  0  3.212575  0  0  -0.541288  0  3.225494  0  0  -0.384084  -0.496378  0  3.204299  0
N  N52  1  0.60874908  0.45453214  0.84880418  1  0  -0.53538  0  2.940165  0  0  -0.515073  0  3.212024  0  0  -0.541207  0  3.22494  0  0  -0.384051  -0.496292  0  3.203744  0
N  N53  1  0.39125074  0.54546654  0.34880892  1  0  -0.535569  0  2.940518  0  0  -0.515268  0  3.21237  0  0  -0.541403  0  3.225277  0  0  -0.384118  -0.496489  0  3.204107  0
N  N54  1  0.60874693  0.04546892  0.15119220  1  0  -0.535474  0  2.940423  0  0  -0.515173  0  3.212269  0  0  -0.541301  0  3.225186  0  0  -0.384082  -0.496395  0  3.203997  0
N  N55  1  0.39125386  0.95453256  0.65118979  1  0  -0.535438  0  2.940743  0  0  -0.515134  0  3.212597  0  0  -0.541261  0  3.225515  0  0  -0.384063  -0.496354  0  3.204327  0
Cl  Cl56  1  0.42240410  0.33625631  0.24999992  1  0  -0.440877  0  0.924201  0  0  -0.449487  0  1.16895  0  0  -0.47504  0  1.16065  0  0  -0.254871  -0.430197  0  1.176503  0
Cl  Cl57  1  0.57759114  0.66374218  0.74999763  1  0  -0.440868  0  0.924203  0  0  -0.449481  0  1.16894  0  0  -0.47503  0  1.160643  0  0  -0.254848  -0.430194  0  1.176479  0
Cl  Cl58  1  0.42240774  0.16374546  0.75000083  1  0  -0.44092  0  0.924193  0  0  -0.44952  0  1.168921  0  0  -0.475051  0  1.160625  0  0  -0.254864  -0.430229  0  1.176466  0
Cl  Cl59  1  0.57759257  0.83625462  0.25000024  1  0  -0.440919  0  0.92421  0  0  -0.449508  0  1.16893  0  0  -0.47504  0  1.160639  0  0  -0.25487  -0.430216  0  1.176476  0
Cl  Cl60  1  0.95481358  0.40750761  0.12733670  1  0  -0.453807  0  0.926666  0  0  -0.463751  0  1.156372  0  0  -0.487517  0  1.145495  0  0  -0.251627  -0.445727  0  1.165886  0
Cl  Cl61  1  0.04518901  0.59249461  0.62733399  1  0  -0.453766  0  0.926734  0  0  -0.463703  0  1.156434  0  0  -0.487464  0  1.145559  0  0  -0.251567  -0.445675  0  1.165922  0
Cl  Cl62  1  0.95481476  0.09249200  0.87266436  1  0  -0.453795  0  0.92668  0  0  -0.463734  0  1.15639  0  0  -0.487487  0  1.145526  0  0  -0.25159  -0.445705  0  1.165888  0
Cl  Cl63  1  0.04518157  0.90750752  0.37266287  1  0  -0.453797  0  0.926705  0  0  -0.463725  0  1.156399  0  0  -0.487479  0  1.145539  0  0  -0.251591  -0.445699  0  1.165904  0
Cl  Cl64  1  0.04518335  0.59249326  0.87266085  1  0  -0.453808  0  0.926725  0  0  -0.463729  0  1.156399  0  0  -0.48749  0  1.145523  0  0  -0.251601  -0.445702  0  1.165889  0
Cl  Cl65  1  0.95481129  0.40750784  0.37266497  1  0  -0.453779  0  0.926678  0  0  -0.463714  0  1.156373  0  0  -0.48748  0  1.145497  0  0  -0.251597  -0.445688  0  1.165885  0
Cl  Cl66  1  0.04518217  0.90750808  0.12733459  1  0  -0.453804  0  0.926673  0  0  -0.463748  0  1.156388  0  0  -0.487501  0  1.145525  0  0  -0.251607  -0.445721  0  1.165893  0
Cl  Cl67  1  0.95481367  0.09249414  0.62733820  1  0  -0.453771  0  0.926728  0  0  -0.463686  0  1.156407  0  0  -0.487441  0  1.145546  0  0  -0.251575  -0.445655  0  1.165905  0
Cl  Cl68  1  0.99573810  0.63363244  0.25000205  1  0  -0.468829  0  0.968504  0  0  -0.481029  0  1.213116  0  0  -0.50657  0  1.205459  0  0  -0.262161  -0.461646  0  1.219915  0
Cl  Cl69  1  0.00426558  0.36636763  0.75000043  1  0  -0.468842  0  0.968463  0  0  -0.481062  0  1.213081  0  0  -0.506603  0  1.205431  0  0  -0.262152  -0.461676  0  1.219857  0
Cl  Cl70  1  0.99573546  0.86636690  0.74999693  1  0  -0.468878  0  0.968419  0  0  -0.481079  0  1.21302  0  0  -0.506603  0  1.205363  0  0  -0.262154  -0.461695  0  1.21981  0
Cl  Cl71  1  0.00425640  0.13363476  0.24999992  1  0  -0.468855  0  0.96842  0  0  -0.481046  0  1.213017  0  0  -0.506561  0  1.205347  0  0  -0.26214  -0.461659  0  1.219802  0
