# generated using pymatgen
data_ZnPH17C16NO8
_symmetry_space_group_name_H-M   'P 1'
_cell_length_a   7.74753072
_cell_length_b   11.27021654
_cell_length_c   11.53576647
_cell_angle_alpha   115.41438079
_cell_angle_beta   93.05805566
_cell_angle_gamma   100.80190357
_symmetry_Int_Tables_number   1
_chemical_formula_structural   ZnPH17C16NO8
_chemical_formula_sum   'Zn2 P2 H34 C32 N2 O16'
_cell_volume   883.44801409
_cell_formula_units_Z   2
loop_
 _symmetry_equiv_pos_site_id
 _symmetry_equiv_pos_as_xyz
  1  'x, y, z'
loop_
 _atom_site_type_symbol
 _atom_site_label
 _atom_site_symmetry_multiplicity
 _atom_site_fract_x
 _atom_site_fract_y
 _atom_site_fract_z
 _atom_site_occupancy
 _atom_site_hle17_bader_spin_density
 _atom_site_hle17_ddec_charge
 _atom_site_hle17_ddec_spin_density
 _atom_site_hle17_ddec_sum_bond_order
 _atom_site_hle17_magmom
 _atom_site_hse06_10hf_bader_spin_density
 _atom_site_hse06_10hf_ddec_charge
 _atom_site_hse06_10hf_ddec_spin_density
 _atom_site_hse06_10hf_ddec_sum_bond_order
 _atom_site_hse06_10hf_magmom
 _atom_site_hse06_bader_spin_density
 _atom_site_hse06_ddec_charge
 _atom_site_hse06_ddec_spin_density
 _atom_site_hse06_ddec_sum_bond_order
 _atom_site_hse06_magmom
 _atom_site_pbe_bader_spin_density
 _atom_site_pbe_cm5_charge
 _atom_site_pbe_ddec_charge
 _atom_site_pbe_ddec_spin_density
 _atom_site_pbe_ddec_sum_bond_order
 _atom_site_pbe_magmom
Zn  Zn0  1  0.63434290  0.98728687  0.29422555  1  0  1.12313  0  1.787006  0  0  0.939774  0  2.270277  0  0  0.987303  0  2.209171  0  0  0.704964  0.906373  0  2.312347  0
Zn  Zn1  1  0.36566182  0.01270469  0.70576533  1  0  1.123134  0  1.787047  0  0  0.939693  0  2.270407  0  0  0.987257  0  2.20924  0  0  0.704956  0.906307  0  2.31245  0
P  P2  1  0.20676832  0.87014122  0.25545210  1  0  1.425594  0  4.798402  0  0  1.256507  0  5.300063  0  0  1.308375  0  5.26226  0  0  0.383086  1.220606  0  5.325239  0
P  P3  1  0.79323853  0.12986875  0.74454594  1  0  1.425721  0  4.798593  0  0  1.256488  0  5.300223  0  0  1.308357  0  5.26242  0  0  0.383041  1.220577  0  5.325405  0
H  H4  1  0.27005846  0.91794179  0.02619512  1  0  0.103774  0  0.942302  0  0  0.112962  0  1.007034  0  0  0.116517  0  1.003824  0  0  0.109455  0.110313  0  1.009464  0
H  H5  1  0.72996485  0.08206429  0.97380494  1  0  0.103757  0  0.942362  0  0  0.113053  0  1.006943  0  0  0.116612  0  1.003722  0  0  0.109485  0.110358  0  1.009427  0
H  H6  1  0.42669810  0.38429293  0.62917317  1  0  0.11431  0  0.941533  0  0  0.129591  0  0.990993  0  0  0.132572  0  0.990217  0  0  0.118461  0.127365  0  0.991914  0
H  H7  1  0.57327903  0.61568935  0.37082566  1  0  0.114398  0  0.94149  0  0  0.129655  0  0.990972  0  0  0.13264  0  0.990192  0  0  0.118473  0.127429  0  0.991896  0
H  H8  1  0.09863974  0.12428630  0.39737728  1  0  0.103648  0  0.955509  0  0  0.110801  0  1.023405  0  0  0.114848  0  1.01963  0  0  0.110543  0.107853  0  1.02613  0
H  H9  1  0.90135930  0.87572278  0.60261304  1  0  0.103739  0  0.955317  0  0  0.110928  0  1.023186  0  0  0.114908  0  1.01949  0  0  0.110554  0.107982  0  1.025915  0
H  H10  1  0.51302240  0.16691001  0.54493514  1  0  0.102121  0  0.963759  0  0  0.109275  0  1.026383  0  0  0.112191  0  1.02383  0  0  0.121078  0.107153  0  1.028121  0
H  H11  1  0.48695941  0.83307397  0.45506200  1  0  0.102087  0  0.963772  0  0  0.109318  0  1.026309  0  0  0.112236  0  1.023753  0  0  0.121101  0.10719  0  1.028073  0
H  H12  1  0.41558436  0.72058269  0.09796301  1  0  0.01943  0  0.96044  0  0  0.03282  0  1.02124  0  0  0.033064  0  1.020596  0  0  0.099995  0.032515  0  1.021837  0
H  H13  1  0.58440552  0.27940777  0.90203010  1  0  0.01945  0  0.960473  0  0  0.032847  0  1.021251  0  0  0.033092  0  1.020607  0  0  0.099988  0.032513  0  1.021879  0
H  H14  1  0.70580470  0.21583218  0.23619728  1  0  0.087898  0  0.961355  0  0  0.095467  0  1.026567  0  0  0.098327  0  1.023725  0  0  0.119298  0.09328  0  1.028775  0
H  H15  1  0.29421488  0.78416959  0.76381655  1  0  0.087935  0  0.961319  0  0  0.095572  0  1.026465  0  0  0.098434  0  1.023618  0  0  0.119288  0.093379  0  1.028689  0
H  H16  1  0.63762559  0.44078512  0.31088708  1  0  0.105241  0  0.974249  0  0  0.116624  0  1.033884  0  0  0.119386  0  1.033338  0  0  0.112397  0.11458  0  1.034439  0
H  H17  1  0.36240756  0.55922239  0.68913750  1  0  0.10529  0  0.97426  0  0  0.116592  0  1.033995  0  0  0.119348  0  1.033458  0  0  0.112428  0.114551  0  1.034544  0
H  H18  1  0.16332762  0.30884551  0.13885638  1  0  0.117754  0  0.952702  0  0  0.124717  0  1.019888  0  0  0.128414  0  1.016627  0  0  0.114862  0.122222  0  1.021752  0
H  H19  1  0.83669053  0.69115940  0.86113254  1  0  0.117799  0  0.952625  0  0  0.124787  0  1.019801  0  0  0.128482  0  1.01654  0  0  0.114891  0.122289  0  1.021662  0
H  H20  1  0.89527004  0.90765977  0.37150823  1  0  0.449172  0  0.848818  0  0  0.415598  0  0.914586  0  0  0.426794  0  0.898599  0  0  0.296027  0.407699  0  0.925864  0
H  H21  1  0.10473266  0.09234034  0.62849101  1  0  0.449117  0  0.848913  0  0  0.415495  0  0.914751  0  0  0.426664  0  0.8988  0  0  0.295982  0.407609  0  0.92601  0
H  H22  1  0.83564672  0.02251691  0.49618342  1  0  0.43122  0  0.872661  0  0  0.397623  0  0.940252  0  0  0.408373  0  0.924906  0  0  0.294504  0.390041  0  0.951048  0
H  H23  1  0.16435065  0.97747927  0.50381143  1  0  0.431317  0  0.872531  0  0  0.397713  0  0.940143  0  0  0.408463  0  0.924798  0  0  0.294535  0.390129  0  0.950947  0
H  H24  1  0.34735037  0.54732487  0.87536257  1  0  0.10409  0  0.954178  0  0  0.127429  0  1.013584  0  0  0.128407  0  1.013845  0  0  0.092629  0.126663  0  1.013517  0
H  H25  1  0.65261679  0.45264276  0.12463619  1  0  0.104008  0  0.954118  0  0  0.12741  0  1.013475  0  0  0.12838  0  1.013747  0  0  0.092675  0.126648  0  1.013405  0
H  H26  1  0.37599131  0.48701750  0.07127091  1  0  0.113923  0  0.954168  0  0  0.136485  0  1.013547  0  0  0.137487  0  1.014148  0  0  0.092367  0.135694  0  1.013052  0
H  H27  1  0.62396980  0.51298172  0.92874914  1  0  0.113984  0  0.953971  0  0  0.136496  0  1.013419  0  0  0.137498  0  1.014024  0  0  0.092388  0.135708  0  1.012921  0
H  H28  1  0.11531660  0.51507856  0.88006439  1  0  0.124236  0  0.942436  0  0  0.146209  0  0.998048  0  0  0.148259  0  0.997279  0  0  0.096583  0.144694  0  0.998699  0
H  H29  1  0.88465712  0.48491249  0.11994628  1  0  0.124186  0  0.942607  0  0  0.146139  0  0.99822  0  0  0.148193  0  0.997456  0  0  0.096542  0.144629  0  0.998867  0
H  H30  1  0.22822263  0.67275336  0.88910632  1  0  0.10175  0  0.959836  0  0  0.121705  0  1.026268  0  0  0.122868  0  1.026118  0  0  0.086696  0.120782  0  1.02648  0
H  H31  1  0.77176419  0.32721988  0.11088264  1  0  0.101703  0  0.959981  0  0  0.12159  0  1.026464  0  0  0.122781  0  1.026286  0  0  0.086711  0.120661  0  1.026682  0
H  H32  1  0.01998635  0.52161488  0.41252609  1  0  0.399106  0  0.887223  0  0  0.36858  0  0.963825  0  0  0.381817  0  0.949638  0  0  0.304944  0.359205  0  0.973907  0
H  H33  1  0.98000792  0.47838808  0.58745643  1  0  0.399368  0  0.88703  0  0  0.368789  0  0.963719  0  0  0.382032  0  0.949519  0  0  0.305004  0.359405  0  0.973826  0
H  H34  1  0.29683284  0.58722814  0.21642240  1  0  0.107077  0  0.961882  0  0  0.123879  0  1.030193  0  0  0.125544  0  1.029937  0  0  0.08552  0.122751  0  1.030205  0
H  H35  1  0.70314492  0.41279544  0.78359659  1  0  0.107146  0  0.961821  0  0  0.123925  0  1.030158  0  0  0.125594  0  1.029902  0  0  0.085578  0.122802  0  1.030162  0
H  H36  1  0.14591508  0.47033477  0.07253844  1  0  0.118528  0  0.955697  0  0  0.139741  0  1.016084  0  0  0.141456  0  1.015456  0  0  0.093616  0.138368  0  1.016669  0
H  H37  1  0.85405147  0.52968474  0.92748966  1  0  0.118531  0  0.955406  0  0  0.139847  0  1.015682  0  0  0.141571  0  1.015038  0  0  0.093666  0.138473  0  1.01627  0
C  C38  1  0.18268027  0.00540033  0.21421116  1  0  -0.25932  0  3.770464  0  0  -0.217257  0  4.025336  0  0  -0.230703  0  4.048451  0  0  -0.025669  -0.208646  0  4.01007  0
C  C39  1  0.81733380  0.99460817  0.78578584  1  0  -0.259573  0  3.771034  0  0  -0.217281  0  4.025609  0  0  -0.23072  0  4.048699  0  0  -0.025699  -0.208667  0  4.010327  0
C  C40  1  0.22831751  0.00409514  0.09769596  1  0  -0.003539  0  3.67227  0  0  -0.045801  0  3.9239  0  0  -0.039886  0  3.941351  0  0  -0.061818  -0.049589  0  3.912461  0
C  C41  1  0.77169830  0.99591121  0.90230032  1  0  -0.0035  0  3.672323  0  0  -0.045788  0  3.92387  0  0  -0.039875  0  3.941321  0  0  -0.061781  -0.049539  0  3.912445  0
C  C42  1  0.22198415  0.11356422  0.07116663  1  0  -0.063277  0  3.729514  0  0  -0.032353  0  3.958875  0  0  -0.04368  0  3.983108  0  0  -0.013891  -0.025318  0  3.942802  0
C  C43  1  0.77804086  0.88644574  0.92883154  1  0  -0.063244  0  3.729124  0  0  -0.032622  0  3.958918  0  0  -0.043955  0  3.983155  0  0  -0.013955  -0.025585  0  3.942833  0
C  C44  1  0.16852050  0.22500711  0.16122864  1  0  -0.040285  0  3.649896  0  0  -0.080188  0  3.895027  0  0  -0.074631  0  3.912215  0  0  -0.064702  -0.083071  0  3.882686  0
C  C45  1  0.83149927  0.77499882  0.83876249  1  0  -0.040354  0  3.649496  0  0  -0.080223  0  3.894757  0  0  -0.074667  0  3.911952  0  0  -0.06471  -0.083104  0  3.882414  0
C  C46  1  0.12426846  0.22829592  0.27851341  1  0  -0.090956  0  3.770336  0  0  -0.065358  0  4.012397  0  0  -0.077292  0  4.037088  0  0  -0.020714  -0.057743  0  3.995777  0
C  C47  1  0.87574709  0.77171223  0.72147660  1  0  -0.090699  0  3.770201  0  0  -0.065127  0  4.012258  0  0  -0.077058  0  4.03693  0  0  -0.020611  -0.057509  0  3.995633  0
C  C48  1  0.13194558  0.11869191  0.30487430  1  0  -0.022263  0  3.701985  0  0  -0.061548  0  3.952432  0  0  -0.05623  0  3.970965  0  0  -0.066665  -0.064724  0  3.939884  0
C  C49  1  0.86807022  0.88132044  0.69511994  1  0  -0.022387  0  3.701875  0  0  -0.061787  0  3.952285  0  0  -0.056417  0  3.970841  0  0  -0.06674  -0.064968  0  3.939744  0
C  C50  1  0.28279750  0.65233156  0.06497612  1  0  0.33993  0  3.566302  0  0  0.320338  0  3.822184  0  0  0.32895  0  3.833107  0  0  0.008648  0.314369  0  3.814636  0
C  C51  1  0.71718903  0.34766759  0.93502707  1  0  0.339982  0  3.566277  0  0  0.320368  0  3.822155  0  0  0.328979  0  3.833088  0  0  0.008704  0.314417  0  3.814605  0
C  C52  1  0.27460539  0.54371054  0.11017533  1  0  -0.360394  0  3.662125  0  0  -0.441964  0  3.904362  0  0  -0.444957  0  3.912168  0  0  -0.247994  -0.439499  0  3.898709  0
C  C53  1  0.72536710  0.45630006  0.88984101  1  0  -0.360553  0  3.661626  0  0  -0.44218  0  3.903961  0  0  -0.445156  0  3.91171  0  0  -0.248173  -0.439719  0  3.898303  0
C  C54  1  0.23932258  0.59371190  0.91862862  1  0  -0.345771  0  3.657927  0  0  -0.428802  0  3.901207  0  0  -0.431752  0  3.90973  0  0  -0.243765  -0.426435  0  3.895385  0
C  C55  1  0.76065661  0.40626934  0.08137253  1  0  -0.345604  0  3.658104  0  0  -0.428582  0  3.901387  0  0  -0.431558  0  3.909891  0  0  -0.243759  -0.426213  0  3.895564  0
C  C56  1  0.27306766  0.11413894  0.94747971  1  0  0.6325  0  3.943033  0  0  0.585853  0  4.230355  0  0  0.618974  0  4.225639  0  0  0.199182  0.563456  0  4.232747  0
C  C57  1  0.72695620  0.88586495  0.05251694  1  0  0.632722  0  3.942947  0  0  0.586167  0  4.230271  0  0  0.619294  0  4.225544  0  0  0.199268  0.56377  0  4.232669  0
C  C58  1  0.07205983  0.34763499  0.37728652  1  0  0.642366  0  3.825486  0  0  0.586824  0  4.132348  0  0  0.620174  0  4.125298  0  0  0.232739  0.564099  0  4.136772  0
C  C59  1  0.92794547  0.65237088  0.62270813  1  0  0.64222  0  3.825419  0  0  0.586843  0  4.132032  0  0  0.620192  0  4.124983  0  0  0.232759  0.564119  0  4.136451  0
C  C60  1  0.53722545  0.23056272  0.49557916  1  0  0.150833  0  3.662143  0  0  0.118746  0  3.91219  0  0  0.12623  0  3.929065  0  0  0.057418  0.11385  0  3.900692  0
C  C61  1  0.46276558  0.76942185  0.50442045  1  0  0.150969  0  3.661957  0  0  0.118812  0  3.91205  0  0  0.126295  0  3.928924  0  0  0.057436  0.113911  0  3.900552  0
C  C62  1  0.49115730  0.35422864  0.54288076  1  0  -0.135888  0  3.670469  0  0  -0.156693  0  3.918698  0  0  -0.163808  0  3.938657  0  0  -0.070482  -0.152666  0  3.905798  0
C  C63  1  0.50883596  0.64575921  0.45712803  1  0  -0.136043  0  3.670749  0  0  -0.156831  0  3.91897  0  0  -0.163951  0  3.938924  0  0  -0.070528  -0.152798  0  3.906079  0
C  C64  1  0.52447482  0.43441009  0.47756533  1  0  0.090889  0  3.760922  0  0  0.101579  0  3.993443  0  0  0.10543  0  4.014812  0  0  0.013196  0.099076  0  3.978946  0
C  C65  1  0.47553592  0.56558613  0.52244936  1  0  0.090903  0  3.761137  0  0  0.101626  0  3.993569  0  0  0.105489  0  4.014922  0  0  0.013263  0.099101  0  3.979103  0
C  C66  1  0.60590769  0.38443079  0.36625333  1  0  -0.149418  0  3.71066  0  0  -0.17205  0  3.962708  0  0  -0.179603  0  3.984591  0  0  -0.078936  -0.166681  0  3.947524  0
C  C67  1  0.39410415  0.61556860  0.63376610  1  0  -0.149572  0  3.71069  0  0  -0.172174  0  3.96274  0  0  -0.179724  0  3.984626  0  0  -0.079097  -0.1668  0  3.947556  0
C  C68  1  0.64664121  0.25963963  0.32403052  1  0  0.134677  0  3.71215  0  0  0.102821  0  3.963236  0  0  0.10948  0  3.982288  0  0  0.048518  0.098557  0  3.950096  0
C  C69  1  0.35336997  0.74036054  0.67598224  1  0  0.134657  0  3.712004  0  0  0.10279  0  3.962963  0  0  0.109448  0  3.982016  0  0  0.048619  0.098526  0  3.94982  0
N  N70  1  0.61272577  0.18349542  0.38728280  1  0  -0.3463  0  3.303543  0  0  -0.261778  0  3.578955  0  0  -0.281353  0  3.593783  0  0  -0.332065  -0.24831  0  3.568591  0
N  N71  1  0.38727768  0.81649780  0.61272253  1  0  -0.346365  0  3.303362  0  0  -0.261856  0  3.578827  0  0  -0.281433  0  3.593657  0  0  -0.332137  -0.248385  0  3.568463  0
O  O72  1  0.40181920  0.89427158  0.30876940  1  0  -0.852683  0  2.069813  0  0  -0.75701  0  2.371585  0  0  -0.786291  0  2.346083  0  0  -0.371483  -0.736295  0  2.388231  0
O  O73  1  0.59818245  0.10572530  0.69122334  1  0  -0.852734  0  2.069885  0  0  -0.756978  0  2.371609  0  0  -0.786287  0  2.346158  0  0  -0.371449  -0.736275  0  2.38828  0
O  O74  1  0.08211932  0.86596169  0.35145620  1  0  -0.819622  0  1.945022  0  0  -0.735584  0  2.173428  0  0  -0.761663  0  2.152989  0  0  -0.360391  -0.717124  0  2.187104  0
O  O75  1  0.91788089  0.13404449  0.64853915  1  0  -0.819684  0  1.945023  0  0  -0.735556  0  2.173392  0  0  -0.761618  0  2.15295  0  0  -0.360383  -0.717103  0  2.187068  0
O  O76  1  0.15318983  0.73419586  0.12247342  1  0  -0.535389  0  2.158623  0  0  -0.447322  0  2.402072  0  0  -0.469393  0  2.393799  0  0  -0.211992  -0.431882  0  2.407262  0
O  O77  1  0.84680989  0.26581840  0.87752066  1  0  -0.535354  0  2.158662  0  0  -0.447271  0  2.402114  0  0  -0.469342  0  2.39384  0  0  -0.21198  -0.431826  0  2.407288  0
O  O78  1  0.31273388  0.00348110  0.86607624  1  0  -0.684382  0  2.077126  0  0  -0.612946  0  2.357661  0  0  -0.643461  0  2.343818  0  0  -0.33941  -0.591416  0  2.366296  0
O  O79  1  0.68727906  0.99651831  0.13391983  1  0  -0.684468  0  2.077068  0  0  -0.613071  0  2.357618  0  0  -0.643571  0  2.343732  0  0  -0.339498  -0.59154  0  2.366254  0
O  O80  1  0.27727608  0.21461294  0.92715588  1  0  -0.591451  0  1.889354  0  0  -0.544984  0  2.099743  0  0  -0.567137  0  2.091632  0  0  -0.313369  -0.529677  0  2.1049  0
O  O81  1  0.72273960  0.78538604  0.07283324  1  0  -0.5916  0  1.889462  0  0  -0.545103  0  2.099795  0  0  -0.567253  0  2.09167  0  0  -0.313352  -0.529799  0  2.104961  0
O  O82  1  0.04382462  0.35625847  0.48589007  1  0  -0.558075  0  1.984441  0  0  -0.50751  0  2.199802  0  0  -0.529265  0  2.191652  0  0  -0.282965  -0.492621  0  2.205323  0
O  O83  1  0.95619654  0.64375320  0.51409465  1  0  -0.558126  0  1.984022  0  0  -0.50766  0  2.199298  0  0  -0.529423  0  2.191161  0  0  -0.283113  -0.492773  0  2.204817  0
O  O84  1  0.05890032  0.44248327  0.34070172  1  0  -0.538791  0  2.112886  0  0  -0.485363  0  2.333931  0  0  -0.508913  0  2.322367  0  0  -0.31819  -0.469049  0  2.341638  0
O  O85  1  0.94108684  0.55751799  0.65927889  1  0  -0.538876  0  2.113193  0  0  -0.485411  0  2.334081  0  0  -0.508963  0  2.322508  0  0  -0.318145  -0.469098  0  2.341799  0
O  O86  1  0.79123857  0.94726020  0.40594022  1  0  -0.845364  0  1.906407  0  0  -0.76744  0  2.13602  0  0  -0.791257  0  2.096555  0  0  -0.572221  -0.750791  0  2.163304  0
O  O87  1  0.20876006  0.05273293  0.59405614  1  0  -0.845413  0  1.906401  0  0  -0.767437  0  2.136065  0  0  -0.791234  0  2.096646  0  0  -0.572224  -0.750807  0  2.163331  0
