# generated using pymatgen
data_MgH3C7SO3
_symmetry_space_group_name_H-M   'P 1'
_cell_length_a   6.84072429
_cell_length_b   26.99262775
_cell_length_c   27.00234052
_cell_angle_alpha   119.32132032
_cell_angle_beta   94.85790943
_cell_angle_gamma   94.85733505
_symmetry_Int_Tables_number   1
_chemical_formula_structural   MgH3C7SO3
_chemical_formula_sum   'Mg6 H18 C42 S6 O18'
_cell_volume   4285.67036466
_cell_formula_units_Z   6
loop_
 _symmetry_equiv_pos_site_id
 _symmetry_equiv_pos_as_xyz
  1  'x, y, z'
loop_
 _atom_site_type_symbol
 _atom_site_label
 _atom_site_symmetry_multiplicity
 _atom_site_fract_x
 _atom_site_fract_y
 _atom_site_fract_z
 _atom_site_occupancy
 _atom_site_pbe_bader_charge
 _atom_site_pbe_bader_spin_density
 _atom_site_pbe_cm5_charge
 _atom_site_pbe_ddec_charge
 _atom_site_pbe_ddec_spin_density
 _atom_site_pbe_ddec_sum_bond_order
 _atom_site_pbe_magmom
Mg  Mg0  1  0.89746555  0.70302119  0.37434086  1  1.682759  0  0.907498  1.408746  0  1.3268  0
Mg  Mg1  1  0.10254218  0.29697924  0.62565910  1  1.682733  0  0.907447  1.408682  0  1.326819  0
Mg  Mg2  1  0.52296182  0.62548055  0.32857799  1  1.6844  0  0.907269  1.408094  0  1.327442  0
Mg  Mg3  1  0.47704233  0.37451859  0.67142164  1  1.684414  0  0.907274  1.40807  0  1.327546  0
Mg  Mg4  1  0.19427382  0.67121801  0.29683547  1  1.684288  0  0.907456  1.409499  0  1.325863  0
Mg  Mg5  1  0.80573266  0.32878286  0.70316467  1  1.684307  0  0.907469  1.409532  0  1.325808  0
H  H6  1  0.77593888  0.45915052  0.59266680  1  0.092197  0  0.105128  0.115495  0  1.00968  0
H  H7  1  0.44100701  0.39914077  0.56044486  1  0.087855  0  0.1086  0.127587  0  1.001354  0
H  H8  1  0.33423605  0.46876733  0.53233788  1  0.097538  0  0.103423  0.107208  0  0.999385  0
H  H9  1  0.22404387  0.54084691  0.40733227  1  0.092237  0  0.105154  0.115472  0  1.009633  0
H  H10  1  0.55899342  0.60086267  0.43955493  1  0.087612  0  0.108577  0.127491  0  1.00141  0
H  H11  1  0.66575196  0.53123182  0.46765658  1  0.092504  0  0.103409  0.107243  0  0.999412  0
H  H12  1  0.18356788  0.40730898  0.86647732  1  0.106132  0  0.105347  0.115542  0  1.009927  0
H  H13  1  0.88119052  0.43957930  0.83882883  1  0.092049  0  0.108847  0.12789  0  1.001624  0
H  H14  1  0.80253366  0.46737987  0.93649055  1  0.103486  0  0.10359  0.107087  0  0.999518  0
H  H15  1  0.81643795  0.59269060  0.13352477  1  0.106068  0  0.105331  0.115499  0  1.009952  0
H  H16  1  0.11881785  0.56042243  0.16117104  1  0.091873  0  0.108871  0.127948  0  1.001686  0
H  H17  1  0.19747450  0.53262142  0.06351096  1  0.103541  0  0.103584  0.107072  0  0.999553  0
H  H18  1  0.31653639  0.13351639  0.54092381  1  0.08104  0  0.105278  0.115967  0  1.009743  0
H  H19  1  0.04199102  0.16128462  0.60070282  1  0.085202  0  0.108686  0.127706  0  1.001915  0
H  H20  1  0.86519100  0.06353683  0.53095162  1  0.086063  0  0.103251  0.107202  0  0.999266  0
H  H21  1  0.68346404  0.86648705  0.45907636  1  0.0809  0  0.105259  0.115993  0  1.009658  0
H  H22  1  0.95800619  0.83871238  0.39929449  1  0.085158  0  0.108681  0.127694  0  1.001893  0
H  H23  1  0.13479179  0.93646360  0.46904743  1  0.086206  0  0.103232  0.107167  0  0.999177  0
C  C24  1  0.04644633  0.46862790  0.56036047  1  -0.129868  0  -0.027772  0.041313  0  4.077039  0
C  C25  1  0.92308500  0.44672370  0.58568958  1  0.019291  0  -0.08427  -0.107165  0  3.959537  0
C  C26  1  0.98460500  0.40900151  0.60404050  1  -0.043449  0  -0.039923  -0.199863  0  3.952347  0
C  C27  1  0.17515308  0.39078721  0.59407650  1  0.582723  0  0.097039  0.368311  0  4.06778  0
C  C28  1  0.29578360  0.41289971  0.56733287  1  -0.027143  0  -0.102944  -0.203591  0  3.962929  0
C  C29  1  0.23572613  0.45155557  0.55175908  1  -0.044482  0  -0.081844  -0.075064  0  3.985271  0
C  C30  1  0.84889575  0.39074437  0.63367875  1  1.507365  0  0.238907  0.679109  0  4.115958  0
C  C31  1  0.95353685  0.53137038  0.43963754  1  -0.129942  0  -0.027855  0.041306  0  4.077136  0
C  C32  1  0.07690237  0.55327416  0.41430868  1  0.019205  0  -0.084309  -0.107206  0  3.959546  0
C  C33  1  0.01539392  0.59099893  0.39596001  1  -0.043425  0  -0.039936  -0.199802  0  3.95234  0
C  C34  1  0.82484920  0.60921409  0.40592376  1  0.582797  0  0.097009  0.368139  0  4.067767  0
C  C35  1  0.70421683  0.58710373  0.43266766  1  -0.026609  0  -0.10282  -0.203266  0  3.962953  0
C  C36  1  0.76425666  0.54844486  0.44823849  1  -0.039687  0  -0.08184  -0.075187  0  3.98531  0
C  C37  1  0.15111888  0.60925521  0.36632242  1  1.507368  0  0.238895  0.679078  0  4.115841  0
C  C38  1  0.48651255  0.43947494  0.90830478  1  -0.151239  0  -0.028701  0.040268  0  4.076997  0
C  C39  1  0.33771247  0.41432303  0.86107796  1  0.016367  0  -0.083745  -0.106608  0  3.959165  0
C  C40  1  0.38099426  0.39611363  0.80504454  1  -0.033251  0  -0.039917  -0.198547  0  3.95216  0
C  C41  1  0.58146655  0.40608231  0.79681910  1  0.581556  0  0.098027  0.369497  0  4.067831  0
C  C42  1  0.72901278  0.43269786  0.84568095  1  0.027824  0  -0.103227  -0.204565  0  3.964779  0
C  C43  1  0.68450656  0.44809381  0.89985607  1  -0.096127  0  -0.081392  -0.074045  0  3.985265  0
C  C44  1  0.21556805  0.36651245  0.75713733  1  1.491518  0  0.237863  0.676758  0  4.12066  0
C  C45  1  0.51349456  0.56052722  0.09169638  1  -0.150721  0  -0.028732  0.040201  0  4.077132  0
C  C46  1  0.66229128  0.58567826  0.13892160  1  0.016234  0  -0.083746  -0.106556  0  3.959073  0
C  C47  1  0.61901678  0.60388466  0.19495740  1  -0.033413  0  -0.039782  -0.19848  0  3.952032  0
C  C48  1  0.41853842  0.59391555  0.20318103  1  0.581818  0  0.097984  0.369537  0  4.06799  0
C  C49  1  0.27098989  0.56730128  0.15431901  1  0.027888  0  -0.103249  -0.20466  0  3.964898  0
C  C50  1  0.31550138  0.55190706  0.10014337  1  -0.096251  0  -0.081409  -0.074026  0  3.985196  0
C  C51  1  0.78443756  0.63348670  0.24286455  1  1.49123  0  0.23796  0.676858  0  4.120726  0
C  C52  1  0.57755927  0.09172622  0.53127927  1  -0.121475  0  -0.028152  0.040904  0  4.077978  0
C  C53  1  0.47616792  0.13896612  0.55331013  1  0.025421  0  -0.084035  -0.107336  0  3.959515  0
C  C54  1  0.57555462  0.19506379  0.59107900  1  -0.065761  0  -0.040167  -0.199979  0  3.95222  0
C  C55  1  0.78438223  0.20331137  0.60923772  1  0.585978  0  0.098157  0.370188  0  4.065863  0
C  C56  1  0.88296959  0.15444383  0.58699799  1  0.008746  0  -0.102895  -0.203859  0  3.963237  0
C  C57  1  0.78403046  0.10021223  0.54829209  1  -0.044654  0  -0.081785  -0.075376  0  3.985157  0
C  C58  1  0.45822982  0.24298965  0.60942334  1  1.518144  0  0.23847  0.67864  0  4.118051  0
C  C59  1  0.42242956  0.90827163  0.46871717  1  -0.120889  0  -0.028068  0.04096  0  4.077711  0
C  C60  1  0.52383058  0.86103346  0.44668588  1  0.025215  0  -0.084079  -0.107422  0  3.959424  0
C  C61  1  0.42443801  0.80493579  0.40892022  1  -0.065796  0  -0.040077  -0.199848  0  3.952322  0
C  C62  1  0.21562067  0.79668820  0.39075950  1  0.586258  0  0.098093  0.370138  0  4.066151  0
C  C63  1  0.11702951  0.84555403  0.41299830  1  0.008617  0  -0.102901  -0.20395  0  3.963308  0
C  C64  1  0.21595962  0.89978520  0.45170639  1  -0.044726  0  -0.081807  -0.075299  0  3.984998  0
C  C65  1  0.54176785  0.75701122  0.39057699  1  1.518193  0  0.238338  0.678426  0  4.118421  0
S  S66  1  0.02980163  0.48028687  0.45687986  1  0.022031  0  -0.02185  -0.074133  0  2.614571  0
S  S67  1  0.97016895  0.51970970  0.54311556  1  0.016708  0  -0.021874  -0.07407  0  2.614382  0
S  S68  1  0.57203294  0.54325944  0.02333539  1  0.01482  0  -0.0225  -0.074765  0  2.61402  0
S  S69  1  0.42797793  0.45674143  0.97666671  1  0.010848  0  -0.022445  -0.074729  0  2.613883  0
S  S70  1  0.54965330  0.97667102  0.51978148  1  0.012646  0  -0.021962  -0.074157  0  2.615261  0
S  S71  1  0.45033479  0.02333414  0.48021925  1  0.018206  0  -0.021881  -0.074005  0  2.615465  0
O  O72  1  0.31433163  0.58956417  0.35505934  1  -1.239381  0  -0.352238  -0.641002  0  2.152458  0
O  O73  1  0.10042611  0.64615077  0.35187386  1  -1.294855  0  -0.4014  -0.770828  0  2.407747  0
O  O74  1  0.75232807  0.64545568  0.39098180  1  -1.309909  0  -0.44809  -0.77581  0  2.30826  0
O  O75  1  0.68567312  0.41043326  0.64494057  1  -1.239332  0  -0.352292  -0.641077  0  2.152392  0
O  O76  1  0.89958101  0.35385139  0.64812915  1  -1.294984  0  -0.401394  -0.770767  0  2.407964  0
O  O77  1  0.24768034  0.35454905  0.60901990  1  -1.309673  0  -0.448081  -0.775852  0  2.308437  0
O  O78  1  0.95894859  0.64480659  0.23449821  1  -1.232965  0  -0.351753  -0.640362  0  2.154059  0
O  O79  1  0.74834216  0.64790654  0.29420511  1  -1.293727  0  -0.401534  -0.770186  0  2.410247  0
O  O80  1  0.36103130  0.60877650  0.25434529  1  -1.308829  0  -0.448532  -0.777018  0  2.308707  0
O  O81  1  0.04106224  0.35519127  0.76550315  1  -1.232925  0  -0.351711  -0.64029  0  2.153992  0
O  O82  1  0.25165905  0.35209260  0.70579667  1  -1.29395  0  -0.401476  -0.770143  0  2.410141  0
O  O83  1  0.63897915  0.39122351  0.74565452  1  -1.308826  0  -0.448516  -0.776994  0  2.30863  0
O  O84  1  0.72467670  0.76539895  0.41028328  1  -1.243919  0  -0.352209  -0.641089  0  2.153249  0
O  O85  1  0.45417385  0.70565458  0.35361926  1  -1.303129  0  -0.401257  -0.770482  0  2.409045  0
O  O86  1  0.10682440  0.74547654  0.35446129  1  -1.311665  0  -0.4487  -0.777115  0  2.308392  0
O  O87  1  0.27531485  0.23459848  0.58971338  1  -1.243888  0  -0.352298  -0.641199  0  2.153027  0
O  O88  1  0.54583491  0.29434500  0.64638105  1  -1.303132  0  -0.401252  -0.77052  0  2.408961  0
O  O89  1  0.89318354  0.25452432  0.64553815  1  -1.31158  0  -0.448779  -0.777222  0  2.308282  0
