# generated using pymatgen
data_CoH16C22(NO3)2
_symmetry_space_group_name_H-M   'P 1'
_cell_length_a   7.12513613
_cell_length_b   9.61539768
_cell_length_c   12.69789126
_cell_angle_alpha   87.97890793
_cell_angle_beta   94.28342788
_cell_angle_gamma   93.48861930
_symmetry_Int_Tables_number   1
_chemical_formula_structural   CoH16C22(NO3)2
_chemical_formula_sum   'Co2 H32 C44 N4 O12'
_cell_volume   865.49534020
_cell_formula_units_Z   2
loop_
 _symmetry_equiv_pos_site_id
 _symmetry_equiv_pos_as_xyz
  1  'x, y, z'
loop_
 _atom_site_type_symbol
 _atom_site_label
 _atom_site_symmetry_multiplicity
 _atom_site_fract_x
 _atom_site_fract_y
 _atom_site_fract_z
 _atom_site_occupancy
 _atom_site_hse06_10hf_ddec_charge
 _atom_site_hse06_10hf_ddec_spin_density
 _atom_site_hse06_10hf_ddec_sum_bond_order
 _atom_site_hse06_10hf_magmom
 _atom_site_hse06_ddec_charge
 _atom_site_hse06_ddec_spin_density
 _atom_site_hse06_ddec_sum_bond_order
 _atom_site_hse06_magmom
 _atom_site_pbe_cm5_charge
 _atom_site_pbe_ddec_charge
 _atom_site_pbe_ddec_spin_density
 _atom_site_pbe_ddec_sum_bond_order
 _atom_site_pbe_magmom
Co  Co0  1  0.00000041  0.50000168  0.50000003  1  0.776211  1.066578  2.765757  1.005  0.834548  1.034138  2.695578  0.987  0.654931  0.743703  1.092014  2.808826  1.018
Co  Co1  1  0.49999957  0.00000190  0.50000197  1  0.975155  2.85465  2.339761  2.655  1.044896  2.9011  2.276157  2.727  0.671199  0.914738  2.804876  2.396238  2.583
H  H2  1  0.90290448  0.02046170  0.60973058  1  0.158838  -0.000293  1.026549  0.0  0.163626  -0.0003  1.024246  0.0  0.118501  0.155091  -0.000203  1.0288  0.0
H  H3  1  0.59071021  0.52007263  0.39310477  1  0.155839  6.2e-05  1.022756  0.0  0.16118  9e-06  1.01961  0.0  0.116862  0.151454  0.000184  1.026144  0.0
H  H4  1  0.09710468  0.97954114  0.39026614  1  0.1589  -0.000293  1.026517  0.0  0.163713  -0.0003  1.024177  0.0  0.118576  0.155139  -0.000204  1.028808  0.0
H  H5  1  0.40928891  0.47992673  0.60689787  1  0.155897  6.2e-05  1.022826  0.0  0.161236  9e-06  1.019681  0.0  0.116884  0.151515  0.000184  1.026216  0.0
H  H6  1  0.23019170  0.41917794  0.02142933  1  0.102584  -1.7e-05  1.02809  0.0  0.105876  -1.6e-05  1.026516  0.0  0.100816  0.100079  -2.1e-05  1.029672  0.0
H  H7  1  0.26259958  0.92014292  0.97605126  1  0.099488  -2.1e-05  1.032931  0.0  0.102787  -1.8e-05  1.03147  0.0  0.099432  0.097054  -2.6e-05  1.034267  0.0
H  H8  1  0.76981164  0.58082055  0.97856956  1  0.102549  -1.7e-05  1.028082  0.0  0.105841  -1.6e-05  1.026513  0.0  0.100818  0.100044  -2.1e-05  1.029657  0.0
H  H9  1  0.73742069  0.07985600  0.02394601  1  0.099462  -2.1e-05  1.03294  0.0  0.102767  -1.8e-05  1.031464  0.0  0.099402  0.097023  -2.6e-05  1.03428  0.0
H  H10  1  0.14837759  0.62784172  0.91180116  1  0.08693  -3.2e-05  1.037857  0.0  0.088987  -2.1e-05  1.037227  0.0  0.097329  0.084911  -4e-05  1.039174  0.0
H  H11  1  0.33508778  0.12728844  0.08541295  1  0.08802  -2.8e-05  1.034245  0.0  0.090147  -2.2e-05  1.033503  0.0  0.09708  0.08598  -3.4e-05  1.035659  0.0
H  H12  1  0.85161166  0.37215740  0.08820183  1  0.087043  -3.2e-05  1.037803  0.0  0.089111  -2.1e-05  1.037142  0.0  0.097365  0.085015  -4e-05  1.039124  0.0
H  H13  1  0.66494102  0.87271179  0.91458073  1  0.088075  -2.8e-05  1.03418  0.0  0.090201  -2.2e-05  1.033435  0.0  0.097102  0.086034  -3.4e-05  1.035598  0.0
H  H14  1  0.02982748  0.60530344  0.72243596  1  0.130446  -9.9e-05  1.03012  0.0  0.134701  -0.00011  1.027032  0.0  0.113261  0.128035  -8.4e-05  1.030608  0.0
H  H15  1  0.45787936  0.10032589  0.27426215  1  0.126495  -0.000151  1.036241  0.0  0.130687  -0.00017  1.033194  0.0  0.110723  0.124243  -0.000122  1.036342  0.0
H  H16  1  0.97015745  0.39469350  0.27756688  1  0.130446  -9.9e-05  1.030051  0.0  0.134643  -0.00011  1.027039  0.0  0.113223  0.128034  -8.4e-05  1.030543  0.0
H  H17  1  0.54213395  0.89967498  0.72573399  1  0.126486  -0.000151  1.036264  0.0  0.13068  -0.00017  1.033218  0.0  0.110723  0.124234  -0.000122  1.036367  0.0
H  H18  1  0.90156184  0.86293172  0.73507233  1  0.110516  -3e-06  1.037429  0.0  0.111874  -1.7e-05  1.036624  0.0  0.101029  0.109317  -1.6e-05  1.037725  0.0
H  H19  1  0.59299256  0.36819151  0.26828478  1  0.110458  -3.8e-05  1.036202  0.0  0.111824  -4.1e-05  1.035641  0.0  0.099801  0.109422  -3.4e-05  1.036094  0.0
H  H20  1  0.09843733  0.13706873  0.26492793  1  0.110524  -3e-06  1.037446  0.0  0.111884  -1.7e-05  1.036641  0.0  0.101046  0.109324  -1.6e-05  1.037741  0.0
H  H21  1  0.40700493  0.63180164  0.73171472  1  0.110467  -3.8e-05  1.036158  0.0  0.111829  -4.1e-05  1.035598  0.0  0.099808  0.109431  -3.4e-05  1.036053  0.0
H  H22  1  0.07720711  0.80826183  0.83412161  1  0.104121  1.7e-05  1.020209  0.0  0.104363  1.1e-05  1.020074  0.0  0.100871  0.103597  2.6e-05  1.019924  0.0
H  H23  1  0.42330350  0.30942960  0.16581257  1  0.102664  1.3e-05  1.016261  0.0  0.102639  1.1e-05  1.016291  0.0  0.099737  0.102362  1.4e-05  1.015768  0.0
H  H24  1  0.92279481  0.19173660  0.16587879  1  0.104087  1.7e-05  1.02024  0.0  0.104328  1.1e-05  1.020106  0.0  0.100861  0.103562  2.6e-05  1.01995  0.0
H  H25  1  0.57668450  0.69057271  0.83418638  1  0.102671  1.3e-05  1.016256  0.0  0.102645  1e-05  1.016286  0.0  0.09973  0.102372  1.4e-05  1.015762  0.0
H  H26  1  0.14488699  0.86772813  0.70542692  1  0.127608  -0.000187  1.026634  0.0  0.129454  -0.000149  1.025525  0.0  0.104322  0.126311  -0.000145  1.026661  0.0
H  H27  1  0.34719801  0.35085900  0.29291148  1  0.122793  -7.5e-05  1.04401  0.0  0.124708  -8.6e-05  1.042741  0.0  0.102379  0.121212  -5.2e-05  1.044462  0.0
H  H28  1  0.85510926  0.13226919  0.29457089  1  0.127636  -0.000187  1.026573  0.0  0.129479  -0.000149  1.025473  0.0  0.104376  0.12634  -0.000145  1.026601  0.0
H  H29  1  0.65279707  0.64914451  0.70708777  1  0.122822  -7.5e-05  1.043992  0.0  0.124737  -8.6e-05  1.042722  0.0  0.102388  0.121242  -5.2e-05  1.044444  0.0
H  H30  1  0.17359174  0.18231715  0.94482114  1  0.104036  -5.3e-05  1.032919  0.0  0.10714  -3.8e-05  1.030801  0.0  0.103791  0.10193  -5.4e-05  1.03445  0.0
H  H31  1  0.32378238  0.68258410  0.05317687  1  0.103657  0.000105  1.032121  0.0  0.106771  7.3e-05  1.030119  0.0  0.102687  0.101383  0.000138  1.033829  0.0
H  H32  1  0.82641023  0.81768236  0.05517767  1  0.104039  -5.3e-05  1.03294  0.0  0.107143  -3.8e-05  1.030822  0.0  0.103795  0.101934  -5.4e-05  1.034473  0.0
H  H33  1  0.67622516  0.31741441  0.94682535  1  0.103656  0.000105  1.032155  0.0  0.106769  7.3e-05  1.030155  0.0  0.102704  0.101388  0.000138  1.033846  0.0
C  C34  1  0.14631080  0.27646324  0.89754080  1  -0.108615  -0.002675  4.012342  -0.002  -0.108315  -0.002255  4.032312  -0.001  -0.08916  -0.108378  -0.002853  3.998374  -0.002
C  C35  1  0.35155381  0.77514891  0.10002927  1  -0.111119  -0.001086  4.00967  -0.001  -0.110968  -0.001087  4.029975  -0.001  -0.089962  -0.110895  -0.001377  3.99569  -0.001
C  C36  1  0.85368546  0.72353407  0.10245701  1  -0.108722  -0.002676  4.012456  -0.002  -0.108424  -0.002257  4.032427  -0.001  -0.089199  -0.108489  -0.002852  3.998494  -0.002
C  C37  1  0.64845242  0.22485169  0.89997130  1  -0.111135  -0.001087  4.009595  -0.001  -0.110985  -0.001086  4.029905  -0.001  -0.090001  -0.110914  -0.001376  3.995599  -0.001
C  C38  1  0.92171215  0.24259706  0.58772004  1  0.117861  -0.011936  4.026826  -0.007  0.1283  -0.008334  4.03865  -0.005  0.10768  0.110949  -0.013212  4.020213  -0.007
C  C39  1  0.57934041  0.74057286  0.41074063  1  0.132621  -0.006413  4.018748  -0.004  0.141421  -0.004916  4.03282  -0.003  0.109111  0.125494  -0.007876  4.010438  -0.004
C  C40  1  0.07828856  0.75740655  0.41228024  1  0.117774  -0.011937  4.027158  -0.007  0.128212  -0.008337  4.038983  -0.005  0.107619  0.110866  -0.013216  4.020542  -0.007
C  C41  1  0.42065419  0.25941910  0.58926270  1  0.132636  -0.006408  4.019101  -0.004  0.141436  -0.004911  4.033184  -0.003  0.109093  0.125511  -0.00787  4.010793  -0.004
C  C42  1  0.95071052  0.11866373  0.64571195  1  -0.274475  0.000486  3.943479  0.002  -0.285523  0.000664  3.958185  0.002  -0.098339  -0.268228  3.1e-05  3.934993  0.002
C  C43  1  0.54711865  0.61704227  0.35495417  1  -0.272477  0.0007  3.93212  0.002  -0.282549  0.000589  3.947283  0.001  -0.099616  -0.266707  0.000959  3.924383  0.002
C  C44  1  0.04929133  0.88133267  0.35428612  1  -0.274528  0.000484  3.943857  0.002  -0.285588  0.000663  3.958555  0.002  -0.098372  -0.268283  3e-05  3.935374  0.002
C  C45  1  0.45286942  0.38296210  0.64504555  1  -0.272572  0.000701  3.931927  0.002  -0.282643  0.000589  3.947092  0.001  -0.099645  -0.2668  0.00096  3.924187  0.002
C  C46  1  0.03676679  0.12706271  0.74711289  1  0.278887  -0.009872  4.018428  -0.006  0.29977  -0.006746  4.026937  -0.004  0.110238  0.265035  -0.011664  4.012671  -0.007
C  C47  1  0.46374476  0.62454507  0.25269596  1  0.278536  -0.003929  4.016257  -0.002  0.297392  -0.002826  4.026373  -0.002  0.109858  0.265209  -0.006363  4.010025  -0.004
C  C48  1  0.96323820  0.87294205  0.25288678  1  0.278859  -0.009874  4.018242  -0.006  0.299741  -0.006747  4.026747  -0.004  0.11021  0.265004  -0.011666  4.012492  -0.007
C  C49  1  0.53625146  0.37545306  0.74731208  1  0.278565  -0.003926  4.016422  -0.002  0.297417  -0.002825  4.02654  -0.002  0.109896  0.265236  -0.006359  4.010193  -0.004
C  C50  1  0.07600318  0.26124011  0.79125556  1  -0.071374  0.000426  3.999481  0.001  -0.079565  0.000632  4.023909  0.001  -0.010185  -0.066004  1.9e-05  3.982792  0.001
C  C51  1  0.42431673  0.75802270  0.20609372  1  -0.072935  0.001908  4.001235  0.003  -0.080378  0.001601  4.025467  0.003  -0.013015  -0.067848  0.002216  3.984855  0.004
C  C52  1  0.92399300  0.73875512  0.20874228  1  -0.071303  0.000427  3.999093  0.001  -0.079491  0.000632  4.023518  0.001  -0.010146  -0.065934  1.9e-05  3.982408  0.001
C  C53  1  0.57567849  0.24198490  0.79390862  1  -0.073035  0.001908  4.001534  0.003  -0.08048  0.001601  4.025767  0.003  -0.01303  -0.067946  0.002216  3.985151  0.004
C  C54  1  0.17581601  0.40682863  0.93956222  1  -0.089236  0.000697  4.023774  0.001  -0.09184  0.00088  4.043422  0.001  -0.092448  -0.087729  0.000183  4.010417  0.001
C  C55  1  0.31816221  0.90612711  0.05776036  1  -0.086171  0.000694  4.025112  0.001  -0.089429  0.000688  4.045736  0.001  -0.092538  -0.084011  0.000695  4.011023  0.001
C  C56  1  0.82418465  0.59317392  0.06043886  1  -0.089114  0.000698  4.023617  0.001  -0.09172  0.000881  4.043267  0.001  -0.092436  -0.087606  0.000183  4.010253  0.001
C  C57  1  0.68185240  0.09387164  0.94223903  1  -0.08608  0.000693  4.024984  0.001  -0.08934  0.000687  4.045613  0.001  -0.092466  -0.083917  0.000695  4.010893  0.001
C  C58  1  0.13125548  0.52577728  0.87647149  1  -0.066004  -0.002574  4.02657  -0.001  -0.065159  -0.002205  4.045575  -0.001  -0.087133  -0.065777  -0.00268  4.013908  -0.001
C  C59  1  0.35853195  0.02416179  0.12043632  1  -0.066987  -0.001526  4.035008  -0.001  -0.066136  -0.001459  4.054802  -0.001  -0.088952  -0.067101  -0.001877  4.022037  -0.001
C  C60  1  0.86873631  0.47421464  0.12353013  1  -0.066203  -0.002575  4.026334  -0.001  -0.065352  -0.002205  4.045322  -0.001  -0.087191  -0.065969  -0.00268  4.013671  -0.001
C  C61  1  0.64148414  0.97583810  0.87955996  1  -0.067111  -0.001526  4.035064  -0.001  -0.066258  -0.001459  4.054864  -0.001  -0.08904  -0.067227  -0.001877  4.022096  -0.001
C  C62  1  0.06561406  0.51491097  0.77193657  1  -0.153066  0.000698  3.933161  0.001  -0.155696  0.000902  3.948581  0.001  -0.082524  -0.152402  0.000133  3.922668  0.001
C  C63  1  0.42748326  0.01087673  0.22436684  1  -0.162251  0.000915  3.943963  0.002  -0.166299  0.000833  3.961677  0.002  -0.086315  -0.16027  0.000981  3.931772  0.002
C  C64  1  0.93437245  0.48509019  0.22806549  1  -0.153059  0.000698  3.933091  0.001  -0.155649  0.000902  3.948537  0.001  -0.082501  -0.152399  0.000133  3.922601  0.001
C  C65  1  0.57252165  0.98912596  0.77563206  1  -0.16223  0.000914  3.94413  0.002  -0.166268  0.000833  3.961813  0.002  -0.086258  -0.160251  0.00098  3.931943  0.002
C  C66  1  0.04031288  0.38255500  0.72591659  1  0.222673  -0.003485  3.974184  -0.002  0.231404  -0.003141  3.994676  -0.002  0.11504  0.216863  -0.003199  3.960894  -0.002
C  C67  1  0.46056634  0.87730495  0.27006900  1  0.226814  -0.000735  4.015688  0.0  0.234653  -0.001012  4.036854  -0.001  0.109833  0.221058  -0.000508  4.001602  0.0
C  C68  1  0.95968339  0.61744329  0.27408436  1  0.222716  -0.003484  3.974246  -0.002  0.231449  -0.003141  3.994723  -0.002  0.115063  0.216911  -0.003199  3.960954  -0.002
C  C69  1  0.53942984  0.12269122  0.72993355  1  0.226864  -0.000736  4.015549  0.0  0.234706  -0.001013  4.036715  -0.001  0.109801  0.221109  -0.000509  4.001461  0.0
C  C70  1  0.04808629  0.88043309  0.76729504  1  -0.183744  3.3e-05  3.835836  0.0  -0.177122  2.4e-05  3.838145  0.0  -0.14329  -0.186346  6.7e-05  3.832331  0.0
C  C71  1  0.44853348  0.37731596  0.23334702  1  -0.187536  4.4e-05  3.842926  0.0  -0.180856  1.9e-05  3.845661  0.0  -0.146562  -0.190083  7e-05  3.838932  0.0
C  C72  1  0.95191418  0.11956429  0.23270453  1  -0.183796  3.2e-05  3.835941  0.0  -0.177178  2.4e-05  3.838243  0.0  -0.143369  -0.186394  6.6e-05  3.832432  0.0
C  C73  1  0.55146295  0.62268647  0.76665466  1  -0.187584  4.4e-05  3.842868  0.0  -0.180892  1.9e-05  3.845582  0.0  -0.146565  -0.190134  7e-05  3.838883  0.0
C  C74  1  0.81780519  0.24508714  0.48181972  1  0.567893  -0.003042  4.143973  0.001  0.60723  -0.000616  4.132585  0.002  0.217886  0.539109  -0.005248  4.152247  -0.001
C  C75  1  0.68224452  0.74162539  0.51888308  1  0.566474  0.001912  4.180806  0.004  0.600627  0.001531  4.173555  0.004  0.209945  0.54236  0.002598  4.184753  0.005
C  C76  1  0.18218945  0.75490490  0.51817967  1  0.568156  -0.003044  4.143688  0.001  0.607496  -0.000617  4.132296  0.002  0.218033  0.539371  -0.005252  4.151961  -0.001
C  C77  1  0.31775054  0.25837808  0.48111774  1  0.56649  0.001913  4.180904  0.004  0.600631  0.001531  4.173673  0.004  0.210035  0.542378  0.002599  4.184852  0.005
N  N78  1  0.97716976  0.37109370  0.62133601  1  -0.305773  -0.005316  3.571034  -0.002  -0.330105  -0.004077  3.585466  -0.001  -0.335412  -0.291269  -0.00618  3.561455  -0.004
N  N79  1  0.52869219  0.86603459  0.37352570  1  -0.37283  0.024139  3.550356  0.041  -0.395561  0.01972  3.564347  0.034  -0.332078  -0.355942  0.028237  3.540651  0.047
N  N80  1  0.02282802  0.62890674  0.37866340  1  -0.305774  -0.005316  3.571028  -0.002  -0.330111  -0.004076  3.585466  -0.001  -0.335379  -0.291271  -0.00618  3.561451  -0.004
N  N81  1  0.47129881  0.13397295  0.62647489  1  -0.372831  0.024136  3.550787  0.041  -0.395567  0.019716  3.564783  0.034  -0.332054  -0.355943  0.028235  3.541079  0.047
O  O82  1  0.08085281  0.01714427  0.81051175  1  -0.160095  -0.002719  2.608133  -0.002  -0.180163  -0.001849  2.611716  -0.001  -0.169811  -0.147401  -0.003388  2.605671  -0.003
O  O83  1  0.42074678  0.51568458  0.18993680  1  -0.161926  -0.000862  2.610318  -0.001  -0.182698  -0.000625  2.615028  0.0  -0.171301  -0.148568  -0.001557  2.607281  -0.001
O  O84  1  0.91914903  0.98285209  0.18948789  1  -0.160001  -0.002719  2.608217  -0.002  -0.180062  -0.001849  2.611789  -0.001  -0.169753  -0.147307  -0.003389  2.605754  -0.003
O  O85  1  0.57925235  0.48431483  0.81006348  1  -0.161897  -0.000861  2.610444  -0.001  -0.18267  -0.000625  2.615152  0.0  -0.171293  -0.148539  -0.001556  2.607408  -0.001
O  O86  1  0.82587512  0.36512620  0.43247924  1  -0.507152  -0.004046  2.41843  -0.001  -0.546718  -0.005219  2.409681  -0.003  -0.288307  -0.480583  -0.000864  2.424372  0.003
O  O87  1  0.67879654  0.85550283  0.56891117  1  -0.582297  0.034959  2.359831  0.059  -0.617949  0.026549  2.350894  0.046  -0.310751  -0.55302  0.042984  2.364077  0.072
O  O88  1  0.17412414  0.63487633  0.56752099  1  -0.507216  -0.004042  2.418637  -0.001  -0.546779  -0.005215  2.40989  -0.003  -0.288365  -0.480656  -0.000861  2.424588  0.003
O  O89  1  0.32120115  0.14449550  0.43108906  1  -0.582349  0.034964  2.359766  0.059  -0.618005  0.026552  2.350842  0.046  -0.310832  -0.553058  0.04299  2.36399  0.072
O  O90  1  0.72470443  0.13907744  0.44597947  1  -0.554146  0.017227  2.339657  0.027  -0.58577  0.013629  2.328145  0.021  -0.295904  -0.527443  0.02141  2.345814  0.033
O  O91  1  0.76704913  0.63651706  0.55413647  1  -0.551694  0.015558  2.283563  0.024  -0.578457  0.011371  2.273722  0.018  -0.297691  -0.53164  0.020281  2.289362  0.031
O  O92  1  0.27530344  0.86092943  0.55402187  1  -0.554341  0.017234  2.339189  0.027  -0.585974  0.013633  2.327675  0.021  -0.296023  -0.52763  0.021422  2.345345  0.033
O  O93  1  0.23294991  0.36348021  0.44586619  1  -0.551653  0.015559  2.283784  0.024  -0.578405  0.011372  2.273937  0.018  -0.297681  -0.531602  0.020281  2.289587  0.031
