# generated using pymatgen
data_CuH12C16NO4
_symmetry_space_group_name_H-M   'P 1'
_cell_length_a   9.69603412
_cell_length_b   10.15089282
_cell_length_c   18.84601497
_cell_angle_alpha   96.50761373
_cell_angle_beta   90.04341966
_cell_angle_gamma   118.52919943
_symmetry_Int_Tables_number   1
_chemical_formula_structural   CuH12C16NO4
_chemical_formula_sum   'Cu4 H48 C64 N4 O16'
_cell_volume   1615.95265814
_cell_formula_units_Z   4
loop_
 _symmetry_equiv_pos_site_id
 _symmetry_equiv_pos_as_xyz
  1  'x, y, z'
loop_
 _atom_site_type_symbol
 _atom_site_label
 _atom_site_symmetry_multiplicity
 _atom_site_fract_x
 _atom_site_fract_y
 _atom_site_fract_z
 _atom_site_occupancy
 _atom_site_pbe_bader_charge
 _atom_site_pbe_bader_spin_density
 _atom_site_pbe_cm5_charge
 _atom_site_pbe_ddec_charge
 _atom_site_pbe_ddec_spin_density
 _atom_site_pbe_ddec_sum_bond_order
 _atom_site_pbe_magmom
Cu  Cu0  1  0.64293933  0.00020394  0.74984745  1  1.064263  -0.546162  0.687618  0.756062  -0.701884  2.41752  -0.543
Cu  Cu1  1  0.35705668  0.99978613  0.25015280  1  1.064034  -0.546173  0.687688  0.756181  -0.701908  2.417761  -0.543
Cu  Cu2  1  0.90716216  0.00037153  0.74998473  1  1.06838  0.546661  0.687626  0.762125  0.702172  2.409337  0.544
Cu  Cu3  1  0.09284073  0.99963438  0.25001438  1  1.068087  0.546692  0.687617  0.762119  0.702201  2.409074  0.544
H  H4  1  0.35342795  0.59290671  0.83931420  1  0.097412  -0.000344  0.101244  0.099878  -0.000308  1.033689  0.0
H  H5  1  0.75987607  0.40695650  0.66080699  1  0.096015  -0.00034  0.101237  0.099727  -0.000308  1.03396  0.0
H  H6  1  0.64658977  0.40710819  0.16070033  1  0.097301  -0.000345  0.101278  0.099931  -0.000309  1.033602  0.0
H  H7  1  0.24011819  0.59304042  0.33917459  1  0.095929  -0.00034  0.10116  0.099554  -0.000309  1.033953  0.0
H  H8  1  0.23232835  0.34587030  0.88978464  1  0.112544  0.000214  0.099536  0.099984  0.000114  1.023117  0.0
H  H9  1  0.88466549  0.65392225  0.61022888  1  0.090422  0.000217  0.09937  0.098982  0.000113  1.024047  0.0
H  H10  1  0.76769377  0.65413897  0.11022582  1  0.112089  0.000215  0.099542  0.100065  0.000114  1.023042  0.0
H  H11  1  0.11536266  0.34609497  0.38977200  1  0.090197  0.000217  0.099356  0.098972  0.000113  1.023886  0.0
H  H12  1  0.37969690  0.20211205  0.89119497  1  0.05223  -0.0  0.098876  0.092145  -1e-06  1.007011  0.0
H  H13  1  0.17562963  0.79824727  0.60843684  1  0.048626  -0.0  0.098808  0.092532  -0.0  1.007248  0.0
H  H14  1  0.62033481  0.79790405  0.10880000  1  0.052082  -1e-06  0.098838  0.092176  -1e-06  1.006843  0.0
H  H15  1  0.82439621  0.20175294  0.39157678  1  0.048454  -0.0  0.098784  0.092585  -0.0  1.006983  0.0
H  H16  1  0.63631218  0.29262968  0.83494009  1  0.091218  -0.000193  0.100154  0.108806  -0.000103  1.039277  0.0
H  H17  1  0.34294982  0.70856998  0.66448070  1  0.076608  -0.000198  0.100031  0.108365  -0.000103  1.038763  0.0
H  H18  1  0.36370773  0.70738757  0.16504911  1  0.090874  -0.000193  0.10007  0.1087  -0.000103  1.039362  0.0
H  H19  1  0.65705391  0.29139633  0.33552286  1  0.076569  -0.000198  0.100074  0.108361  -0.000103  1.038778  0.0
H  H20  1  0.75323006  0.53785458  0.78394606  1  0.078034  0.00032  0.101759  0.102196  0.000283  1.030908  0.0
H  H21  1  0.21580174  0.46346413  0.71553265  1  0.090036  0.000321  0.101519  0.102214  0.000283  1.030857  0.0
H  H22  1  0.24677467  0.46216944  0.21604940  1  0.077753  0.00032  0.101703  0.10207  0.000283  1.030939  0.0
H  H23  1  0.78416614  0.53648416  0.28444909  1  0.090442  0.000321  0.101537  0.102268  0.000283  1.030786  0.0
H  H24  1  0.43746848  0.72993291  0.54471857  1  0.086673  -0.000316  0.104301  0.107813  -0.000262  1.016023  0.0
H  H25  1  0.70767581  0.27111789  0.95496436  1  0.090579  -0.000309  0.104313  0.107797  -0.000261  1.015643  0.0
H  H26  1  0.56253009  0.27006849  0.45527601  1  0.087953  -0.000316  0.104278  0.107829  -0.000262  1.015971  0.0
H  H27  1  0.29231257  0.72889817  0.04504387  1  0.090564  -0.000309  0.104395  0.107985  -0.000261  1.015685  0.0
H  H28  1  0.37454347  0.57729911  0.42479887  1  0.017703  0.000204  0.100547  0.098147  0.000116  1.028002  0.0
H  H29  1  0.79730715  0.42320906  0.07501223  1  0.076903  0.000197  0.100903  0.09867  0.000116  1.027394  0.0
H  H30  1  0.62545305  0.42270229  0.57519413  1  0.017475  0.000204  0.100534  0.098095  0.000116  1.028043  0.0
H  H31  1  0.20268556  0.57681153  0.92499362  1  0.077415  0.000197  0.100872  0.098551  0.000116  1.027353  0.0
H  H32  1  0.58808695  0.56457654  0.35604378  1  0.048674  6e-06  0.101493  0.098597  -1e-06  1.0039  0.0
H  H33  1  0.02309453  0.43519351  0.14400866  1  0.046702  6e-06  0.101489  0.098666  -1e-06  1.004112  0.0
H  H34  1  0.41190707  0.43540335  0.64395743  1  0.048833  6e-06  0.101527  0.098679  -1e-06  1.003754  0.0
H  H35  1  0.97688886  0.56481462  0.85600226  1  0.046881  6e-06  0.101544  0.098697  -1e-06  1.004172  0.0
H  H36  1  0.86490181  0.70509283  0.40790069  1  0.068062  -0.000193  0.100097  0.10273  -0.000103  1.023238  0.0
H  H37  1  0.15913204  0.29448331  0.09222957  1  0.060954  -0.000195  0.09993  0.103024  -0.000103  1.022863  0.0
H  H38  1  0.13509317  0.29489725  0.59209797  1  0.068026  -0.000193  0.100106  0.102847  -0.000102  1.023241  0.0
H  H39  1  0.84085800  0.70552370  0.90777809  1  0.060867  -0.000195  0.099928  0.103072  -0.000103  1.022977  0.0
H  H40  1  0.92589139  0.85519473  0.52903024  1  0.099947  0.000359  0.105003  0.109873  0.000295  1.004226  0.0
H  H41  1  0.07009990  0.14491035  0.97097765  1  0.084256  0.000364  0.1048  0.109736  0.000295  1.004603  0.0
H  H42  1  0.07410086  0.14479195  0.47096821  1  0.100137  0.000358  0.104982  0.109888  0.000295  1.004181  0.0
H  H43  1  0.92989884  0.85511817  0.02902445  1  0.084176  0.000363  0.10478  0.109708  0.000295  1.004518  0.0
H  H44  1  0.34313624  0.87451170  0.83530456  1  0.135173  4.5e-05  0.125562  0.104046  3.8e-05  0.987061  0.0
H  H45  1  0.46796024  0.12557794  0.66451597  1  0.129861  4.5e-05  0.125798  0.104061  3.8e-05  0.98659  0.0
H  H46  1  0.65686638  0.12549983  0.16470445  1  0.135338  4.5e-05  0.125592  0.104061  3.7e-05  0.987149  0.0
H  H47  1  0.53203417  0.87441098  0.33548898  1  0.129915  4.5e-05  0.12581  0.104075  3.8e-05  0.986698  0.0
H  H48  1  0.08333209  0.87859351  0.83688388  1  0.104505  -5.7e-05  0.12087  0.095965  -5.5e-05  1.02088  0.0
H  H49  1  0.20420427  0.12173342  0.66338666  1  0.126689  -5.6e-05  0.120832  0.096264  -5.5e-05  1.021541  0.0
H  H50  1  0.91667289  0.12142481  0.16312714  1  0.103915  -5.7e-05  0.12092  0.096001  -5.5e-05  1.020801  0.0
H  H51  1  0.79578223  0.87823971  0.33660723  1  0.126611  -5.6e-05  0.120854  0.096213  -5.5e-05  1.02154  0.0
C  C52  1  0.63780623  0.73355380  0.78583624  1  1.514815  0.000186  0.211575  0.571444  0.000174  4.164585  0.0
C  C53  1  0.90487489  0.26702045  0.71394493  1  1.517461  0.000104  0.211765  0.571242  0.000127  4.165375  0.0
C  C54  1  0.36219593  0.26645889  0.21416647  1  1.514498  0.000183  0.21155  0.571364  0.000171  4.164261  0.0
C  C55  1  0.09511379  0.73295496  0.28604115  1  1.517536  0.000102  0.211868  0.571513  0.000125  4.165376  0.0
C  C56  1  0.56133463  0.58069336  0.81035502  1  -0.00523  0.000117  -0.022822  -0.043803  6.6e-05  3.985462  0.0
C  C57  1  0.98062686  0.41987525  0.68940815  1  -0.047196  2.2e-05  -0.02243  -0.041393  3.1e-05  3.984604  0.0
C  C58  1  0.43868021  0.41932613  0.18964387  1  -0.002393  0.000122  -0.022831  -0.043685  6.9e-05  3.985052  0.0
C  C59  1  0.01936078  0.58010016  0.31058005  1  -0.047549  2.1e-05  -0.022382  -0.041607  3.1e-05  3.984765  0.0
C  C60  1  0.41353479  0.52569829  0.83917206  1  -0.129796  0.001024  -0.086985  -0.098064  0.000605  3.978241  0.001
C  C61  1  0.88715556  0.47444862  0.66077789  1  -0.053417  0.000995  -0.087132  -0.099419  0.0006  3.978984  0.001
C  C62  1  0.58649957  0.47433134  0.16083701  1  -0.131968  0.001025  -0.087084  -0.098183  0.000605  3.978535  0.001
C  C63  1  0.11284326  0.52553471  0.33920709  1  -0.052971  0.000995  -0.08703  -0.099035  0.0006  3.978658  0.001
C  C64  1  0.34753273  0.38907008  0.86758108  1  -0.062964  0.000635  -0.091639  -0.080758  0.000472  3.997853  0.001
C  C65  1  0.95707929  0.61097886  0.63231634  1  -0.066222  0.000641  -0.091298  -0.078315  0.000468  3.998335  0.001
C  C66  1  0.65248696  0.61094259  0.13242641  1  -0.062008  0.000634  -0.091759  -0.081093  0.000472  3.99826  0.001
C  C67  1  0.04292481  0.38901914  0.36768228  1  -0.066504  0.000641  -0.091306  -0.078521  0.000468  3.998124  0.001
C  C68  1  0.42965117  0.30730010  0.86751699  1  -0.028143  -8e-06  -0.0887  -0.070718  -5e-06  3.995349  0.0
C  C69  1  0.12092314  0.69311531  0.63216566  1  -0.063501  -3e-06  -0.088403  -0.072064  -2e-06  3.996346  0.0
C  C70  1  0.57036291  0.69271374  0.13247943  1  -0.028648  -9e-06  -0.088525  -0.070483  -5e-06  3.994919  0.0
C  C71  1  0.87909040  0.30687477  0.36783459  1  -0.0631  -3e-06  -0.08846  -0.072023  -1e-06  3.996088  0.0
C  C72  1  0.57454059  0.35871546  0.83662924  1  -0.057674  -0.000694  -0.094775  -0.093252  -0.000502  3.997377  -0.001
C  C73  1  0.21508076  0.64217008  0.66288353  1  -0.000306  -0.000686  -0.094759  -0.09241  -0.000505  3.996553  -0.001
C  C74  1  0.42548045  0.64130402  0.16336913  1  -0.057327  -0.000695  -0.094771  -0.09335  -0.000502  3.997259  -0.001
C  C75  1  0.78492301  0.35780870  0.33711178  1  0.000431  -0.000686  -0.094793  -0.092526  -0.000505  3.996631  -0.001
C  C76  1  0.64002838  0.49505408  0.80788542  1  -0.026907  -0.001128  -0.085417  -0.095293  -0.000704  3.97266  -0.001
C  C77  1  0.14491313  0.50589206  0.69168167  1  -0.054166  -0.001108  -0.085549  -0.096461  -0.000705  3.973871  -0.001
C  C78  1  0.35998956  0.50496540  0.19211453  1  -0.027045  -0.001127  -0.085221  -0.095005  -0.000704  3.972276  -0.001
C  C79  1  0.85507477  0.49407768  0.30830830  1  -0.05523  -0.001108  -0.085497  -0.096301  -0.000705  3.973782  -0.001
C  C80  1  0.72133282  0.88355224  0.61843500  1  1.53492  0.000376  0.212531  0.574731  0.000355  4.16365  0.0
C  C81  1  0.83778047  0.11711001  0.88138026  1  1.53226  0.000412  0.212178  0.574913  0.00036  4.163796  0.0
C  C82  1  0.27867077  0.11643442  0.38156982  1  1.535331  0.000376  0.212533  0.57477  0.000353  4.16365  0.0
C  C83  1  0.16220752  0.88289703  0.11861998  1  1.532053  0.000409  0.21205  0.574766  0.00036  4.164154  0.0
C  C84  1  0.68535180  0.80126636  0.54408554  1  0.014407  -8.4e-05  -0.020497  -0.03859  -3.3e-05  3.976645  0.0
C  C85  1  0.88386010  0.19925279  0.95575784  1  -0.033205  -9.8e-05  -0.019707  -0.038052  -4.5e-05  3.976668  0.0
C  C86  1  0.31465313  0.19872711  0.45591334  1  0.014291  -7.9e-05  -0.020402  -0.038446  -2.9e-05  3.976849  0.0
C  C87  1  0.11613341  0.80075085  0.04424484  1  -0.032445  -9.6e-05  -0.019759  -0.038131  -4.4e-05  3.976997  0.0
C  C88  1  0.53029612  0.72460092  0.51415030  1  -0.096239  0.001081  -0.082546  -0.087369  0.000641  3.961578  0.001
C  C89  1  0.80561887  0.27604527  0.98562510  1  -0.027634  0.001046  -0.082953  -0.087392  0.000644  3.961004  0.001
C  C90  1  0.46970734  0.27540611  0.48585047  1  -0.097605  0.001081  -0.082481  -0.087379  0.000641  3.961814  0.001
C  C91  1  0.19437112  0.72397194  0.01437683  1  -0.028061  0.001045  -0.082908  -0.087609  0.000643  3.961401  0.001
C  C92  1  0.49590393  0.63970886  0.44677934  1  -0.023256  0.000635  -0.091749  -0.089451  0.000462  4.013066  0.001
C  C93  1  0.85606279  0.36060570  0.05307685  1  -0.105559  0.000644  -0.091863  -0.090268  0.000461  4.014611  0.001
C  C94  1  0.50407924  0.36028235  0.55321832  1  -0.022886  0.000635  -0.091814  -0.089444  0.000462  4.013689  0.001
C  C95  1  0.14391782  0.63940926  0.94692282  1  -0.105637  0.000645  -0.091947  -0.090122  0.000461  4.014741  0.001
C  C96  1  0.61582744  0.63197332  0.40857899  1  -0.051852  2.6e-05  -0.084505  -0.073413  2.2e-05  3.996368  0.0
C  C97  1  0.98348162  0.36801918  0.09141541  1  -0.023888  2.5e-05  -0.084845  -0.073359  2.1e-05  3.997641  0.0
C  C98  1  0.38416509  0.36800771  0.59141910  1  -0.051926  2.5e-05  -0.084494  -0.073379  2.1e-05  3.996642  0.0
C  C99  1  0.01650544  0.63199011  0.90858603  1  -0.024186  2.5e-05  -0.084867  -0.073317  2.2e-05  3.997455  0.0
C  C100  1  0.77112887  0.71045774  0.43773061  1  -0.015026  -0.000596  -0.092865  -0.090296  -0.000435  4.01076  0.0
C  C101  1  0.06013900  0.28943918  0.06230905  1  -0.064894  -0.000607  -0.092634  -0.091085  -0.000436  4.012449  -0.001
C  C102  1  0.22886478  0.28952555  0.56226869  1  -0.015264  -0.000596  -0.092905  -0.090601  -0.000434  4.010761  0.0
C  C103  1  0.93985184  0.71058593  0.93769762  1  -0.064503  -0.000607  -0.092559  -0.091258  -0.000436  4.012026  -0.001
C  C104  1  0.80580541  0.79453829  0.50528648  1  -0.029959  -0.000896  -0.084326  -0.097443  -0.000549  3.973174  -0.001
C  C105  1  0.01076194  0.20562245  0.99468755  1  0.015083  -0.000879  -0.084621  -0.097467  -0.000547  3.975256  -0.001
C  C106  1  0.19419263  0.20543936  0.49471088  1  -0.029904  -0.000896  -0.084318  -0.097438  -0.000549  3.973164  -0.001
C  C107  1  0.98922711  0.79439701  0.00531929  1  0.014359  -0.00088  -0.084638  -0.097271  -0.000548  3.974934  -0.001
C  C108  1  0.31213910  0.93119282  0.79738612  1  0.492365  0.00098  0.062453  0.053156  0.000657  3.913973  0.001
C  C109  1  0.38068145  0.06898177  0.70256168  1  0.503844  0.000978  0.062637  0.05439  0.000655  3.913152  0.001
C  C110  1  0.68786708  0.06881760  0.20261805  1  0.491776  0.00098  0.062336  0.053074  0.000657  3.913987  0.001
C  C111  1  0.61931183  0.93100491  0.29743889  1  0.50365  0.000978  0.062629  0.054401  0.000655  3.913178  0.001
C  C112  1  0.16908180  0.93244447  0.79787157  1  0.541941  -0.001041  0.061553  0.05634  -0.000701  3.908342  -0.001
C  C113  1  0.23645083  0.06790027  0.70231462  1  0.51203  -0.001042  0.060862  0.054448  -0.000701  3.911133  -0.001
C  C114  1  0.83092285  0.06755462  0.20213561  1  0.542395  -0.00104  0.061607  0.056357  -0.0007  3.908529  -0.001
C  C115  1  0.76353906  0.93207962  0.29768553  1  0.512251  -0.001041  0.061029  0.054716  -0.000701  3.911111  -0.001
N  N116  1  0.41786305  0.00002912  0.74990034  1  -1.208165  0.000251  -0.314157  -0.19956  -0.000169  3.5126  -0.001
N  N117  1  0.58213326  0.99996773  0.25010086  1  -1.207519  0.000255  -0.314129  -0.19968  -0.000166  3.512387  -0.001
N  N118  1  0.13128344  0.00018235  0.75014260  1  -1.209382  -0.000842  -0.312505  -0.191304  -0.000225  3.498763  0.001
N  N119  1  0.86869812  0.99980770  0.24986243  1  -1.2094  -0.000842  -0.312735  -0.191438  -0.000225  3.498981  0.001
O  O120  1  0.55730531  0.80329055  0.78747492  1  -1.087374  -0.087486  -0.314793  -0.518162  -0.056962  2.376555  -0.079
O  O121  1  0.75458559  0.19696413  0.71224296  1  -1.090042  -0.08763  -0.315055  -0.518558  -0.057025  2.378938  -0.079
O  O122  1  0.44268649  0.19670964  0.21254293  1  -1.087325  -0.087467  -0.314795  -0.518161  -0.056951  2.376572  -0.079
O  O123  1  0.24539155  0.80300680  0.28772851  1  -1.090367  -0.08762  -0.315197  -0.518662  -0.057024  2.379135  -0.079
O  O124  1  0.77842871  0.78369509  0.76666073  1  -1.113605  0.083892  -0.312487  -0.519682  0.054462  2.35806  0.076
O  O125  1  0.99561857  0.21718516  0.73319202  1  -1.109045  0.083792  -0.312396  -0.519615  0.054441  2.355788  0.076
O  O126  1  0.22156814  0.21632555  0.23332921  1  -1.113222  0.083909  -0.312484  -0.519722  0.054474  2.358013  0.076
O  O127  1  0.00436374  0.78279813  0.26680728  1  -1.108422  0.083804  -0.312427  -0.519764  0.05445  2.355675  0.076
O  O128  1  0.60852394  0.89116627  0.65008511  1  -1.114524  -0.082788  -0.312404  -0.522519  -0.05378  2.368233  -0.075
O  O129  1  0.71735340  0.10939025  0.84959738  1  -1.109953  -0.08283  -0.311729  -0.522176  -0.053786  2.368989  -0.075
O  O130  1  0.39145334  0.10876158  0.34992031  1  -1.114561  -0.082788  -0.312452  -0.52261  -0.053775  2.368187  -0.075
O  O131  1  0.28265355  0.89062582  0.15040608  1  -1.109719  -0.082885  -0.311705  -0.522151  -0.05382  2.368682  -0.075
O  O132  1  0.86162072  0.93648336  0.64514627  1  -1.105341  0.086071  -0.315105  -0.520327  0.05592  2.362957  0.077
O  O133  1  0.92519426  0.06422886  0.85479831  1  -1.10711  0.085921  -0.315612  -0.521033  0.055865  2.362223  0.077
O  O134  1  0.13840374  0.06355535  0.35485222  1  -1.105653  0.086072  -0.315176  -0.520341  0.055921  2.36297  0.077
O  O135  1  0.07481446  0.93578046  0.14519677  1  -1.107162  0.085887  -0.315524  -0.5209  0.055842  2.362889  0.077
