# generated using pymatgen
data_Zn3H28C30(NO7)2
_symmetry_space_group_name_H-M   'P 1'
_cell_length_a   8.08259477
_cell_length_b   9.87603294
_cell_length_c   11.46162376
_cell_angle_alpha   106.80855556
_cell_angle_beta   90.63219950
_cell_angle_gamma   113.91666075
_symmetry_Int_Tables_number   1
_chemical_formula_structural   Zn3H28C30(NO7)2
_chemical_formula_sum   'Zn3 H28 C30 N2 O14'
_cell_volume   791.97487911
_cell_formula_units_Z   1
loop_
 _symmetry_equiv_pos_site_id
 _symmetry_equiv_pos_as_xyz
  1  'x, y, z'
loop_
 _atom_site_type_symbol
 _atom_site_label
 _atom_site_symmetry_multiplicity
 _atom_site_fract_x
 _atom_site_fract_y
 _atom_site_fract_z
 _atom_site_occupancy
 _atom_site_hle17_bader_spin_density
 _atom_site_hle17_ddec_charge
 _atom_site_hle17_ddec_spin_density
 _atom_site_hle17_ddec_sum_bond_order
 _atom_site_hle17_magmom
 _atom_site_hse06_10hf_bader_spin_density
 _atom_site_hse06_10hf_ddec_charge
 _atom_site_hse06_10hf_ddec_spin_density
 _atom_site_hse06_10hf_ddec_sum_bond_order
 _atom_site_hse06_10hf_magmom
 _atom_site_hse06_bader_spin_density
 _atom_site_hse06_ddec_charge
 _atom_site_hse06_ddec_spin_density
 _atom_site_hse06_ddec_sum_bond_order
 _atom_site_hse06_magmom
 _atom_site_pbe_bader_spin_density
 _atom_site_pbe_cm5_charge
 _atom_site_pbe_ddec_charge
 _atom_site_pbe_ddec_spin_density
 _atom_site_pbe_ddec_sum_bond_order
 _atom_site_pbe_magmom
Zn  Zn0  1  0.49999812  0.49999969  0.99999947  1  0  1.198502  0  1.704937  0  0  1.045104  0  2.146124  0  0  1.092858  0  2.085078  0  0  0.676271  1.011443  0  2.187828  0
Zn  Zn1  1  0.13754481  0.58986905  0.12564905  1  0  1.112907  0  1.758632  0  0  0.941748  0  2.202876  0  0  0.993804  0  2.142912  0  0  0.662102  0.905069  0  2.243892  0
Zn  Zn2  1  0.86245542  0.41013227  0.87435166  1  0  1.112903  0  1.758662  0  0  0.941738  0  2.202915  0  0  0.993796  0  2.142952  0  0  0.662092  0.905059  0  2.243929  0
H  H3  1  0.65324790  0.43318657  0.31919755  1  0  0.104191  0  0.96049  0  0  0.109794  0  1.028411  0  0  0.113087  0  1.026975  0  0  0.102458  0.10756  0  1.02934  0
H  H4  1  0.34675306  0.56681125  0.68080141  1  0  0.10419  0  0.960493  0  0  0.109774  0  1.028427  0  0  0.113061  0  1.026989  0  0  0.102458  0.107539  0  1.029355  0
H  H5  1  0.25204949  0.58279354  0.47717092  1  0  0.107257  0  0.935418  0  0  0.117859  0  0.990389  0  0  0.122137  0  0.987522  0  0  0.105657  0.11479  0  0.992534  0
H  H6  1  0.74795148  0.41720429  0.52282803  1  0  0.107297  0  0.935455  0  0  0.117894  0  0.990417  0  0  0.122175  0  0.987546  0  0  0.105678  0.114825  0  0.992562  0
H  H7  1  0.30549091  0.10161838  0.43162814  1  0  0.099899  0  0.947829  0  0  0.108745  0  1.009508  0  0  0.111963  0  1.008167  0  0  0.10417  0.106438  0  1.010471  0
H  H8  1  0.69450801  0.89838527  0.56837402  1  0  0.099903  0  0.947767  0  0  0.108741  0  1.00946  0  0  0.11196  0  1.008117  0  0  0.104144  0.10643  0  1.010426  0
H  H9  1  0.77405797  0.72707304  0.39274363  1  0  0.099065  0  0.994585  0  0  0.105755  0  1.061425  0  0  0.108383  0  1.061088  0  0  0.100965  0.10375  0  1.0619  0
H  H10  1  0.22594335  0.27293296  0.60725740  1  0  0.099109  0  0.994619  0  0  0.105797  0  1.061453  0  0  0.10842  0  1.061119  0  0  0.100973  0.103792  0  1.061924  0
H  H11  1  0.63203494  0.81078271  0.93261707  1  0  0.130127  0  0.945943  0  0  0.142078  0  1.002355  0  0  0.145387  0  1.00171  0  0  0.111622  0.139629  0  1.003211  0
H  H12  1  0.36796354  0.18921510  0.06738275  1  0  0.130134  0  0.946002  0  0  0.142078  0  1.002409  0  0  0.145389  0  1.001763  0  0  0.111636  0.139629  0  1.003265  0
H  H13  1  0.59919940  0.96414982  0.79939982  1  0  0.111075  0  0.976877  0  0  0.119194  0  1.040493  0  0  0.12276  0  1.036886  0  0  0.1233  0.116555  0  1.043009  0
H  H14  1  0.40080091  0.03584917  0.20060030  1  0  0.111072  0  0.976878  0  0  0.119207  0  1.040483  0  0  0.122774  0  1.03687  0  0  0.123313  0.116566  0  1.043002  0
H  H15  1  0.02303346  0.96011847  0.85514056  1  0  0.122606  0  0.93622  0  0  0.14562  0  0.992734  0  0  0.147489  0  0.991912  0  0  0.099524  0.143924  0  0.993853  0
H  H16  1  0.97696503  0.03987935  0.14485838  1  0  0.122595  0  0.936242  0  0  0.145618  0  0.992748  0  0  0.147485  0  0.991928  0  0  0.099513  0.143922  0  0.993866  0
H  H17  1  0.89097354  0.77454684  0.87360120  1  0  0.126449  0  0.965254  0  0  0.147308  0  1.023007  0  0  0.149251  0  1.022287  0  0  0.100338  0.145819  0  1.023668  0
H  H18  1  0.10902677  0.22545215  0.12639892  1  0  0.12644  0  0.965277  0  0  0.147279  0  1.023059  0  0  0.149218  0  1.022341  0  0  0.100324  0.14579  0  1.023718  0
H  H19  1  0.94777343  0.78620948  0.72721418  1  0  0.123801  0  0.934138  0  0  0.144294  0  0.994706  0  0  0.145545  0  0.995321  0  0  0.100783  0.14351  0  0.994096  0
H  H20  1  0.05222506  0.21378834  0.27278476  1  0  0.123813  0  0.934132  0  0  0.144298  0  0.994708  0  0  0.14555  0  0.995322  0  0  0.100781  0.143512  0  0.994102  0
H  H21  1  0.45008008  0.04156456  0.70511438  1  0  0.134671  0  0.947773  0  0  0.153213  0  1.006527  0  0  0.155735  0  1.004477  0  0  0.115992  0.151192  0  1.008293  0
H  H22  1  0.54992082  0.95843561  0.29488517  1  0  0.134684  0  0.947778  0  0  0.15322  0  1.006541  0  0  0.155741  0  1.00449  0  0  0.115989  0.151199  0  1.008306  0
H  H23  1  0.28108531  0.08609153  0.78536521  1  0  0.120138  0  0.949527  0  0  0.13795  0  1.013363  0  0  0.139316  0  1.013067  0  0  0.107324  0.137135  0  1.013474  0
H  H24  1  0.71891624  0.91390746  0.21463492  1  0  0.120142  0  0.949515  0  0  0.137953  0  1.013357  0  0  0.139317  0  1.013061  0  0  0.107329  0.137138  0  1.013467  0
H  H25  1  0.21185589  0.91649955  0.65146790  1  0  0.102956  0  0.941669  0  0  0.121397  0  1.004533  0  0  0.121635  0  1.005989  0  0  0.105267  0.120925  0  1.003821  0
H  H26  1  0.78814500  0.08350061  0.34853165  1  0  0.102926  0  0.941691  0  0  0.121387  0  1.004535  0  0  0.121624  0  1.00599  0  0  0.105262  0.120916  0  1.003822  0
H  H27  1  0.14025591  0.30864990  0.97141132  1  0  0.411318  0  0.898219  0  0  0.378341  0  0.970236  0  0  0.389243  0  0.954415  0  0  0.287269  0.37049  0  0.981669  0
H  H28  1  0.85974127  0.69135025  0.02858820  1  0  0.411306  0  0.898269  0  0  0.378319  0  0.970262  0  0  0.389221  0  0.954442  0  0  0.287265  0.370471  0  0.98169  0
H  H29  1  0.20569712  0.32101597  0.84867314  1  0  0.422308  0  0.862883  0  0  0.393477  0  0.937733  0  0  0.40348  0  0.923978  0  0  0.296898  0.386401  0  0.945411  0
H  H30  1  0.79430130  0.67898418  0.15132639  1  0  0.422348  0  0.862834  0  0  0.393515  0  0.937682  0  0  0.403519  0  0.923922  0  0  0.296911  0.38644  0  0.945359  0
C  C31  1  0.38923595  0.51746845  0.26515312  1  0  0.66691  0  3.885422  0  0  0.614817  0  4.177871  0  0  0.65011  0  4.169617  0  0  0.218445  0.590666  0  4.183033  0
C  C32  1  0.61076436  0.48253053  0.73484787  1  0  0.666983  0  3.885367  0  0  0.614869  0  4.177858  0  0  0.650162  0  4.169608  0  0  0.218449  0.590712  0  4.183019  0
C  C33  1  0.44610783  0.50750480  0.38644255  1  0  -0.064288  0  3.7478  0  0  -0.041561  0  3.979926  0  0  -0.048539  0  4.002613  0  0  -0.015906  -0.036611  0  3.964269  0
C  C34  1  0.55389496  0.49249420  0.61355672  1  0  -0.064383  0  3.747888  0  0  -0.041687  0  3.980059  0  0  -0.048669  0  4.002748  0  0  -0.015971  -0.036719  0  3.964377  0
C  C35  1  0.58587776  0.46054803  0.39862229  1  0  -0.078088  0  3.744211  0  0  -0.100565  0  3.996085  0  0  -0.10138  0  4.016157  0  0  -0.085881  -0.099667  0  3.981993  0
C  C36  1  0.41412503  0.53945096  0.60137785  1  0  -0.078051  0  3.744211  0  0  -0.100498  0  3.996132  0  0  -0.1013  0  4.016194  0  0  -0.08586  -0.099603  0  3.982031  0
C  C37  1  0.36060964  0.54691004  0.48846330  1  0  -0.074068  0  3.731259  0  0  -0.096423  0  3.977219  0  0  -0.097574  0  3.996851  0  0  -0.083627  -0.095647  0  3.963732  0
C  C38  1  0.63939191  0.45308896  0.51153595  1  0  -0.074078  0  3.731309  0  0  -0.096401  0  3.97725  0  0  -0.097553  0  3.996884  0  0  -0.083615  -0.09563  0  3.963757  0
C  C39  1  0.08931589  0.80040293  0.29690843  1  0  0.627168  0  3.915138  0  0  0.5785  0  4.202402  0  0  0.612521  0  4.195357  0  0  0.199452  0.555441  0  4.206513  0
C  C40  1  0.91068608  0.19960191  0.70309231  1  0  0.627285  0  3.91492  0  0  0.57862  0  4.202178  0  0  0.612643  0  4.195129  0  0  0.199457  0.555562  0  4.206293  0
C  C41  1  0.04356649  0.90394312  0.40159756  1  0  -0.060697  0  3.771047  0  0  -0.038522  0  4.002601  0  0  -0.045193  0  4.024784  0  0  -0.016562  -0.034097  0  3.987538  0
C  C42  1  0.95643301  0.09606174  0.59839968  1  0  -0.060742  0  3.771039  0  0  -0.038563  0  4.002581  0  0  -0.045235  0  4.024764  0  0  -0.016539  -0.03414  0  3.987519  0
C  C43  1  0.17195995  0.05807380  0.46183205  1  0  -0.0746  0  3.740886  0  0  -0.094953  0  3.986613  0  0  -0.096001  0  4.006952  0  0  -0.082152  -0.094053  0  3.972718  0
C  C44  1  0.82804021  0.94192988  0.53816751  1  0  -0.074599  0  3.740823  0  0  -0.094947  0  3.986541  0  0  -0.095996  0  4.006883  0  0  -0.082143  -0.094043  0  3.972645  0
C  C45  1  0.87179341  0.84683973  0.44034299  1  0  -0.078013  0  3.738255  0  0  -0.099971  0  3.984946  0  0  -0.100993  0  4.006037  0  0  -0.084908  -0.099202  0  3.970708  0
C  C46  1  0.12820980  0.15316512  0.55965602  1  0  -0.078045  0  3.738333  0  0  -0.100005  0  3.985038  0  0  -0.101023  0  4.006125  0  0  -0.084925  -0.099234  0  3.970803  0
C  C47  1  0.17706516  0.72981741  0.92844511  1  0  0.13499  0  3.847175  0  0  0.115662  0  4.11214  0  0  0.117424  0  4.132734  0  0  0.062722  0.113801  0  4.0983  0
C  C48  1  0.82293391  0.27018158  0.07155413  1  0  0.135034  0  3.847173  0  0  0.115684  0  4.112123  0  0  0.117447  0  4.132716  0  0  0.062733  0.113824  0  4.098283  0
C  C49  1  0.34744165  0.72472854  0.95723492  1  0  0.325219  0  3.858072  0  0  0.299847  0  4.129359  0  0  0.319075  0  4.140308  0  0  0.090978  0.287432  0  4.121441  0
C  C50  1  0.65255742  0.27527045  0.04276432  1  0  0.325222  0  3.858052  0  0  0.299852  0  4.129334  0  0  0.319077  0  4.140287  0  0  0.090966  0.287437  0  4.121416  0
C  C51  1  0.50109004  0.81120063  0.91098830  1  0  -0.226399  0  3.771425  0  0  -0.254032  0  4.051741  0  0  -0.264635  0  4.07024  0  0  -0.107249  -0.247883  0  4.039649  0
C  C52  1  0.49890969  0.18879720  0.08900978  1  0  -0.226391  0  3.77154  0  0  -0.254014  0  4.051857  0  0  -0.264615  0  4.070357  0  0  -0.10723  -0.247864  0  4.039765  0
C  C53  1  0.48510338  0.89524421  0.83809000  1  0  0.061774  0  3.688668  0  0  0.008453  0  3.963092  0  0  0.019482  0  3.976175  0  0  0.034402  0.001726  0  3.953692  0
C  C54  1  0.51489511  0.10475361  0.16190807  1  0  0.061753  0  3.688725  0  0  0.008406  0  3.963152  0  0  0.019434  0  3.976238  0  0  0.034344  0.00168  0  3.953753  0
C  C55  1  0.16849108  0.81992931  0.85640740  1  0  0.152171  0  3.635152  0  0  0.144405  0  3.889582  0  0  0.15164  0  3.909945  0  0  0.103836  0.13995  0  3.875599  0
C  C56  1  0.83150915  0.18007201  0.14359418  1  0  0.152101  0  3.635194  0  0  0.144355  0  3.889603  0  0  0.15159  0  3.909963  0  0  0.103793  0.1399  0  3.87562  0
C  C57  1  0.99870142  0.83642189  0.82659010  1  0  -0.343735  0  3.708723  0  0  -0.424444  0  3.944374  0  0  -0.426899  0  3.951198  0  0  -0.234602  -0.422305  0  3.93961  0
C  C58  1  0.00129766  0.16357710  0.17340914  1  0  -0.343712  0  3.708758  0  0  -0.424422  0  3.944416  0  0  -0.426874  0  3.951236  0  0  -0.234574  -0.42228  0  3.939653  0
C  C59  1  0.31543590  0.99129394  0.73307296  1  0  -0.185922  0  3.588647  0  0  -0.28501  0  3.831154  0  0  -0.283083  0  3.839859  0  0  -0.132408  -0.286328  0  3.82551  0
C  C60  1  0.68456441  0.00870505  0.26692629  1  0  -0.185943  0  3.588675  0  0  -0.285051  0  3.831182  0  0  -0.283123  0  3.839888  0  0  -0.132416  -0.286368  0  3.825538  0
N  N61  1  0.32335660  0.89878762  0.81129956  1  0  -0.027205  0  3.550387  0  0  0.070069  0  3.761719  0  0  0.055367  0  3.789169  0  0  -0.229892  0.079364  0  3.743052  0
N  N62  1  0.67664247  0.10121136  0.18870055  1  0  -0.02714  0  3.550358  0  0  0.07014  0  3.761667  0  0  0.055438  0  3.789119  0  0  -0.229844  0.079435  0  3.743001  0
O  O63  1  0.48663455  0.50012779  0.18067716  1  0  -0.653125  0  2.089365  0  0  -0.583  0  2.354102  0  0  -0.610953  0  2.341398  0  0  -0.313691  -0.563304  0  2.362505  0
O  O64  1  0.51336394  0.49987003  0.81932178  1  0  -0.653096  0  2.089372  0  0  -0.582962  0  2.354122  0  0  -0.610913  0  2.341416  0  0  -0.313664  -0.563267  0  2.362526  0
O  O65  1  0.24639106  0.54103560  0.25777136  1  0  -0.633231  0  2.09007  0  0  -0.566286  0  2.354994  0  0  -0.594956  0  2.341383  0  0  -0.316602  -0.546417  0  2.363826  0
O  O66  1  0.75360983  0.45896456  0.74222819  1  0  -0.633259  0  2.090009  0  0  -0.5663  0  2.35494  0  0  -0.594972  0  2.341329  0  0  -0.316592  -0.546434  0  2.363774  0
O  O67  1  0.24508907  0.84987684  0.26292551  1  0  -0.619305  0  1.982982  0  0  -0.564837  0  2.215486  0  0  -0.590755  0  2.20588  0  0  -0.310269  -0.54669  0  2.221524  0
O  O68  1  0.75491415  0.15012798  0.73707872  1  0  -0.619362  0  1.982962  0  0  -0.564905  0  2.215478  0  0  -0.590824  0  2.205866  0  0  -0.310285  -0.54676  0  2.221517  0
O  O69  1  0.96575442  0.65993300  0.24226592  1  0  -0.644117  0  2.001875  0  0  -0.572273  0  2.242879  0  0  -0.600229  0  2.230149  0  0  -0.320047  -0.552807  0  2.250905  0
O  O70  1  0.03424756  0.34007183  0.75773482  1  0  -0.644164  0  2.001804  0  0  -0.572309  0  2.2428  0  0  -0.600258  0  2.230055  0  0  -0.320039  -0.552836  0  2.250806  0
O  O71  1  0.35245874  0.64125568  0.02676793  1  0  -0.631696  0  2.189347  0  0  -0.54515  0  2.469221  0  0  -0.574778  0  2.455063  0  0  -0.323206  -0.524455  0  2.477983  0
O  O72  1  0.64754091  0.35874447  0.97323248  1  0  -0.631717  0  2.189355  0  0  -0.545185  0  2.469231  0  0  -0.574817  0  2.455082  0  0  -0.323212  -0.524487  0  2.477989  0
O  O73  1  0.03244114  0.64713314  0.97476594  1  0  -0.67482  0  2.233815  0  0  -0.58014  0  2.494534  0  0  -0.609591  0  2.4873  0  0  -0.339804  -0.559074  0  2.498843  0
O  O74  1  0.96755852  0.35286702  0.02523447  1  0  -0.674886  0  2.2339  0  0  -0.580138  0  2.494528  0  0  -0.609585  0  2.487294  0  0  -0.339799  -0.55907  0  2.498839  0
O  O75  1  0.24075045  0.30125939  0.92330974  1  0  -0.826904  0  1.903856  0  0  -0.773895  0  2.121541  0  0  -0.795701  0  2.088956  0  0  -0.574825  -0.75874  0  2.142456  0
O  O76  1  0.75924796  0.69874077  0.07668979  1  0  -0.82696  0  1.903896  0  0  -0.773923  0  2.121596  0  0  -0.795719  0  2.088982  0  0  -0.574843  -0.75877  0  2.142511  0
