# generated using pymatgen
data_CuH4C3N4
_symmetry_space_group_name_H-M   'P 1'
_cell_length_a   5.14666161
_cell_length_b   6.45962782
_cell_length_c   14.79161549
_cell_angle_alpha   90.00074997
_cell_angle_beta   90.00080581
_cell_angle_gamma   103.70107419
_symmetry_Int_Tables_number   1
_chemical_formula_structural   CuH4C3N4
_chemical_formula_sum   'Cu4 H16 C12 N16'
_cell_volume   477.76188196
_cell_formula_units_Z   4
loop_
 _symmetry_equiv_pos_site_id
 _symmetry_equiv_pos_as_xyz
  1  'x, y, z'
loop_
 _atom_site_type_symbol
 _atom_site_label
 _atom_site_symmetry_multiplicity
 _atom_site_fract_x
 _atom_site_fract_y
 _atom_site_fract_z
 _atom_site_occupancy
 _atom_site_pbe_bader_spin_density
 _atom_site_pbe_cm5_charge
 _atom_site_pbe_ddec_charge
 _atom_site_pbe_ddec_spin_density
 _atom_site_pbe_ddec_sum_bond_order
 _atom_site_pbe_magmom
Cu  Cu0  1  0.11015999  0.72587180  0.70563930  1  0  0.60712  0.467106  0  2.507567  0
Cu  Cu1  1  0.88982583  0.77412586  0.20563479  1  0  0.607086  0.46708  0  2.507412  0
Cu  Cu2  1  0.88982372  0.27412963  0.29436087  1  0  0.607109  0.467133  0  2.507429  0
Cu  Cu3  1  0.11017251  0.22587244  0.79436538  1  0  0.607117  0.467204  0  2.50734  0
H  H4  1  0.57879452  0.76953075  0.59687792  1  0  0.09228  0.126651  0  1.051992  0
H  H5  1  0.42121974  0.73047902  0.09687902  1  0  0.092258  0.126566  0  1.051968  0
H  H6  1  0.42121578  0.23048193  0.40311886  1  0  0.092256  0.126595  0  1.051854  0
H  H7  1  0.57878739  0.26951614  0.90311844  1  0  0.092262  0.12661  0  1.051834  0
H  H8  1  0.66594323  0.89540070  0.49063036  1  0  0.097799  0.150591  0  0.985455  0
H  H9  1  0.33406349  0.60459916  0.99063015  1  0  0.097811  0.150626  0  0.985408  0
H  H10  1  0.33406855  0.10461039  0.50936913  1  0  0.097788  0.150592  0  0.985424  0
H  H11  1  0.66594031  0.39539121  0.00937001  1  0  0.097821  0.150602  0  0.985402  0
H  H12  1  0.88469522  0.95992174  0.58602415  1  0  0.09412  0.134141  0  1.05304  0
H  H13  1  0.11531572  0.54008874  0.08602116  1  0  0.094116  0.134117  0  1.053201  0
H  H14  1  0.11530878  0.04008932  0.41397601  1  0  0.094168  0.134177  0  1.053047  0
H  H15  1  0.88469577  0.45990803  0.91397833  1  0  0.094137  0.134135  0  1.053121  0
H  H16  1  0.28661963  0.38782427  0.61010101  1  0  0.116215  0.097981  0  1.02268  0
H  H17  1  0.71337443  0.11216941  0.11009551  1  0  0.11626  0.097984  0  1.022752  0
H  H18  1  0.71337760  0.61218358  0.38990118  1  0  0.116207  0.097992  0  1.022645  0
H  H19  1  0.28664197  0.88782419  0.88990465  1  0  0.116206  0.097951  0  1.022621  0
C  C20  1  0.88057010  0.65930085  0.52416448  1  0  0.111152  0.259922  0  3.949399  0
C  C21  1  0.11943526  0.84070147  0.02416277  1  0  0.111113  0.259725  0  3.949558  0
C  C22  1  0.11943196  0.34071020  0.47583366  1  0  0.111096  0.25979  0  3.949808  0
C  C23  1  0.88057678  0.15929053  0.97583604  1  0  0.111141  0.259831  0  3.949757  0
C  C24  1  0.74599682  0.83072299  0.55017655  1  0  -0.246288  -0.458386  0  3.952548  0
C  C25  1  0.25401054  0.66927983  0.05017545  1  0  -0.246237  -0.458203  0  3.952566  0
C  C26  1  0.25399402  0.16928961  0.44982429  1  0  -0.246269  -0.458339  0  3.952599  0
C  C27  1  0.74601123  0.33071220  0.94982472  1  0  -0.246293  -0.458319  0  3.952569  0
C  C28  1  0.15929229  0.43871092  0.56003807  1  0  0.037308  -0.009838  0  3.914655  0
C  C29  1  0.84071125  0.06128039  0.06003754  1  0  0.037233  -0.009966  0  3.915061  0
C  C30  1  0.84071087  0.56129059  0.43996007  1  0  0.037385  -0.009817  0  3.914825  0
C  C31  1  0.15929978  0.93871479  0.93996127  1  0  0.03737  -0.009716  0  3.914807  0
N  N32  1  0.33379078  0.01589162  0.73215944  1  0  -0.349789  -0.52422  0  3.3587  0
N  N33  1  0.66620749  0.48410866  0.23215443  1  0  -0.349805  -0.52426  0  3.358388  0
N  N34  1  0.66619792  0.98410028  0.26784140  1  0  -0.349778  -0.524183  0  3.358527  0
N  N35  1  0.33379169  0.51589920  0.76784776  1  0  -0.349796  -0.5242  0  3.358778  0
N  N36  1  0.56762963  0.09675933  0.72285063  1  0  0.069428  0.427687  0  4.419878  0
N  N37  1  0.43234186  0.40323374  0.22284323  1  0  0.069509  0.427648  0  4.419492  0
N  N38  1  0.43234212  0.90322773  0.27715291  1  0  0.069406  0.427565  0  4.420271  0
N  N39  1  0.56762878  0.59676287  0.77715558  1  0  0.069472  0.427596  0  4.419903  0
N  N40  1  0.04472822  0.59728378  0.58525162  1  0  -0.358545  -0.24957  0  3.646459  0
N  N41  1  0.95526961  0.90271544  0.08524619  1  0  -0.358507  -0.249437  0  3.646649  0
N  N42  1  0.95527531  0.40272569  0.41475125  1  0  -0.358587  -0.249534  0  3.646768  0
N  N43  1  0.04473799  0.09728131  0.91475194  1  0  -0.358559  -0.249548  0  3.646806  0
N  N44  1  0.79273994  0.18903431  0.71354052  1  0  -0.270828  -0.422148  0  3.093095  0
N  N45  1  0.20724350  0.31096442  0.21353401  1  0  -0.270866  -0.422011  0  3.093023  0
N  N46  1  0.20726415  0.81097038  0.28646370  1  0  -0.270747  -0.421899  0  3.093429  0
N  N47  1  0.79274363  0.68903543  0.78646548  1  0  -0.270859  -0.422008  0  3.092886  0
