# generated using pymatgen
data_Zr3H27C31O16
_symmetry_space_group_name_H-M   'P 1'
_cell_length_a   14.77589681
_cell_length_b   14.76950142
_cell_length_c   14.79785746
_cell_angle_alpha   60.24522195
_cell_angle_beta   59.87302398
_cell_angle_gamma   60.04356084
_symmetry_Int_Tables_number   1
_chemical_formula_structural   Zr3H27C31O16
_chemical_formula_sum   'Zr6 H54 C62 O32'
_cell_volume   2286.25636397
_cell_formula_units_Z   2
loop_
 _symmetry_equiv_pos_site_id
 _symmetry_equiv_pos_as_xyz
  1  'x, y, z'
loop_
 _atom_site_type_symbol
 _atom_site_label
 _atom_site_symmetry_multiplicity
 _atom_site_fract_x
 _atom_site_fract_y
 _atom_site_fract_z
 _atom_site_occupancy
 _atom_site_pbe_bader_charge
 _atom_site_pbe_bader_spin_density
 _atom_site_pbe_cm5_charge
 _atom_site_pbe_ddec_charge
 _atom_site_pbe_ddec_spin_density
 _atom_site_pbe_ddec_sum_bond_order
 _atom_site_pbe_magmom
Zr  Zr0  1  0.87715888  0.88315535  0.61833690  1  2.634458  0  1.627464  2.368101  0  2.756175  0
Zr  Zr1  1  0.11967292  0.11815989  0.38363407  1  2.627131  0  1.636608  2.366124  0  2.786678  0
Zr  Zr2  1  0.11524371  0.88187311  0.62127404  1  2.638553  0  1.633922  2.368763  0  2.775625  0
Zr  Zr3  1  0.87961027  0.12415701  0.37995965  1  2.635409  0  1.625271  2.369964  0  2.745935  0
Zr  Zr4  1  0.11636573  0.88270403  0.38077084  1  2.634941  0  1.632233  2.368441  0  2.774546  0
Zr  Zr5  1  0.87755885  0.12132520  0.62092158  1  2.633483  0  1.628511  2.369039  0  2.758275  0
H  H6  1  0.08941701  0.71992392  0.59194770  1  0.615769  0  0.33117  0.421702  0  0.860664  0
H  H7  1  0.09452916  0.09500491  0.21885958  1  0.608741  0  0.332076  0.423827  0  0.856654  0
H  H8  1  0.09077709  0.09322974  0.59877673  1  0.591275  0  0.331493  0.422705  0  0.857193  0
H  H9  1  0.71474525  0.09958815  0.59333067  1  0.593111  0  0.329416  0.418953  0  0.863537  0
H  H10  1  0.16363996  0.55236473  0.41724370  1  0.05642  0  0.101592  0.105718  0  1.024016  0
H  H11  1  0.82447611  0.46540572  0.56292022  1  0.072821  0  0.102519  0.10723  0  1.029229  0
H  H12  1  0.64754669  0.05848893  0.96746232  1  0.062281  0  0.103017  0.107702  0  1.025653  0
H  H13  1  0.36394270  0.91898344  0.05015684  1  0.065319  0  0.102436  0.107149  0  1.020552  0
H  H14  1  0.85265279  0.13931643  0.09659076  1  0.069553  0  0.102295  0.106436  0  1.027822  0
H  H15  1  0.11888935  0.84996474  0.92443846  1  0.122815  0  0.103488  0.110131  0  1.020227  0
H  H16  1  0.60134407  0.42041046  0.35183164  1  0.100965  0  0.102865  0.107209  0  1.031001  0
H  H17  1  0.41416801  0.60460400  0.63001778  1  0.08837  0  0.103473  0.109204  0  1.029372  0
H  H18  1  0.73948674  0.64823450  0.98286090  1  0.069779  0  0.097004  0.109531  0  0.983365  0
H  H19  1  0.80493214  0.56289859  0.89934899  1  0.026386  0  0.095283  0.104471  0  0.986441  0
H  H20  1  0.80737484  0.39311821  0.07008754  1  0.061351  0  0.09479  0.10377  0  0.987541  0
H  H21  1  0.74039503  0.47859219  0.15373583  1  0.029537  0  0.094617  0.105199  0  0.996148  0
H  H22  1  0.59476168  0.86157003  0.63391069  1  0.1017  0  0.106786  0.112065  0  1.027959  0
H  H23  1  0.40911578  0.13460592  0.35979281  1  0.077529  0  0.106448  0.111481  0  1.026639  0
H  H24  1  0.22886500  0.27110352  0.45588565  1  0.039831  0  0.091713  0.133134  0  1.009735  0
H  H25  1  0.22837403  0.35865371  0.32160044  1  0.053029  0  0.095754  0.136115  0  0.997297  0
H  H26  1  0.27788881  0.38456957  0.39143396  1  0.012077  0  0.088911  0.122187  0  1.002007  0
H  H27  1  0.71336173  0.65337821  0.55729883  1  0.034141  0  0.091151  0.127734  0  0.995368  0
H  H28  1  0.74601115  0.64251255  0.66341391  1  0.046288  0  0.094569  0.131541  0  0.988211  0
H  H29  1  0.76848866  0.74864745  0.53576360  1  0.059189  0  0.093555  0.139088  0  1.025416  0
H  H30  1  0.57181552  0.06970334  0.14427047  1  0.028488  0  0.090367  0.125844  0  0.99746  0
H  H31  1  0.42987258  0.15305884  0.16060671  1  0.057165  0  0.094432  0.132753  0  0.99716  0
H  H32  1  0.46276136  0.01672814  0.25065584  1  0.062129  0  0.094423  0.139072  0  1.005592  0
H  H33  1  0.54364729  0.95640769  0.76998253  1  0.079278  0  0.091515  0.132617  0  1.008862  0
H  H34  1  0.59093575  0.82177201  0.85694047  1  0.064978  0  0.09607  0.134849  0  0.997721  0
H  H35  1  0.44542199  0.89168970  0.88266630  1  0.011627  0  0.089232  0.122362  0  1.000759  0
H  H36  1  0.75793920  0.22850411  0.97900527  1  -0.002107  0  0.086731  0.117646  0  1.00836  0
H  H37  1  0.84263585  0.23397069  0.83916527  1  0.068995  0  0.097105  0.141643  0  0.99009  0
H  H38  1  0.75764157  0.15177072  0.91639168  1  0.041944  0  0.093616  0.133908  0  1.019232  0
H  H39  1  0.20101328  0.75020745  0.05369779  1  0.0181  0  0.086212  0.11692  0  1.007215  0
H  H40  1  0.21924266  0.83153903  0.09704341  1  0.05343  0  0.093387  0.132856  0  1.006752  0
H  H41  1  0.12360265  0.76097768  0.18941595  1  0.081389  0  0.09751  0.145716  0  0.99581  0
H  H42  1  0.48644693  0.54569415  0.25422775  1  0.024246  0  0.086631  0.117176  0  1.008906  0
H  H43  1  0.34445610  0.59318455  0.33639061  1  0.060695  0  0.093614  0.132975  0  1.009388  0
H  H44  1  0.42109616  0.68361694  0.25905128  1  0.079667  0  0.097759  0.144955  0  0.993752  0
H  H45  1  0.54168844  0.49269613  0.71440873  1  0.009198  0  0.087598  0.119125  0  1.006959  0
H  H46  1  0.58200724  0.35107995  0.73061975  1  0.057137  0  0.097805  0.141738  0  0.987161  0
H  H47  1  0.67877009  0.42033555  0.64149952  1  0.043612  0  0.093841  0.134777  0  1.024901  0
H  H48  1  0.48093671  0.76244309  0.72220461  1  -0.007126  0  0.087656  0.11826  0  1.009521  0
H  H49  1  0.33896700  0.84200928  0.73304315  1  0.08619  0  0.095504  0.137623  0  0.997381  0
H  H50  1  0.41940946  0.76278983  0.64431803  1  0.077471  0  0.095185  0.137663  0  1.007644  0
H  H51  1  0.53246343  0.22444338  0.26213142  1  0.012704  0  0.087203  0.118285  0  1.007703  0
H  H52  1  0.58352614  0.23488790  0.34219867  1  0.062265  0  0.095327  0.137065  0  0.997926  0
H  H53  1  0.67183271  0.14690672  0.26223583  1  0.07119  0  0.09588  0.13898  0  1.006912  0
H  H54  1  0.23288250  0.46129463  0.04406113  1  0.007032  0  0.087409  0.120344  0  1.029001  0
H  H55  1  0.14798890  0.39785623  0.17536261  1  0.081815  0  0.096641  0.143006  0  1.010692  0
H  H56  1  0.24177993  0.32275945  0.08326089  1  0.046724  0  0.093927  0.135227  0  0.995568  0
H  H57  1  0.27743410  0.48615948  0.88359198  1  0.031453  0  0.088901  0.123307  0  1.011242  0
H  H58  1  0.21970993  0.59048942  0.77919919  1  0.071178  0  0.091627  0.133315  0  1.034497  0
H  H59  1  0.20945678  0.62564866  0.88202856  1  0.03521  0  0.094223  0.131538  0  0.989505  0
C  C60  1  0.98946288  0.70507526  0.49311006  1  1.535028  0  0.238251  0.649548  0  4.087457  0
C  C61  1  0.30968771  0.99367026  0.20379237  1  1.535435  0  0.236828  0.645879  0  4.08774  0
C  C62  1  0.99996377  0.30725500  0.49662993  1  1.561659  0  0.235601  0.644821  0  4.089387  0
C  C63  1  0.69565244  0.99476329  0.80774083  1  1.542898  0  0.237574  0.649551  0  4.086737  0
C  C64  1  0.99789651  0.69805054  0.80335972  1  1.539832  0  0.236063  0.648183  0  4.092652  0
C  C65  1  0.69652810  0.00509316  0.49229923  1  1.54193  0  0.235881  0.639636  0  4.089276  0
C  C66  1  0.99918287  0.30838557  0.20205767  1  1.515888  0  0.237299  0.650022  0  4.088179  0
C  C67  1  0.30563077  0.99276729  0.50332324  1  1.540553  0  0.235526  0.637496  0  4.09475  0
C  C68  1  0.30619799  0.70263363  0.49295602  1  1.55032  0  0.235804  0.642075  0  4.08406  0
C  C69  1  0.98707811  0.99974300  0.81157658  1  1.563011  0  0.236333  0.64298  0  4.084588  0
C  C70  1  0.70000715  0.31311975  0.49811034  1  1.540749  0  0.237178  0.644494  0  4.085294  0
C  C71  1  0.99413627  0.99697652  0.20083049  1  1.553757  0  0.235841  0.643161  0  4.086951  0
C  C72  1  0.00125293  0.41008878  0.49166356  1  -0.047102  0  -0.015099  -0.090725  0  3.940004  0
C  C73  1  0.98682544  0.60645900  0.49094719  1  -0.023682  0  -0.015109  -0.090477  0  3.937674  0
C  C74  1  0.10048451  0.43289751  0.44760930  1  0.025653  0  -0.001452  0.156319  0  3.947331  0
C  C75  1  0.88767451  0.58506962  0.53198732  1  -0.031508  0  0.000735  0.161798  0  3.945284  0
C  C76  1  0.08946109  0.53171599  0.44901239  1  -0.02904  0  -0.088796  -0.162275  0  3.965408  0
C  C77  1  0.89872542  0.48574001  0.53152089  1  0.026692  0  -0.086574  -0.156738  0  3.956912  0
C  C78  1  0.41380860  0.99037046  0.10572845  1  -0.03851  0  -0.015628  -0.090599  0  3.938025  0
C  C79  1  0.59645151  0.98952060  0.91062925  1  -0.050645  0  -0.014184  -0.09  0  3.937853  0
C  C80  1  0.49422722  0.02950894  0.08568659  1  0.03664  0  -0.000941  0.157156  0  3.950522  0
C  C81  1  0.51791012  0.94688330  0.93236701  1  -0.011067  0  -0.002407  0.154874  0  3.950613  0
C  C82  1  0.58368529  0.02845039  0.98689677  1  -0.017471  0  -0.086258  -0.155728  0  3.957065  0
C  C83  1  0.42773816  0.94921234  0.03058173  1  -0.008057  0  -0.089309  -0.162574  0  3.96555  0
C  C84  1  0.98115072  0.00009094  0.91537615  1  -0.015721  0  -0.014869  -0.091784  0  3.9222  0
C  C85  1  0.99215610  0.99060246  0.10406684  1  -0.026474  0  -0.01487  -0.094212  0  3.923613  0
C  C86  1  0.90162060  0.08379536  0.96401840  1  0.023056  0  0.000718  0.159759  0  3.936731  0
C  C87  1  0.06912530  0.90467890  0.05784942  1  0.059094  0  0.001972  0.164016  0  3.930907  0
C  C88  1  0.91077182  0.07583890  0.05737479  1  -0.055167  0  -0.08778  -0.158264  0  3.956127  0
C  C89  1  0.06067137  0.91329414  0.96382336  1  -0.132632  0  -0.087394  -0.15941  0  3.953406  0
C  C90  1  0.41159485  0.60597700  0.48648395  1  -0.047442  0  -0.015037  -0.092753  0  3.925457  0
C  C91  1  0.60204905  0.41728491  0.49712874  1  0.007609  0  -0.014934  -0.092843  0  3.923114  0
C  C92  1  0.46454313  0.55639467  0.40355455  1  -0.012172  0  0.001733  0.163608  0  3.932219  0
C  C93  1  0.55144404  0.46935377  0.57759254  1  0.003828  0  0.001295  0.162797  0  3.934707  0
C  C94  1  0.55862945  0.46250996  0.41266635  1  -0.099051  0  -0.088224  -0.163072  0  3.958283  0
C  C95  1  0.45685201  0.56269901  0.56903278  1  -0.029906  0  -0.087691  -0.162101  0  3.957721  0
C  C96  1  0.00639601  0.59479814  0.90031642  1  -0.04568  0  -0.015186  -0.144742  0  3.941518  0
C  C97  1  0.00359812  0.40800036  0.10106912  1  -0.07893  0  -0.01588  -0.148825  0  3.940298  0
C  C98  1  0.91783118  0.55431916  0.96255273  1  -0.036548  0  -0.009689  0.056918  0  3.929757  0
C  C99  1  0.09403012  0.44975554  0.04134801  1  0.057145  0  0.002695  0.103194  0  3.858127  0
C  C100  1  0.91799750  0.46209312  0.05764550  1  0.008411  0  -0.009152  0.05844  0  3.926197  0
C  C101  1  0.09911824  0.53646294  0.93804168  1  0.030757  0  0.002964  0.1015  0  3.854071  0
C  C102  1  0.80495551  0.57098907  0.96926056  1  -0.029509  0  -0.152648  -0.198377  0  3.882147  0
C  C103  1  0.80589652  0.46488816  0.07649202  1  0.00736  0  -0.152155  -0.194403  0  3.880217  0
C  C104  1  0.40773634  0.99063670  0.50342966  1  -0.032315  0  -0.01544  -0.096591  0  3.931757  0
C  C105  1  0.59655413  0.00513995  0.48995131  1  -0.070547  0  -0.015361  -0.097229  0  3.929754  0
C  C106  1  0.45968101  0.90978335  0.58328881  1  0.02703  0  0.001762  0.163074  0  3.934779  0
C  C107  1  0.54577497  0.08486964  0.40893839  1  0.006879  0  0.002333  0.164652  0  3.93308  0
C  C108  1  0.55272469  0.92104802  0.57368982  1  0.004525  0  -0.086243  -0.160112  0  3.961727  0
C  C109  1  0.45163137  0.07469211  0.41957916  1  -0.039293  0  -0.085998  -0.160145  0  3.959803  0
C  C110  1  0.21490162  0.35774394  0.40213353  1  -0.027819  0  -0.240076  -0.408849  0  3.976596  0
C  C111  1  0.77303820  0.66203961  0.57353647  1  -0.049054  0  -0.240198  -0.414603  0  3.973643  0
C  C112  1  0.48969783  0.06904759  0.16447279  1  -0.059606  0  -0.239448  -0.411598  0  3.974347  0
C  C113  1  0.52449984  0.90220103  0.85645780  1  -0.065347  0  -0.239778  -0.408561  0  3.976665  0
C  C114  1  0.80998031  0.17965956  0.92267161  1  -0.018655  0  -0.238886  -0.40827  0  3.974291  0
C  C115  1  0.15796561  0.80644974  0.10178506  1  -0.069136  0  -0.239428  -0.409345  0  3.971061  0
C  C116  1  0.42738717  0.59674282  0.30807175  1  -0.059331  0  -0.239309  -0.408535  0  3.970574  0
C  C117  1  0.59050696  0.43169887  0.67092245  1  -0.013167  0  -0.239503  -0.410137  0  3.972627  0
C  C118  1  0.42290435  0.81404371  0.67581684  1  -0.072618  0  -0.239131  -0.408637  0  3.971301  0
C  C119  1  0.58536969  0.17784388  0.31366749  1  -0.062513  0  -0.238997  -0.408916  0  3.971377  0
C  C120  1  0.18447271  0.40581154  0.08760361  1  -0.044043  0  -0.246223  -0.416038  0  3.982807  0
C  C121  1  0.20694938  0.56095319  0.86724278  1  -0.067109  0  -0.245327  -0.410499  0  3.98707  0
O  O122  1  0.91414606  0.74384190  0.57128870  1  -1.175688  0  -0.353162  -0.613181  0  2.297837  0
O  O123  1  0.26904307  0.07127320  0.24300771  1  -1.178145  0  -0.350937  -0.611547  0  2.294425  0
O  O124  1  0.07820875  0.26363864  0.42266337  1  -1.185827  0  -0.354957  -0.612028  0  2.315113  0
O  O125  1  0.73646543  0.91993452  0.76468611  1  -1.176519  0  -0.357642  -0.616706  0  2.312148  0
O  O126  1  0.06855238  0.74562775  0.76443282  1  -1.185517  0  -0.366566  -0.617686  0  2.351803  0
O  O127  1  0.73639277  0.08248149  0.41868501  1  -1.176078  0  -0.351036  -0.605802  0  2.322625  0
O  O128  1  0.92064316  0.27138554  0.23874618  1  -1.179286  0  -0.353955  -0.616025  0  2.258522  0
O  O129  1  0.26216792  0.91888667  0.58043677  1  -1.187012  0  -0.351927  -0.607464  0  2.322088  0
O  O130  1  0.26247939  0.74082378  0.42000361  1  -1.1823  0  -0.351804  -0.607484  0  2.324948  0
O  O131  1  0.91327720  0.07713835  0.76803417  1  -1.190672  0  -0.357247  -0.614256  0  2.327867  0
O  O132  1  0.73811562  0.26891263  0.57684942  1  -1.178854  0  -0.354022  -0.611025  0  2.322996  0
O  O133  1  0.07224625  0.92325255  0.23946851  1  -1.181711  0  -0.353076  -0.60906  0  2.332425  0
O  O134  1  0.06637759  0.92395293  0.77126708  1  -1.186459  0  -0.350427  -0.61808  0  2.279634  0
O  O135  1  0.73832626  0.27313095  0.42166657  1  -1.176058  0  -0.353915  -0.621305  0  2.289168  0
O  O136  1  0.91923603  0.07667220  0.23771087  1  -1.194699  0  -0.355  -0.625043  0  2.278176  0
O  O137  1  0.26500333  0.73952032  0.57251337  1  -1.189938  0  -0.353623  -0.624681  0  2.290687  0
O  O138  1  0.92010506  0.73454476  0.76623029  1  -1.166602  0  -0.342436  -0.607529  0  2.236397  0
O  O139  1  0.26704258  0.07001782  0.42631973  1  -1.191887  0  -0.35413  -0.624433  0  2.310304  0
O  O140  1  0.07470780  0.26352214  0.24454047  1  -1.180227  0  -0.356226  -0.612059  0  2.355852  0
O  O141  1  0.73498885  0.92775481  0.56938610  1  -1.188733  0  -0.353694  -0.623514  0  2.310381  0
O  O142  1  0.73270080  0.07303897  0.76987687  1  -1.18027  0  -0.348988  -0.619646  0  2.260569  0
O  O143  1  0.06935507  0.74150849  0.41880244  1  -1.185075  0  -0.354902  -0.625508  0  2.282133  0
O  O144  1  0.26649764  0.92060453  0.23930896  1  -1.182302  0  -0.355026  -0.623514  0  2.281998  0
O  O145  1  0.92149511  0.26999913  0.57370876  1  -1.188554  0  -0.349657  -0.621477  0  2.260792  0
O  O146  1  0.79516483  0.07119313  0.56733439  1  -1.223186  0  -0.692741  -1.066071  0  2.368396  0
O  O147  1  0.06446509  0.06751345  0.57049708  1  -1.21727  0  -0.697613  -1.072642  0  2.375625  0
O  O148  1  0.06692788  0.06863081  0.29901728  1  -1.235656  0  -0.696565  -1.072183  0  2.371812  0
O  O149  1  0.06327402  0.80007397  0.56666453  1  -1.245257  0  -0.69636  -1.071596  0  2.375647  0
O  O150  1  0.14676412  0.95038075  0.45227270  1  -1.200751  0  -0.79595  -1.150507  0  2.142392  0
O  O151  1  0.94727218  0.95431583  0.44979069  1  -1.199955  0  -0.791486  -1.147868  0  2.132205  0
O  O152  1  0.94952113  0.15012408  0.45216856  1  -1.196336  0  -0.793028  -1.147621  0  2.140103  0
O  O153  1  0.94628136  0.95261883  0.64888115  1  -1.200371  0  -0.793435  -1.146701  0  2.14113  0
