# generated using pymatgen
data_MgH18(C4O)2
_symmetry_space_group_name_H-M   'P 1'
_cell_length_a   5.53593364
_cell_length_b   12.46720729
_cell_length_c   13.79894102
_cell_angle_alpha   90.00270664
_cell_angle_beta   90.00218279
_cell_angle_gamma   89.99997001
_symmetry_Int_Tables_number   1
_chemical_formula_structural   MgH18(C4O)2
_chemical_formula_sum   'Mg4 H72 C32 O8'
_cell_volume   952.37023466
_cell_formula_units_Z   4
loop_
 _symmetry_equiv_pos_site_id
 _symmetry_equiv_pos_as_xyz
  1  'x, y, z'
loop_
 _atom_site_type_symbol
 _atom_site_label
 _atom_site_symmetry_multiplicity
 _atom_site_fract_x
 _atom_site_fract_y
 _atom_site_fract_z
 _atom_site_occupancy
 _atom_site_hle17_bader_spin_density
 _atom_site_hle17_ddec_charge
 _atom_site_hle17_ddec_spin_density
 _atom_site_hle17_ddec_sum_bond_order
 _atom_site_hle17_magmom
 _atom_site_hse06_10hf_bader_spin_density
 _atom_site_hse06_10hf_ddec_charge
 _atom_site_hse06_10hf_ddec_spin_density
 _atom_site_hse06_10hf_ddec_sum_bond_order
 _atom_site_hse06_10hf_magmom
 _atom_site_hse06_bader_spin_density
 _atom_site_hse06_ddec_charge
 _atom_site_hse06_ddec_spin_density
 _atom_site_hse06_ddec_sum_bond_order
 _atom_site_hse06_magmom
 _atom_site_pbe_bader_spin_density
 _atom_site_pbe_cm5_charge
 _atom_site_pbe_ddec_charge
 _atom_site_pbe_ddec_spin_density
 _atom_site_pbe_ddec_sum_bond_order
 _atom_site_pbe_magmom
Mg  Mg0  1  0.41369607  0.15770293  0.24999161  1  0  1.073619  0  1.470854  0  0  0.976485  0  1.703899  0  0  0.995364  0  1.683144  0  0  0.588735  0.963337  0  1.718087  0
Mg  Mg1  1  0.08631632  0.65770379  0.24999336  1  0  1.073577  0  1.470919  0  0  0.97647  0  1.703923  0  0  0.995344  0  1.683168  0  0  0.588727  0.96331  0  1.718138  0
Mg  Mg2  1  0.91369011  0.34228996  0.74999899  1  0  1.073501  0  1.471119  0  0  0.976454  0  1.703848  0  0  0.995333  0  1.683071  0  0  0.588739  0.963284  0  1.718082  0
Mg  Mg3  1  0.58630675  0.84229643  0.75001161  1  0  1.073426  0  1.47099  0  0  0.976296  0  1.704167  0  0  0.995155  0  1.68344  0  0  0.588738  0.963167  0  1.718349  0
H  H4  1  0.60194323  0.25627429  0.40991177  1  0  0.072801  0  1.072966  0  0  0.086278  0  1.146818  0  0  0.087389  0  1.148289  0  0  0.045351  0.085555  0  1.145711  0
H  H5  1  0.89807349  0.75626318  0.40991572  1  0  0.072824  0  1.072791  0  0  0.086278  0  1.146678  0  0  0.08739  0  1.148149  0  0  0.045351  0.085554  0  1.145573  0
H  H6  1  0.60189689  0.25626204  0.09006911  1  0  0.072915  0  1.072845  0  0  0.08636  0  1.146747  0  0  0.087473  0  1.148215  0  0  0.045404  0.085637  0  1.145639  0
H  H7  1  0.10192328  0.24374362  0.90992653  1  0  0.072871  0  1.07286  0  0  0.08636  0  1.146695  0  0  0.087472  0  1.148165  0  0  0.04542  0.085632  0  1.145592  0
H  H8  1  0.39805959  0.74372508  0.59009000  1  0  0.072727  0  1.073002  0  0  0.086174  0  1.146889  0  0  0.087284  0  1.148361  0  0  0.045346  0.085451  0  1.145785  0
H  H9  1  0.10190765  0.24373218  0.59007228  1  0  0.072848  0  1.072845  0  0  0.086314  0  1.146728  0  0  0.087424  0  1.148201  0  0  0.0454  0.085594  0  1.145618  0
H  H10  1  0.39809148  0.74375417  0.90993556  1  0  0.072944  0  1.072655  0  0  0.086396  0  1.146547  0  0  0.087507  0  1.148018  0  0  0.04541  0.085676  0  1.145437  0
H  H11  1  0.89809038  0.75625173  0.09007378  1  0  0.072914  0  1.072717  0  0  0.086387  0  1.146573  0  0  0.087497  0  1.148044  0  0  0.045423  0.085661  0  1.145473  0
H  H12  1  0.41816028  0.15259842  0.45142076  1  0  0.084185  0  1.044131  0  0  0.098281  0  1.1144  0  0  0.099551  0  1.116003  0  0  0.048068  0.097027  0  1.113891  0
H  H13  1  0.08184619  0.65258323  0.45142898  1  0  0.084073  0  1.04447  0  0  0.098205  0  1.114659  0  0  0.099478  0  1.11626  0  0  0.04804  0.096952  0  1.114153  0
H  H14  1  0.41813919  0.15257661  0.04854926  1  0  0.083938  0  1.044504  0  0  0.098114  0  1.114682  0  0  0.099386  0  1.116283  0  0  0.047932  0.096858  0  1.114177  0
H  H15  1  0.91815605  0.34743073  0.95143631  1  0  0.083981  0  1.044406  0  0  0.0981  0  1.114674  0  0  0.099373  0  1.116274  0  0  0.048005  0.096846  0  1.114165  0
H  H16  1  0.58184434  0.84739854  0.54858536  1  0  0.084014  0  1.044307  0  0  0.098126  0  1.114514  0  0  0.099396  0  1.116117  0  0  0.047978  0.096879  0  1.114  0
H  H17  1  0.91813676  0.34741774  0.54856264  1  0  0.084046  0  1.044383  0  0  0.098199  0  1.114594  0  0  0.099469  0  1.116198  0  0  0.048019  0.096945  0  1.114085  0
H  H18  1  0.58186002  0.84743880  0.95145468  1  0  0.083882  0  1.044551  0  0  0.098037  0  1.114763  0  0  0.099308  0  1.116365  0  0  0.047921  0.096784  0  1.114255  0
H  H19  1  0.08185399  0.65256944  0.04855894  1  0  0.083979  0  1.04446  0  0  0.098105  0  1.114703  0  0  0.099375  0  1.116304  0  0  0.047974  0.096853  0  1.114192  0
H  H20  1  0.73458635  0.01616878  0.41726549  1  0  0.054877  0  0.97602  0  0  0.080279  0  1.042356  0  0  0.080621  0  1.043118  0  0  0.069132  0.080136  0  1.041753  0
H  H21  1  0.76544609  0.51615730  0.41725371  1  0  0.054922  0  0.976245  0  0  0.080359  0  1.042525  0  0  0.080696  0  1.043294  0  0  0.069159  0.080217  0  1.041914  0
H  H22  1  0.73456072  0.01615773  0.08273692  1  0  0.054898  0  0.9763  0  0  0.080326  0  1.042585  0  0  0.080667  0  1.043348  0  0  0.069143  0.080181  0  1.04198  0
H  H23  1  0.23456791  0.48384590  0.91725924  1  0  0.05487  0  0.976296  0  0  0.080316  0  1.042589  0  0  0.08065  0  1.043361  0  0  0.069149  0.08017  0  1.041982  0
H  H24  1  0.26542911  0.98383139  0.58273772  1  0  0.054892  0  0.976121  0  0  0.080305  0  1.042445  0  0  0.08065  0  1.043202  0  0  0.069164  0.080164  0  1.041838  0
H  H25  1  0.23454951  0.48383886  0.58273864  1  0  0.05499  0  0.976274  0  0  0.080403  0  1.042542  0  0  0.080748  0  1.043303  0  0  0.069187  0.08026  0  1.041936  0
H  H26  1  0.26543307  0.98385929  0.91726774  1  0  0.054832  0  0.976413  0  0  0.080301  0  1.042664  0  0  0.080642  0  1.043427  0  0  0.069147  0.080154  0  1.042062  0
H  H27  1  0.76542588  0.51615186  0.08272876  1  0  0.054882  0  0.976317  0  0  0.080351  0  1.042551  0  0  0.080697  0  1.043312  0  0  0.069158  0.080209  0  1.041938  0
H  H28  1  0.88685102  0.12146291  0.47724751  1  0  0.052451  0  0.979534  0  0  0.077554  0  1.046279  0  0  0.077834  0  1.047635  0  0  0.065126  0.077171  0  1.045773  0
H  H29  1  0.61315508  0.62145101  0.47722777  1  0  0.052344  0  0.979426  0  0  0.077494  0  1.046199  0  0  0.077788  0  1.04754  0  0  0.065154  0.077111  0  1.045688  0
H  H30  1  0.88686085  0.12144606  0.02276771  1  0  0.052302  0  0.979524  0  0  0.077427  0  1.046304  0  0  0.077716  0  1.047653  0  0  0.06506  0.077044  0  1.045795  0
H  H31  1  0.38686861  0.37855879  0.97723785  1  0  0.052235  0  0.979633  0  0  0.077419  0  1.046348  0  0  0.077708  0  1.047695  0  0  0.065096  0.077038  0  1.045834  0
H  H32  1  0.11316986  0.87853565  0.52275570  1  0  0.05243  0  0.979521  0  0  0.077524  0  1.046295  0  0  0.077804  0  1.04765  0  0  0.065136  0.077142  0  1.045785  0
H  H33  1  0.38684593  0.37854434  0.52276457  1  0  0.052371  0  0.979494  0  0  0.077465  0  1.046319  0  0  0.077755  0  1.047668  0  0  0.06511  0.077081  0  1.045805  0
H  H34  1  0.11313113  0.87857176  0.97723478  1  0  0.052292  0  0.979585  0  0  0.077479  0  1.046311  0  0  0.07776  0  1.047669  0  0  0.065088  0.0771  0  1.045796  0
H  H35  1  0.61312879  0.62144299  0.02276029  1  0  0.05228  0  0.979551  0  0  0.077428  0  1.046304  0  0  0.077723  0  1.047643  0  0  0.065079  0.077047  0  1.045786  0
H  H36  1  0.90899984  0.10824951  0.35050575  1  0  0.058918  0  0.98132  0  0  0.08123  0  1.050699  0  0  0.08252  0  1.050272  0  0  0.073514  0.080046  0  1.051547  0
H  H37  1  0.59104218  0.60823434  0.35048580  1  0  0.058985  0  0.981382  0  0  0.08133  0  1.050708  0  0  0.082625  0  1.050272  0  0  0.073552  0.080119  0  1.051585  0
H  H38  1  0.90893785  0.10824543  0.14951424  1  0  0.058871  0  0.981509  0  0  0.081229  0  1.050808  0  0  0.082518  0  1.050383  0  0  0.073577  0.080026  0  1.051675  0
H  H39  1  0.40895581  0.39176028  0.85049371  1  0  0.058933  0  0.981352  0  0  0.081244  0  1.050742  0  0  0.082537  0  1.05031  0  0  0.073511  0.080037  0  1.051615  0
H  H40  1  0.09100659  0.89175146  0.64949674  1  0  0.058835  0  0.981381  0  0  0.081162  0  1.050746  0  0  0.082451  0  1.050321  0  0  0.073508  0.079971  0  1.051598  0
H  H41  1  0.40895161  0.39175701  0.64951017  1  0  0.058912  0  0.981459  0  0  0.081253  0  1.050787  0  0  0.082543  0  1.050363  0  0  0.073568  0.080046  0  1.051661  0
H  H42  1  0.09105775  0.89177078  0.85048681  1  0  0.058964  0  0.981355  0  0  0.081307  0  1.050683  0  0  0.082601  0  1.050249  0  0  0.073585  0.080115  0  1.05154  0
H  H43  1  0.59105966  0.60823508  0.14950226  1  0  0.058925  0  0.981457  0  0  0.08124  0  1.050817  0  0  0.082529  0  1.050395  0  0  0.073502  0.080011  0  1.05171  0
H  H44  1  0.43521933  0.40955661  0.33976803  1  0  0.058101  0  0.940139  0  0  0.06706  0  1.016297  0  0  0.068189  0  1.014334  0  0  0.105178  0.065895  0  1.018447  0
H  H45  1  0.06481161  0.90956704  0.33976741  1  0  0.058165  0  0.940104  0  0  0.067151  0  1.016281  0  0  0.068288  0  1.014303  0  0  0.105168  0.065976  0  1.018437  0
H  H46  1  0.43518764  0.40955154  0.16023179  1  0  0.058156  0  0.940085  0  0  0.06708  0  1.016293  0  0  0.068199  0  1.014315  0  0  0.105209  0.065912  0  1.018455  0
H  H47  1  0.93524096  0.09044462  0.83975684  1  0  0.058034  0  0.94043  0  0  0.066946  0  1.016631  0  0  0.068078  0  1.014671  0  0  0.105069  0.065777  0  1.018776  0
H  H48  1  0.56479614  0.59043393  0.66022649  1  0  0.05813  0  0.940156  0  0  0.067112  0  1.016292  0  0  0.068248  0  1.014325  0  0  0.105204  0.065941  0  1.018449  0
H  H49  1  0.93518398  0.09043634  0.66022422  1  0  0.058087  0  0.940116  0  0  0.067116  0  1.016293  0  0  0.068251  0  1.014322  0  0  0.105162  0.065939  0  1.018448  0
H  H50  1  0.56475557  0.59043580  0.83976273  1  0  0.058043  0  0.940211  0  0  0.066991  0  1.016405  0  0  0.068124  0  1.014435  0  0  0.105112  0.065831  0  1.018562  0
H  H51  1  0.06480160  0.90956357  0.16021740  1  0  0.058139  0  0.940144  0  0  0.067176  0  1.016269  0  0  0.068309  0  1.014296  0  0  0.105164  0.066006  0  1.018421  0
H  H52  1  0.20344230  0.48634017  0.39795697  1  0  0.091885  0  0.934698  0  0  0.106496  0  0.994388  0  0  0.106356  0  0.995608  0  0  0.121309  0.106508  0  0.993698  0
H  H53  1  0.29659324  0.98634401  0.39794113  1  0  0.092002  0  0.934596  0  0  0.106648  0  0.99427  0  0  0.106519  0  0.995473  0  0  0.121333  0.106656  0  0.993572  0
H  H54  1  0.20337586  0.48633902  0.10204948  1  0  0.091917  0  0.934534  0  0  0.106564  0  0.994191  0  0  0.10642  0  0.995392  0  0  0.121323  0.106578  0  0.9935  0
H  H55  1  0.70345434  0.01365409  0.89795436  1  0  0.092043  0  0.934501  0  0  0.106643  0  0.994216  0  0  0.106519  0  0.995417  0  0  0.12138  0.106649  0  0.993524  0
H  H56  1  0.79659304  0.51365278  0.60204769  1  0  0.091906  0  0.934505  0  0  0.106537  0  0.994191  0  0  0.106408  0  0.995401  0  0  0.121291  0.106547  0  0.993499  0
H  H57  1  0.70340235  0.01365134  0.60204252  1  0  0.091925  0  0.93445  0  0  0.106589  0  0.994172  0  0  0.106461  0  0.995379  0  0  0.121325  0.106591  0  0.993477  0
H  H58  1  0.79656555  0.51364430  0.89795591  1  0  0.091901  0  0.934475  0  0  0.106532  0  0.994182  0  0  0.106393  0  0.995404  0  0  0.12134  0.106553  0  0.99349  0
H  H59  1  0.29658461  0.98634608  0.10204306  1  0  0.091988  0  0.934611  0  0  0.106621  0  0.994322  0  0  0.106493  0  0.995524  0  0  0.12132  0.10663  0  0.993629  0
H  H60  1  0.11832944  0.28524011  0.10104144  1  0  0.100566  0  0.924417  0  0  0.114781  0  0.98271  0  0  0.114845  0  0.983888  0  0  0.122655  0.11464  0  0.982032  0
H  H61  1  0.38165584  0.78524660  0.10102712  1  0  0.100708  0  0.924344  0  0  0.114895  0  0.982658  0  0  0.114956  0  0.98385  0  0  0.122698  0.114758  0  0.981979  0
H  H62  1  0.11838157  0.28524532  0.39896430  1  0  0.100707  0  0.924368  0  0  0.114908  0  0.982625  0  0  0.114969  0  0.983814  0  0  0.122717  0.114767  0  0.981947  0
H  H63  1  0.61833279  0.21474676  0.60104092  1  0  0.100649  0  0.924573  0  0  0.114853  0  0.98283  0  0  0.114929  0  0.983987  0  0  0.122731  0.114712  0  0.982155  0
H  H64  1  0.88160654  0.71474482  0.89896975  1  0  0.100696  0  0.924409  0  0  0.11479  0  0.982804  0  0  0.11485  0  0.983996  0  0  0.122707  0.114654  0  0.982121  0
H  H65  1  0.61839394  0.21475036  0.89895871  1  0  0.10074  0  0.924394  0  0  0.114833  0  0.982802  0  0  0.114891  0  0.983996  0  0  0.122713  0.114694  0  0.982123  0
H  H66  1  0.88165558  0.71475084  0.60105558  1  0  0.100825  0  0.924381  0  0  0.114861  0  0.9829  0  0  0.11494  0  0.984046  0  0  0.122702  0.114717  0  0.982239  0
H  H67  1  0.38165919  0.78524700  0.39895795  1  0  0.100684  0  0.924335  0  0  0.114895  0  0.98264  0  0  0.114957  0  0.983831  0  0  0.122718  0.114754  0  0.981965  0
H  H68  1  0.89013956  0.35940390  0.16390641  1  0  0.062937  0  0.93113  0  0  0.074926  0  0.998905  0  0  0.075977  0  0.997212  0  0  0.10553  0.073829  0  1.000795  0
H  H69  1  0.60982324  0.85941285  0.16390114  1  0  0.062956  0  0.931268  0  0  0.074946  0  0.99905  0  0  0.076005  0  0.997348  0  0  0.105568  0.07385  0  1.000947  0
H  H70  1  0.89017798  0.35941118  0.33610441  1  0  0.062969  0  0.93133  0  0  0.074948  0  0.99908  0  0  0.076005  0  0.997379  0  0  0.105554  0.073848  0  1.000975  0
H  H71  1  0.39015019  0.14058566  0.66390264  1  0  0.063014  0  0.931106  0  0  0.075001  0  0.998849  0  0  0.076059  0  0.997149  0  0  0.105544  0.073905  0  1.000741  0
H  H72  1  0.10983617  0.64058744  0.83612145  1  0  0.062981  0  0.931066  0  0  0.074905  0  0.998896  0  0  0.075961  0  0.9972  0  0  0.105546  0.073809  0  1.000788  0
H  H73  1  0.39018139  0.14058812  0.83610643  1  0  0.062984  0  0.931069  0  0  0.075003  0  0.998834  0  0  0.076064  0  0.997123  0  0  0.105541  0.073905  0  1.000728  0
H  H74  1  0.10984109  0.64058418  0.66391910  1  0  0.063048  0  0.931053  0  0  0.075103  0  0.998792  0  0  0.076156  0  0.997095  0  0  0.105619  0.074009  0  1.000677  0
H  H75  1  0.60984721  0.85941611  0.33608609  1  0  0.063026  0  0.931075  0  0  0.075042  0  0.998852  0  0  0.076098  0  0.997155  0  0  0.105579  0.073944  0  1.000747  0
C  C76  1  0.55517940  0.17147375  0.39537616  1  0  -0.739313  0  3.663253  0  0  -0.732713  0  3.913836  0  0  -0.745402  0  3.927365  0  0  -0.401636  -0.723046  0  3.903643  0
C  C77  1  0.94486027  0.67146036  0.39537258  1  0  -0.739282  0  3.663405  0  0  -0.732683  0  3.914061  0  0  -0.745368  0  3.927587  0  0  -0.401702  -0.723021  0  3.903885  0
C  C78  1  0.55512956  0.17146393  0.10460675  1  0  -0.739172  0  3.663258  0  0  -0.73264  0  3.913858  0  0  -0.745327  0  3.927381  0  0  -0.401616  -0.72297  0  3.903659  0
C  C79  1  0.05513278  0.32853359  0.89537759  1  0  -0.739154  0  3.663083  0  0  -0.732599  0  3.91375  0  0  -0.745281  0  3.927268  0  0  -0.401698  -0.722938  0  3.903587  0
C  C80  1  0.44483245  0.82852562  0.60462560  1  0  -0.739031  0  3.663213  0  0  -0.732368  0  3.913772  0  0  -0.745059  0  3.927314  0  0  -0.401597  -0.722699  0  3.903565  0
C  C81  1  0.05511545  0.32853259  0.60461977  1  0  -0.739297  0  3.663187  0  0  -0.732753  0  3.913873  0  0  -0.74544  0  3.927403  0  0  -0.401781  -0.723082  0  3.903668  0
C  C82  1  0.44486243  0.82855148  0.89539937  1  0  -0.738938  0  3.663129  0  0  -0.732382  0  3.913674  0  0  -0.745067  0  3.927203  0  0  -0.401479  -0.722726  0  3.903492  0
C  C83  1  0.94487185  0.67145535  0.10461693  1  0  -0.739189  0  3.663233  0  0  -0.732613  0  3.913862  0  0  -0.745298  0  3.927393  0  0  -0.401677  -0.722954  0  3.903682  0
C  C84  1  0.08216812  0.33625011  0.33599581  1  0  0.050836  0  3.589871  0  0  -0.010123  0  3.853353  0  0  -0.003544  0  3.858326  0  0  -0.065421  -0.014339  0  3.84977  0
C  C85  1  0.41785449  0.83625749  0.33598400  1  0  0.050812  0  3.589412  0  0  -0.010239  0  3.853261  0  0  -0.003669  0  3.858259  0  0  -0.065346  -0.014477  0  3.849654  0
C  C86  1  0.08214596  0.33624926  0.16401377  1  0  0.050967  0  3.589805  0  0  -0.010022  0  3.853348  0  0  -0.003463  0  3.858327  0  0  -0.065283  -0.014231  0  3.849759  0
C  C87  1  0.58219939  0.16374994  0.83598096  1  0  0.050798  0  3.590134  0  0  -0.010149  0  3.853782  0  0  -0.003574  0  3.858798  0  0  -0.065385  -0.014376  0  3.85018  0
C  C88  1  0.91782928  0.66374766  0.66402408  1  0  0.050669  0  3.589927  0  0  -0.010343  0  3.853775  0  0  -0.003786  0  3.858804  0  0  -0.065401  -0.014545  0  3.850184  0
C  C89  1  0.58215195  0.16375070  0.66401125  1  0  0.050774  0  3.589737  0  0  -0.010099  0  3.853289  0  0  -0.003514  0  3.858277  0  0  -0.065283  -0.014341  0  3.849693  0
C  C90  1  0.91782254  0.66374289  0.83600104  1  0  0.051036  0  3.589702  0  0  -0.009748  0  3.853227  0  0  -0.003172  0  3.858192  0  0  -0.065291  -0.013943  0  3.84965  0
C  C91  1  0.41781788  0.83625825  0.16400631  1  0  0.050971  0  3.590053  0  0  -0.009991  0  3.853721  0  0  -0.003405  0  3.858689  0  0  -0.065318  -0.014234  0  3.850127  0
C  C92  1  0.24403888  0.43378301  0.33653258  1  0  0.047389  0  3.615038  0  0  -0.017375  0  3.883933  0  0  -0.010421  0  3.888476  0  0  -0.066855  -0.021961  0  3.880845  0
C  C93  1  0.25597859  0.93379557  0.33651780  1  0  0.047044  0  3.615045  0  0  -0.017848  0  3.884238  0  0  -0.010896  0  3.88881  0  0  -0.067014  -0.022408  0  3.881112  0
C  C94  1  0.24401485  0.43378213  0.16347292  1  0  0.047349  0  3.614685  0  0  -0.01744  0  3.883731  0  0  -0.010431  0  3.888212  0  0  -0.066966  -0.022035  0  3.880643  0
C  C95  1  0.74407174  0.06621109  0.83652406  1  0  0.047073  0  3.615129  0  0  -0.017656  0  3.883982  0  0  -0.01073  0  3.888563  0  0  -0.066952  -0.022222  0  3.880873  0
C  C96  1  0.75598020  0.56621635  0.66347354  1  0  0.047281  0  3.614835  0  0  -0.017494  0  3.883848  0  0  -0.010581  0  3.888427  0  0  -0.066928  -0.022066  0  3.880734  0
C  C97  1  0.74401519  0.06621262  0.66347020  1  0  0.047522  0  3.614425  0  0  -0.017567  0  3.883761  0  0  -0.010638  0  3.888341  0  0  -0.066937  -0.022109  0  3.88062  0
C  C98  1  0.75593378  0.56620921  0.83653537  1  0  0.047239  0  3.614479  0  0  -0.017589  0  3.883412  0  0  -0.010655  0  3.887958  0  0  -0.066912  -0.022209  0  3.880369  0
C  C99  1  0.25597082  0.93379549  0.16346902  1  0  0.04694  0  3.615179  0  0  -0.018  0  3.884312  0  0  -0.011042  0  3.888871  0  0  -0.067037  -0.022576  0  3.881221  0
C  C100  1  0.78103091  0.10199624  0.41145463  1  0  -0.177878  0  3.850562  0  0  -0.248542  0  4.089714  0  0  -0.24912  0  4.10601  0  0  -0.26536  -0.247859  0  4.078238  0
C  C101  1  0.71900117  0.60198624  0.41144023  1  0  -0.177831  0  3.85065  0  0  -0.248596  0  4.089763  0  0  -0.249181  0  4.106056  0  0  -0.265377  -0.247892  0  4.078276  0
C  C102  1  0.78100244  0.10198792  0.08854869  1  0  -0.177703  0  3.8506  0  0  -0.248419  0  4.089681  0  0  -0.249006  0  4.105979  0  0  -0.265306  -0.247724  0  4.078203  0
C  C103  1  0.28101206  0.39801583  0.91144936  1  0  -0.177682  0  3.850508  0  0  -0.248458  0  4.089636  0  0  -0.249042  0  4.105934  0  0  -0.265313  -0.247756  0  4.07814  0
C  C104  1  0.21897552  0.89800713  0.58854641  1  0  -0.177812  0  3.850535  0  0  -0.248487  0  4.089667  0  0  -0.249067  0  4.10596  0  0  -0.265366  -0.247794  0  4.078185  0
C  C105  1  0.28099442  0.39801072  0.58855139  1  0  -0.177822  0  3.850567  0  0  -0.248515  0  4.089664  0  0  -0.249105  0  4.105961  0  0  -0.26532  -0.247812  0  4.078182  0
C  C106  1  0.21898774  0.89803150  0.91145453  1  0  -0.177892  0  3.850756  0  0  -0.248696  0  4.089878  0  0  -0.249277  0  4.106178  0  0  -0.265475  -0.248004  0  4.078387  0
C  C107  1  0.71900340  0.60198273  0.08854516  1  0  -0.177745  0  3.850753  0  0  -0.248489  0  4.089842  0  0  -0.249082  0  4.106139  0  0  -0.265278  -0.247771  0  4.078361  0
O  O108  1  0.20693324  0.49741305  0.25000527  1  0  -0.357449  0  2.337907  0  0  -0.267454  0  2.577477  0  0  -0.283501  0  2.576603  0  0  -0.254545  -0.256407  0  2.578236  0
O  O109  1  0.29306640  0.99743373  0.25000172  1  0  -0.357096  0  2.337808  0  0  -0.266969  0  2.577308  0  0  -0.283031  0  2.576488  0  0  -0.254431  -0.25594  0  2.578049  0
O  O110  1  0.70693462  0.00257125  0.74999715  1  0  -0.357384  0  2.337668  0  0  -0.267237  0  2.577174  0  0  -0.283246  0  2.57633  0  0  -0.254499  -0.256216  0  2.577911  0
O  O111  1  0.79306958  0.50258391  0.75000229  1  0  -0.357398  0  2.337636  0  0  -0.267297  0  2.577161  0  0  -0.283278  0  2.576279  0  0  -0.254527  -0.256242  0  2.57792  0
O  O112  1  0.12687089  0.27231281  0.24999758  1  0  -0.352045  0  2.307137  0  0  -0.265595  0  2.546224  0  0  -0.281791  0  2.545936  0  0  -0.247507  -0.254425  0  2.546405  0
O  O113  1  0.37311254  0.77231847  0.24999260  1  0  -0.351984  0  2.307106  0  0  -0.265548  0  2.546329  0  0  -0.281746  0  2.546046  0  0  -0.247522  -0.254307  0  2.546462  0
O  O114  1  0.62690112  0.22769132  0.75000844  1  0  -0.351846  0  2.307378  0  0  -0.265481  0  2.546541  0  0  -0.281687  0  2.546265  0  0  -0.247517  -0.254275  0  2.546697  0
O  O115  1  0.87308858  0.72768175  0.75002013  1  0  -0.351941  0  2.307409  0  0  -0.265575  0  2.546573  0  0  -0.281744  0  2.546268  0  0  -0.247537  -0.254454  0  2.546786  0
