# generated using pymatgen
data_DyH21C33S4NO8
_symmetry_space_group_name_H-M   'P 1'
_cell_length_a   9.34905442
_cell_length_b   10.46736545
_cell_length_c   15.88955613
_cell_angle_alpha   82.92862547
_cell_angle_beta   82.32319433
_cell_angle_gamma   78.35163674
_symmetry_Int_Tables_number   1
_chemical_formula_structural   DyH21C33S4NO8
_chemical_formula_sum   'Dy2 H42 C66 S8 N2 O16'
_cell_volume   1501.85710881
_cell_formula_units_Z   2
loop_
 _symmetry_equiv_pos_site_id
 _symmetry_equiv_pos_as_xyz
  1  'x, y, z'
loop_
 _atom_site_type_symbol
 _atom_site_label
 _atom_site_symmetry_multiplicity
 _atom_site_fract_x
 _atom_site_fract_y
 _atom_site_fract_z
 _atom_site_occupancy
 _atom_site_hle17_bader_spin_density
 _atom_site_hle17_ddec_charge
 _atom_site_hle17_ddec_spin_density
 _atom_site_hle17_ddec_sum_bond_order
 _atom_site_hle17_magmom
 _atom_site_hse06_10hf_bader_spin_density
 _atom_site_hse06_10hf_ddec_charge
 _atom_site_hse06_10hf_ddec_spin_density
 _atom_site_hse06_10hf_ddec_sum_bond_order
 _atom_site_hse06_10hf_magmom
 _atom_site_hse06_bader_spin_density
 _atom_site_hse06_ddec_charge
 _atom_site_hse06_ddec_spin_density
 _atom_site_hse06_ddec_sum_bond_order
 _atom_site_hse06_magmom
 _atom_site_pbe_bader_spin_density
 _atom_site_pbe_cm5_charge
 _atom_site_pbe_ddec_charge
 _atom_site_pbe_ddec_spin_density
 _atom_site_pbe_ddec_sum_bond_order
 _atom_site_pbe_magmom
Dy  Dy0  1  0.83603103  0.92139652  0.04678359  1  0  2.192463  0  1.696733  0  0  2.034467  0  2.174221  0  0  2.087462  0  2.129665  0  0  1.530532  1.994443  0  2.208257  0
Dy  Dy1  1  0.16397218  0.07860087  0.95321621  1  0  2.192516  0  1.696638  0  0  2.034559  0  2.174061  0  0  2.08755  0  2.129511  0  0  1.530586  1.994532  0  2.2081  0
H  H2  1  0.29094097  0.82475097  0.76135611  1  0  0.097897  0  0.974137  0  0  0.100805  0  1.048048  0  0  0.103864  0  1.046391  0  0  0.099622  0.09863  0  1.049313  0
H  H3  1  0.70906651  0.17524640  0.23863768  1  0  0.097844  0  0.974101  0  0  0.100729  0  1.04807  0  0  0.103784  0  1.046416  0  0  0.099636  0.098557  0  1.049333  0
H  H4  1  0.24853031  0.35731822  0.86261572  1  0  0.061518  0  1.01182  0  0  0.066416  0  1.085004  0  0  0.067986  0  1.084567  0  0  0.10807  0.065906  0  1.083717  0
H  H5  1  0.75146993  0.64268310  0.13738337  1  0  0.061536  0  1.011802  0  0  0.066429  0  1.084991  0  0  0.067999  0  1.084555  0  0  0.108077  0.065918  0  1.083705  0
H  H6  1  0.42527504  0.13306796  0.07051300  1  0  0.095191  0  0.938851  0  0  0.100907  0  1.006392  0  0  0.103909  0  1.002972  0  0  0.124143  0.098644  0  1.008857  0
H  H7  1  0.57472480  0.86693532  0.92948596  1  0  0.095139  0  0.938846  0  0  0.100862  0  1.00638  0  0  0.103865  0  1.00296  0  0  0.124114  0.098598  0  1.00885  0
H  H8  1  0.39832548  0.86464344  0.19352583  1  0  0.099651  0  0.98263  0  0  0.102799  0  1.057959  0  0  0.106025  0  1.055791  0  0  0.09999  0.100497  0  1.059379  0
H  H9  1  0.60167235  0.13535398  0.80647693  1  0  0.099656  0  0.982645  0  0  0.102769  0  1.058032  0  0  0.105987  0  1.05588  0  0  0.099994  0.100475  0  1.059432  0
H  H10  1  0.07519482  0.42849825  0.76294746  1  0  0.101385  0  0.980025  0  0  0.109278  0  1.046032  0  0  0.112631  0  1.044285  0  0  0.09801  0.107083  0  1.047203  0
H  H11  1  0.92480255  0.57150114  0.23704824  1  0  0.101402  0  0.980103  0  0  0.109297  0  1.046104  0  0  0.11265  0  1.044358  0  0  0.098018  0.107097  0  1.047274  0
H  H12  1  0.39709860  0.66326472  0.65554374  1  0  0.082432  0  0.95628  0  0  0.094997  0  1.015421  0  0  0.097608  0  1.014443  0  0  0.096471  0.092871  0  1.016668  0
H  H13  1  0.60290882  0.33672776  0.34445171  1  0  0.082429  0  0.956364  0  0  0.095004  0  1.015494  0  0  0.097615  0  1.014516  0  0  0.096475  0.092881  0  1.016742  0
H  H14  1  0.36375834  0.54152367  0.88008793  1  0  0.100672  0  0.98105  0  0  0.110803  0  1.043553  0  0  0.112719  0  1.045046  0  0  0.102487  0.109415  0  1.042556  0
H  H15  1  0.63623827  0.45847963  0.11991255  1  0  0.100711  0  0.981013  0  0  0.11081  0  1.043552  0  0  0.112726  0  1.045046  0  0  0.10248  0.109425  0  1.042559  0
H  H16  1  0.54977395  0.30677488  0.09785466  1  0  0.109395  0  0.955243  0  0  0.119467  0  1.016816  0  0  0.122465  0  1.016276  0  0  0.108014  0.117503  0  1.01678  0
H  H17  1  0.45022481  0.69322841  0.90214502  1  0  0.109356  0  0.955267  0  0  0.119418  0  1.016862  0  0  0.122415  0  1.016322  0  0  0.10799  0.117448  0  1.016825  0
H  H18  1  0.19284086  0.45705381  0.23521570  1  0  0.078115  0  1.037243  0  0  0.077973  0  1.12007  0  0  0.080656  0  1.120126  0  0  0.083108  0.07617  0  1.119906  0
H  H19  1  0.80715273  0.54294853  0.76478826  1  0  0.07801  0  1.037405  0  0  0.077866  0  1.120273  0  0  0.080548  0  1.120333  0  0  0.083087  0.076088  0  1.120079  0
H  H20  1  0.46029788  0.69776386  0.31720246  1  0  0.081047  0  0.991119  0  0  0.090328  0  1.055666  0  0  0.091425  0  1.058031  0  0  0.092092  0.0895  0  1.053968  0
H  H21  1  0.53970023  0.30223747  0.68280058  1  0  0.081065  0  0.991146  0  0  0.090325  0  1.055712  0  0  0.091423  0  1.058075  0  0  0.092115  0.089499  0  1.054012  0
H  H22  1  0.28397025  0.46656228  0.65613814  1  0  0.080723  0  0.968756  0  0  0.093535  0  1.028141  0  0  0.095557  0  1.027487  0  0  0.097105  0.092053  0  1.028612  0
H  H23  1  0.71602841  0.53343612  0.34385817  1  0  0.080677  0  0.968674  0  0  0.093492  0  1.028089  0  0  0.095517  0  1.027428  0  0  0.09704  0.092005  0  1.028553  0
H  H24  1  0.20089788  0.27365827  0.66779374  1  0  0.105125  0  0.94654  0  0  0.118422  0  1.001645  0  0  0.121643  0  0.99952  0  0  0.109636  0.115943  0  1.003645  0
H  H25  1  0.79910130  0.72634306  0.33220795  1  0  0.105159  0  0.946534  0  0  0.118458  0  1.001638  0  0  0.121678  0  0.99951  0  0  0.109649  0.115976  0  1.003636  0
H  H26  1  0.35310804  0.49379095  0.33663158  1  0  0.084549  0  0.948585  0  0  0.097182  0  1.006596  0  0  0.099757  0  1.004836  0  0  0.096959  0.095407  0  1.007794  0
H  H27  1  0.64688811  0.50620941  0.66337107  1  0  0.084595  0  0.948539  0  0  0.097199  0  1.006582  0  0  0.099787  0  1.004806  0  0  0.096966  0.095425  0  1.007777  0
H  H28  1  0.66479782  0.98752049  0.56453722  1  0  0.084559  0  1.01383  0  0  0.092032  0  1.083576  0  0  0.094394  0  1.083942  0  0  0.092598  0.090555  0  1.082831  0
H  H29  1  0.33519979  0.01247791  0.43546359  1  0  0.084558  0  1.013949  0  0  0.092026  0  1.0837  0  0  0.094386  0  1.084068  0  0  0.092621  0.090549  0  1.082956  0
H  H30  1  0.31279911  0.31296317  0.51589052  1  0  0.096946  0  0.971222  0  0  0.10351  0  1.036821  0  0  0.10708  0  1.03505  0  0  0.096241  0.101056  0  1.038004  0
H  H31  1  0.68719790  0.68703817  0.48411073  1  0  0.096974  0  0.971255  0  0  0.103569  0  1.036813  0  0  0.107138  0  1.035044  0  0  0.096282  0.101112  0  1.038  0
H  H32  1  0.54878864  0.16894917  0.46720981  1  0  0.086794  0  0.953507  0  0  0.097737  0  1.015734  0  0  0.100155  0  1.01462  0  0  0.100658  0.095738  0  1.016981  0
H  H33  1  0.45120573  0.83104925  0.53279063  1  0  0.086873  0  0.953399  0  0  0.09774  0  1.015694  0  0  0.100157  0  1.014581  0  0  0.100666  0.095742  0  1.01694  0
H  H34  1  0.80961973  0.99909362  0.71947282  1  0  0.09133  0  0.9998  0  0  0.096487  0  1.069678  0  0  0.099255  0  1.069863  0  0  0.093717  0.094507  0  1.069567  0
H  H35  1  0.19038524  0.00090572  0.28052731  1  0  0.091244  0  0.999857  0  0  0.096417  0  1.069719  0  0  0.099187  0  1.069902  0  0  0.093692  0.094443  0  1.069601  0
H  H36  1  0.20741364  0.80878610  0.50621446  1  0  0.098242  0  0.959894  0  0  0.10807  0  1.022737  0  0  0.110871  0  1.020773  0  0  0.104682  0.106051  0  1.024248  0
H  H37  1  0.79258741  0.19121130  0.49378677  1  0  0.098164  0  0.959967  0  0  0.108017  0  1.02278  0  0  0.110817  0  1.020819  0  0  0.104662  0.106  0  1.024296  0
H  H38  1  0.02671507  0.10224849  0.67910662  1  0  0.100985  0  0.930404  0  0  0.112102  0  0.986953  0  0  0.115133  0  0.985016  0  0  0.108146  0.109847  0  0.988201  0
H  H39  1  0.97328944  0.89774791  0.32089567  1  0  0.101005  0  0.930291  0  0  0.112067  0  0.986896  0  0  0.115096  0  0.984964  0  0  0.10814  0.109807  0  0.988141  0
H  H40  1  0.10241807  0.53863448  0.46578241  1  0  0.395669  0  0.890069  0  0  0.363288  0  0.971917  0  0  0.376121  0  0.95785  0  0  0.303493  0.354189  0  0.981964  0
H  H41  1  0.89758108  0.46136685  0.53421614  1  0  0.395656  0  0.890116  0  0  0.363302  0  0.971928  0  0  0.376135  0  0.95786  0  0  0.303484  0.354206  0  0.981972  0
H  H42  1  0.22590848  0.01136640  0.56953645  1  0  0.088166  0  0.979415  0  0  0.098059  0  1.044006  0  0  0.099561  0  1.045777  0  0  0.096485  0.097167  0  1.042597  0
H  H43  1  0.77409366  0.98863100  0.43046469  1  0  0.088163  0  0.979411  0  0  0.098071  0  1.043986  0  0  0.099562  0  1.045769  0  0  0.09648  0.09718  0  1.042573  0
C  C44  1  0.06714688  0.82176971  0.87988735  1  0  0.720845  0  3.84735  0  0  0.674341  0  4.1355  0  0  0.710704  0  4.123344  0  0  0.228698  0.649445  0  4.142717  0
C  C45  1  0.93286407  0.17822667  0.12010939  1  0  0.720542  0  3.847617  0  0  0.674192  0  4.135463  0  0  0.710553  0  4.12331  0  0  0.228686  0.649291  0  4.142696  0
C  C46  1  0.21268716  0.86875533  0.08373148  1  0  0.706708  0  3.843421  0  0  0.658998  0  4.127671  0  0  0.69521  0  4.116091  0  0  0.21754  0.634226  0  4.134675  0
C  C47  1  0.78731263  0.13124306  0.91627103  1  0  0.706758  0  3.843383  0  0  0.659066  0  4.127613  0  0  0.695272  0  4.116031  0  0  0.217587  0.634293  0  4.134618  0
C  C48  1  0.12266498  0.72047334  0.81925515  1  0  -0.113802  0  3.708886  0  0  -0.097339  0  3.94144  0  0  -0.105801  0  3.961573  0  0  -0.022251  -0.091266  0  3.92772  0
C  C49  1  0.87734428  0.27952599  0.18074022  1  0  -0.113824  0  3.709137  0  0  -0.097258  0  3.941412  0  0  -0.10572  0  3.96154  0  0  -0.022199  -0.091191  0  3.927712  0
C  C50  1  0.25201043  0.76035737  0.15055926  1  0  -0.105895  0  3.704945  0  0  -0.08597  0  3.932646  0  0  -0.095049  0  3.95388  0  0  -0.018358  -0.079996  0  3.918735  0
C  C51  1  0.74798553  0.23964397  0.84944521  1  0  -0.105867  0  3.704841  0  0  -0.085945  0  3.932549  0  0  -0.095008  0  3.953765  0  0  -0.018345  -0.079964  0  3.918644  0
C  C52  1  0.06116860  0.60693726  0.82133177  1  0  0.042201  0  3.715681  0  0  0.054315  0  3.970435  0  0  0.058268  0  3.99165  0  0  -0.002716  0.051292  0  3.956116  0
C  C53  1  0.93883722  0.39306307  0.17866380  1  0  0.042061  0  3.715816  0  0  0.054154  0  3.970529  0  0  0.058113  0  3.991734  0  0  -0.002806  0.051121  0  3.956224  0
C  C54  1  0.24392649  0.73817830  0.75966729  1  0  -0.057587  0  3.748921  0  0  -0.08048  0  4.00123  0  0  -0.0787  0  4.020457  0  0  -0.084081  -0.081804  0  3.987911  0
C  C55  1  0.75607906  0.26181810  0.24032925  1  0  -0.05749  0  3.748851  0  0  -0.08044  0  4.00117  0  0  -0.078661  0  4.020398  0  0  -0.084086  -0.081762  0  3.987854  0
C  C56  1  0.30678041  0.10515238  0.79080801  1  0  0.633827  0  3.929956  0  0  0.589099  0  4.21653  0  0  0.623237  0  4.208779  0  0  0.185331  0.566073  0  4.220817  0
C  C57  1  0.69321788  0.89484797  0.20919195  1  0  0.633942  0  3.929799  0  0  0.589194  0  4.216385  0  0  0.623335  0  4.208634  0  0  0.185358  0.566172  0  4.220662  0
C  C58  1  0.31547887  0.35045992  0.91450981  1  0  0.126934  0  3.752757  0  0  0.098314  0  4.011044  0  0  0.104657  0  4.029863  0  0  0.040132  0.094572  0  3.996624  0
C  C59  1  0.68452008  0.64954239  0.08548868  1  0  0.126939  0  3.752781  0  0  0.098328  0  4.01106  0  0  0.104671  0  4.029882  0  0  0.040154  0.09459  0  3.996642  0
C  C60  1  0.41321674  0.22575197  0.03010806  1  0  0.162793  0  3.690113  0  0  0.129873  0  3.956737  0  0  0.138794  0  3.970617  0  0  0.0585  0.124042  0  3.946744  0
C  C61  1  0.58678222  0.77425034  0.96989106  1  0  0.162839  0  3.690105  0  0  0.129905  0  3.956756  0  0  0.138827  0  3.970638  0  0  0.05851  0.124074  0  3.946765  0
C  C62  1  0.19360198  0.64397210  0.16095431  1  0  0.054225  0  3.716143  0  0  0.068051  0  3.966719  0  0  0.072024  0  3.988222  0  0  -0.002339  0.065515  0  3.951757  0
C  C63  1  0.80639120  0.35603219  0.83904890  1  0  0.054149  0  3.716028  0  0  0.067969  0  3.966646  0  0  0.071936  0  3.988148  0  0  -0.002359  0.065419  0  3.95171  0
C  C64  1  0.35088499  0.77631546  0.20572822  1  0  -0.051166  0  3.714338  0  0  -0.073413  0  3.961903  0  0  -0.072103  0  3.982117  0  0  -0.082155  -0.074984  0  3.948853  0
C  C65  1  0.64911075  0.22368686  0.79427493  1  0  -0.051166  0  3.714291  0  0  -0.073375  0  3.961854  0  0  -0.07207  0  3.982065  0  0  -0.082138  -0.074943  0  3.948807  0
C  C66  1  0.12020472  0.51723578  0.76114391  1  0  -0.132163  0  3.757059  0  0  -0.149304  0  4.006503  0  0  -0.153712  0  4.027312  0  0  -0.100737  -0.14678  0  3.992468  0
C  C67  1  0.87979766  0.48276553  0.23885312  1  0  -0.13215  0  3.757137  0  0  -0.149306  0  4.006592  0  0  -0.15372  0  4.027406  0  0  -0.100709  -0.146765  0  3.992541  0
C  C68  1  0.30285185  0.64791700  0.70129414  1  0  -0.089048  0  3.799011  0  0  -0.103403  0  4.054089  0  0  -0.107369  0  4.076086  0  0  -0.098537  -0.100279  0  4.038296  0
C  C69  1  0.69715322  0.35207647  0.29870331  1  0  -0.089119  0  3.799122  0  0  -0.103484  0  4.054209  0  0  -0.10745  0  4.076205  0  0  -0.098597  -0.100364  0  4.038421  0
C  C70  1  0.37144588  0.11390310  0.70050576  1  0  -0.101654  0  3.737659  0  0  -0.08205  0  3.966929  0  0  -0.090231  0  3.98817  0  0  -0.020217  -0.077198  0  3.952623  0
C  C71  1  0.62855113  0.88609824  0.29949485  1  0  -0.101777  0  3.737667  0  0  -0.082149  0  3.966925  0  0  -0.090332  0  3.988167  0  0  -0.020237  -0.077291  0  3.952607  0
C  C72  1  0.38111493  0.45415487  0.92497232  1  0  -0.145879  0  3.684599  0  0  -0.163861  0  3.93167  0  0  -0.171686  0  3.954272  0  0  -0.08194  -0.158934  0  3.916178  0
C  C73  1  0.61888275  0.54584843  0.07502682  1  0  -0.145928  0  3.684566  0  0  -0.163909  0  3.931594  0  0  -0.171736  0  3.954195  0  0  -0.081916  -0.158997  0  3.916116  0
C  C74  1  0.48317793  0.32509545  0.04488183  1  0  -0.147283  0  3.652616  0  0  -0.167341  0  3.905113  0  0  -0.175075  0  3.925653  0  0  -0.077284  -0.161359  0  3.88983  0
C  C75  1  0.51682083  0.67490784  0.95511785  1  0  -0.147204  0  3.65268  0  0  -0.16728  0  3.905144  0  0  -0.175017  0  3.925689  0  0  -0.077238  -0.161292  0  3.889847  0
C  C76  1  0.23391748  0.54850459  0.22762039  1  0  -0.133269  0  3.78112  0  0  -0.150985  0  4.031753  0  0  -0.156053  0  4.054263  0  0  -0.105006  -0.148122  0  4.016561  0
C  C77  1  0.76607524  0.45149677  0.77238498  1  0  -0.133135  0  3.781265  0  0  -0.150869  0  4.031874  0  0  -0.155935  0  4.054386  0  0  -0.105013  -0.148023  0  4.016679  0
C  C78  1  0.38659903  0.68249854  0.27340537  1  0  -0.08564  0  3.77239  0  0  -0.097778  0  4.021218  0  0  -0.102028  0  4.044382  0  0  -0.099625  -0.094461  0  4.0052  0
C  C79  1  0.61339455  0.31750379  0.72659670  1  0  -0.085663  0  3.772403  0  0  -0.09781  0  4.021243  0  0  -0.102059  0  4.04441  0  0  -0.099648  -0.094496  0  4.005229  0
C  C80  1  0.23937016  0.53787284  0.70186113  1  0  -0.039008  0  3.759467  0  0  -0.055243  0  4.010406  0  0  -0.054627  0  4.03117  0  0  -0.088225  -0.054606  0  3.995159  0
C  C81  1  0.76063322  0.46212358  0.29813496  1  0  -0.038861  0  3.759425  0  0  -0.055105  0  4.010355  0  0  -0.054489  0  4.031124  0  0  -0.088121  -0.054458  0  3.995097  0
C  C82  1  0.50212297  0.02898582  0.67194953  1  0  0.035114  0  3.723658  0  0  0.049194  0  3.974205  0  0  0.052197  0  3.996808  0  0  6.1e-05  0.047225  0  3.958594  0
C  C83  1  0.49787425  0.97101454  0.32805240  1  0  0.035132  0  3.723702  0  0  0.049207  0  3.97423  0  0  0.05221  0  3.996835  0  0  4.8e-05  0.047229  0  3.958628  0
C  C84  1  0.30382211  0.21362450  0.64343325  1  0  -0.061455  0  3.742893  0  0  -0.084942  0  3.993445  0  0  -0.08309  0  4.010928  0  0  -0.081714  -0.086056  0  3.981859  0
C  C85  1  0.69617511  0.78637586  0.35656868  1  0  -0.061377  0  3.742827  0  0  -0.084877  0  3.993383  0  0  -0.083023  0  4.010865  0  0  -0.081692  -0.085986  0  3.981783  0
C  C86  1  0.46621627  0.44464076  0.99264479  1  0  0.096338  0  3.73094  0  0  0.106709  0  3.964098  0  0  0.110747  0  3.985231  0  0  0.013239  0.104143  0  3.94877  0
C  C87  1  0.53378161  0.55536155  0.00735504  1  0  0.096308  0  3.730997  0  0  0.1068  0  3.964037  0  0  0.110841  0  3.985169  0  0  0.013201  0.104238  0  3.948705  0
C  C88  1  0.32722311  0.56869500  0.28404344  1  0  -0.029488  0  3.755716  0  0  -0.043653  0  4.001411  0  0  -0.042395  0  4.02086  0  0  -0.084946  -0.044448  0  3.988099  0
C  C89  1  0.67277088  0.43130537  0.71596064  1  0  -0.029459  0  3.755617  0  0  -0.043571  0  4.001263  0  0  -0.042321  0  4.02071  0  0  -0.084875  -0.044361  0  3.987952  0
C  C90  1  0.56441176  0.05183192  0.58757263  1  0  -0.13299  0  3.786746  0  0  -0.15172  0  4.034561  0  0  -0.156572  0  4.057718  0  0  -0.099964  -0.148136  0  4.017646  0
C  C91  1  0.43558437  0.94816845  0.41242813  1  0  -0.132927  0  3.787051  0  0  -0.151644  0  4.03479  0  0  -0.156493  0  4.057949  0  0  -0.099908  -0.148062  0  4.017881  0
C  C92  1  0.36627394  0.23533797  0.55976370  1  0  -0.10167  0  3.789715  0  0  -0.118636  0  4.049863  0  0  -0.121575  0  4.068619  0  0  -0.10257  -0.1164  0  4.036618  0
C  C93  1  0.63372240  0.76466142  0.44023838  1  0  -0.101783  0  3.789859  0  0  -0.118778  0  4.049997  0  0  -0.121718  0  4.068753  0  0  -0.102624  -0.116541  0  4.036749  0
C  C94  1  0.49814300  0.15421668  0.53264726  1  0  -0.041704  0  3.772221  0  0  -0.055134  0  4.021788  0  0  -0.053884  0  4.040744  0  0  -0.085389  -0.055477  0  4.008141  0
C  C95  1  0.50185204  0.84578369  0.46735296  1  0  -0.041826  0  3.772465  0  0  -0.05518  0  4.022014  0  0  -0.053927  0  4.040968  0  0  -0.08547  -0.055523  0  4.008365  0
C  C96  1  0.88469717  0.84397739  0.63756884  1  0  0.054978  0  3.708317  0  0  0.065855  0  3.963633  0  0  0.071048  0  3.985926  0  0  0.002343  0.062084  0  3.94847  0
C  C97  1  0.11530456  0.15602196  0.36243155  1  0  0.055029  0  3.708372  0  0  0.065934  0  3.963651  0  0  0.071123  0  3.985942  0  0  0.002358  0.062169  0  3.948488  0
C  C98  1  0.00067268  0.78843926  0.57786158  1  0  -0.137831  0  3.757521  0  0  -0.118944  0  3.992852  0  0  -0.131554  0  4.018553  0  0  -0.024596  -0.110491  0  3.97592  0
C  C99  1  0.99932493  0.21155914  0.42213985  1  0  -0.13786  0  3.757582  0  0  -0.119013  0  3.992923  0  0  -0.131613  0  4.018608  0  0  -0.024677  -0.110562  0  3.976009  0
C  C100  1  0.89720884  0.95707699  0.67277986  1  0  -0.120544  0  3.743897  0  0  -0.138655  0  3.993876  0  0  -0.144599  0  4.015564  0  0  -0.095405  -0.134519  0  3.978388  0
C  C101  1  0.10279359  0.04292432  0.32722220  1  0  -0.120535  0  3.744079  0  0  -0.138656  0  3.994003  0  0  -0.1446  0  4.015693  0  0  -0.095394  -0.134528  0  3.978509  0
C  C102  1  0.99915160  0.66512663  0.54272216  1  0  0.658516  0  3.799606  0  0  0.604883  0  4.097151  0  0  0.6396  0  4.088625  0  0  0.23348  0.580922  0  4.102736  0
C  C103  1  0.00085363  0.33487663  0.45727574  1  0  0.658586  0  3.799466  0  0  0.604982  0  4.096973  0  0  0.639697  0  4.088443  0  0  0.233628  0.581024  0  4.10256  0
C  C104  1  0.12131299  0.85155634  0.55333136  1  0  -0.044624  0  3.734953  0  0  -0.069871  0  3.984684  0  0  -0.067347  0  4.005505  0  0  -0.07849  -0.072092  0  3.971317  0
C  C105  1  0.87868876  0.14844302  0.44667028  1  0  -0.044538  0  3.735108  0  0  -0.069792  0  3.984821  0  0  -0.067267  0  4.005635  0  0  -0.078448  -0.07202  0  3.971473  0
C  C106  1  0.01937852  0.01570689  0.64924459  1  0  -0.003138  0  3.702582  0  0  -0.020594  0  3.955037  0  0  -0.017448  0  3.972092  0  0  -0.070599  -0.021308  0  3.942051  0
C  C107  1  0.98062362  0.98429051  0.35075719  1  0  -0.003106  0  3.702539  0  0  -0.020515  0  3.954979  0  0  -0.017371  0  3.972033  0  0  -0.070577  -0.021218  0  3.941972  0
C  C108  1  0.13134410  0.96405012  0.58831170  1  0  -0.091121  0  3.766101  0  0  -0.108138  0  4.026125  0  0  -0.113295  0  4.049146  0  0  -0.097882  -0.105091  0  4.010361  0
C  C109  1  0.86866000  0.03594824  0.41168984  1  0  -0.091155  0  3.766183  0  0  -0.108186  0  4.026195  0  0  -0.113332  0  4.049222  0  0  -0.097901  -0.105138  0  4.010424  0
S  S110  1  0.91555563  0.58002124  0.90160019  1  0  0.049162  0  2.612237  0  0  0.042585  0  3.001942  0  0  0.042671  0  3.003227  0  0  0.057892  0.042343  0  3.000343  0
S  S111  1  0.08444743  0.41998203  0.09839663  1  0  0.049264  0  2.612191  0  0  0.042675  0  3.001937  0  0  0.042761  0  3.003219  0  0  0.057914  0.042438  0  3.000331  0
S  S112  1  0.07807380  0.61833191  0.08691798  1  0  -0.02637  0  2.594947  0  0  -0.034261  0  2.979405  0  0  -0.035222  0  2.979806  0  0  0.044571  -0.034249  0  2.977648  0
S  S113  1  0.92192517  0.38167040  0.91308303  1  0  -0.026359  0  2.59488  0  0  -0.034239  0  2.979334  0  0  -0.035196  0  2.979738  0  0  0.044568  -0.034221  0  2.977589  0
S  S114  1  0.58360059  0.89764652  0.74360893  1  0  0.052476  0  2.487165  0  0  0.046601  0  2.860536  0  0  0.048872  0  2.856311  0  0  0.067352  0.045007  0  2.863459  0
S  S115  1  0.41639770  0.10235383  0.25639165  1  0  0.052506  0  2.487149  0  0  0.04662  0  2.860535  0  0  0.048891  0  2.856311  0  0  0.067355  0.045031  0  2.863466  0
S  S116  1  0.72351716  0.77464605  0.66356597  1  0  0.01293  0  2.495921  0  0  0.006912  0  2.87285  0  0  0.005555  0  2.870267  0  0  0.048405  0.007837  0  2.87446  0
S  S117  1  0.27648222  0.22535430  0.33643516  1  0  0.012914  0  2.495949  0  0  0.006879  0  2.872868  0  0  0.00552  0  2.870287  0  0  0.048401  0.007802  0  2.874484  0
N  N118  1  0.32777064  0.23802548  0.96663059  1  0  -0.429393  0  3.253389  0  0  -0.373651  0  3.527337  0  0  -0.389103  0  3.543878  0  0  -0.394075  -0.362721  0  3.515359  0
N  N119  1  0.67223088  0.76197486  0.03336910  1  0  -0.429386  0  3.253421  0  0  -0.373643  0  3.527377  0  0  -0.389095  0  3.54392  0  0  -0.394086  -0.362714  0  3.515399  0
O  O120  1  0.94256798  0.81963971  0.92427733  1  0  -0.726641  0  2.096485  0  0  -0.671316  0  2.353668  0  0  -0.699245  0  2.34611  0  0  -0.382194  -0.652247  0  2.357387  0
O  O121  1  0.05744048  0.18036353  0.07571842  1  0  -0.726431  0  2.096422  0  0  -0.671246  0  2.353637  0  0  -0.699172  0  2.346081  0  0  -0.382159  -0.652173  0  2.357362  0
O  O122  1  0.91659152  0.10937881  0.94147699  1  0  -0.830165  0  2.228479  0  0  -0.760784  0  2.485512  0  0  -0.788415  0  2.475294  0  0  -0.43673  -0.740894  0  2.489241  0
O  O123  1  0.08341080  0.89061761  0.05852107  1  0  -0.830111  0  2.228487  0  0  -0.760749  0  2.485562  0  0  -0.788372  0  2.475318  0  0  -0.436697  -0.740868  0  2.489309  0
O  O124  1  0.14817734  0.90408541  0.88362753  1  0  -0.723715  0  2.111627  0  0  -0.669837  0  2.36321  0  0  -0.696459  0  2.355163  0  0  -0.404601  -0.650808  0  2.367989  0
O  O125  1  0.85183789  0.09590605  0.11637240  1  0  -0.723577  0  2.111677  0  0  -0.669722  0  2.363123  0  0  -0.696346  0  2.355077  0  0  -0.404634  -0.65069  0  2.367905  0
O  O126  1  0.30427387  0.94095766  0.05160640  1  0  -0.654677  0  1.952734  0  0  -0.604172  0  2.192569  0  0  -0.628475  0  2.183761  0  0  -0.369685  -0.587631  0  2.198128  0
O  O127  1  0.69572591  0.05904073  0.94839549  1  0  -0.654694  0  1.95274  0  0  -0.604236  0  2.192615  0  0  -0.628539  0  2.18381  0  0  -0.369718  -0.587695  0  2.198172  0
O  O128  1  0.38051039  0.03228331  0.84666462  1  0  -0.644881  0  2.010419  0  0  -0.593341  0  2.253709  0  0  -0.618443  0  2.246047  0  0  -0.343147  -0.575436  0  2.258352  0
O  O129  1  0.61948878  0.96771802  0.15333582  1  0  -0.644956  0  2.010392  0  0  -0.593413  0  2.253695  0  0  -0.61852  0  2.246034  0  0  -0.343189  -0.575512  0  2.258337  0
O  O130  1  0.17903758  0.17302343  0.81175750  1  0  -0.713359  0  2.010998  0  0  -0.670818  0  2.263131  0  0  -0.695898  0  2.255083  0  0  -0.403411  -0.65286  0  2.267514  0
O  O131  1  0.82095983  0.82697595  0.18824324  1  0  -0.713379  0  2.010963  0  0  -0.670834  0  2.263118  0  0  -0.695901  0  2.255035  0  0  -0.403395  -0.652873  0  2.267488  0
O  O132  1  0.89873375  0.60084878  0.56621260  1  0  -0.571545  0  2.03334  0  0  -0.510052  0  2.252536  0  0  -0.534129  0  2.244447  0  0  -0.27595  -0.493509  0  2.258002  0
O  O133  1  0.10126019  0.39915160  0.43378520  1  0  -0.571522  0  2.033564  0  0  -0.509982  0  2.252721  0  0  -0.534057  0  2.244629  0  0  -0.27594  -0.493439  0  2.258184  0
O  O134  1  0.11130977  0.62598901  0.48527926  1  0  -0.532325  0  2.087117  0  0  -0.478844  0  2.297081  0  0  -0.500427  0  2.282447  0  0  -0.325053  -0.463893  0  2.307065  0
O  O135  1  0.88868852  0.37401134  0.51472196  1  0  -0.532409  0  2.086866  0  0  -0.478983  0  2.296834  0  0  -0.500567  0  2.282197  0  0  -0.325162  -0.464033  0  2.306818  0
