# generated using pymatgen
data_AgH7C6IN
_symmetry_space_group_name_H-M   'P 1'
_cell_length_a   4.49595887
_cell_length_b   10.61039275
_cell_length_c   16.09861136
_cell_angle_alpha   89.99971528
_cell_angle_beta   90.00006271
_cell_angle_gamma   90.00008154
_symmetry_Int_Tables_number   1
_chemical_formula_structural   AgH7C6IN
_chemical_formula_sum   'Ag4 H28 C24 I4 N4'
_cell_volume   767.96637609
_cell_formula_units_Z   4
loop_
 _symmetry_equiv_pos_site_id
 _symmetry_equiv_pos_as_xyz
  1  'x, y, z'
loop_
 _atom_site_type_symbol
 _atom_site_label
 _atom_site_symmetry_multiplicity
 _atom_site_fract_x
 _atom_site_fract_y
 _atom_site_fract_z
 _atom_site_occupancy
 _atom_site_hle17_bader_spin_density
 _atom_site_hle17_ddec_charge
 _atom_site_hle17_ddec_spin_density
 _atom_site_hle17_ddec_sum_bond_order
 _atom_site_hle17_magmom
 _atom_site_hse06_10hf_bader_spin_density
 _atom_site_hse06_10hf_ddec_charge
 _atom_site_hse06_10hf_ddec_spin_density
 _atom_site_hse06_10hf_ddec_sum_bond_order
 _atom_site_hse06_10hf_magmom
 _atom_site_hse06_bader_spin_density
 _atom_site_hse06_ddec_charge
 _atom_site_hse06_ddec_spin_density
 _atom_site_hse06_ddec_sum_bond_order
 _atom_site_hse06_magmom
 _atom_site_pbe_bader_spin_density
 _atom_site_pbe_cm5_charge
 _atom_site_pbe_ddec_charge
 _atom_site_pbe_ddec_spin_density
 _atom_site_pbe_ddec_sum_bond_order
 _atom_site_pbe_magmom
Ag  Ag0  1  0.38164337  0.90540388  0.74136629  1  0  0.293788  0  1.904833  0  0  0.195197  0  2.405282  0  0  0.221173  0  2.356765  0  0  0.227782  0.177753  0  2.438392  0
Ag  Ag1  1  0.88163096  0.09459608  0.75863686  1  0  0.293759  0  1.90493  0  0  0.195185  0  2.405376  0  0  0.221154  0  2.356865  0  0  0.227795  0.177739  0  2.438484  0
Ag  Ag2  1  0.61837011  0.59459363  0.24136408  1  0  0.293802  0  1.904821  0  0  0.195217  0  2.405273  0  0  0.221193  0  2.356756  0  0  0.227811  0.177777  0  2.438378  0
Ag  Ag3  1  0.11837413  0.40540344  0.25863286  1  0  0.293799  0  1.904854  0  0  0.195203  0  2.405306  0  0  0.221177  0  2.356791  0  0  0.227814  0.177756  0  2.438415  0
H  H4  1  0.64331735  0.57344830  0.49468534  1  0  0.102521  0  0.976917  0  0  0.112426  0  1.040213  0  0  0.115104  0  1.04008  0  0  0.092096  0.110186  0  1.041042  0
H  H5  1  0.14330724  0.42655068  0.00531968  1  0  0.102529  0  0.976937  0  0  0.112443  0  1.040224  0  0  0.11512  0  1.040092  0  0  0.092082  0.110203  0  1.04105  0
H  H6  1  0.35668142  0.92654726  0.99467754  1  0  0.102421  0  0.97685  0  0  0.112342  0  1.040168  0  0  0.115019  0  1.040038  0  0  0.09204  0.110107  0  1.040988  0
H  H7  1  0.85669032  0.07345834  0.50532188  1  0  0.102419  0  0.97685  0  0  0.112346  0  1.040162  0  0  0.115023  0  1.040033  0  0  0.092058  0.110123  0  1.040973  0
H  H8  1  0.33035831  0.39651675  0.55028974  1  0  0.087213  0  0.965668  0  0  0.102049  0  1.021524  0  0  0.104208  0  1.020183  0  0  0.09851  0.101261  0  1.020878  0
H  H9  1  0.83035725  0.60347847  0.94971401  1  0  0.087207  0  0.965631  0  0  0.10206  0  1.021463  0  0  0.104211  0  1.020143  0  0  0.098539  0.101272  0  1.020818  0
H  H10  1  0.66963050  0.10348061  0.05028752  1  0  0.087177  0  0.96573  0  0  0.102032  0  1.021552  0  0  0.104182  0  1.020233  0  0  0.098527  0.101244  0  1.020905  0
H  H11  1  0.16962579  0.89652309  0.44971316  1  0  0.087164  0  0.965779  0  0  0.102037  0  1.021584  0  0  0.104197  0  1.020238  0  0  0.098552  0.10125  0  1.020939  0
H  H12  1  0.03759568  0.43205679  0.68070213  1  0  0.097729  0  0.971991  0  0  0.106327  0  1.036743  0  0  0.108793  0  1.037133  0  0  0.098661  0.103373  0  1.038932  0
H  H13  1  0.53760518  0.56794486  0.81929904  1  0  0.097718  0  0.972037  0  0  0.106343  0  1.036762  0  0  0.10881  0  1.037149  0  0  0.098687  0.103388  0  1.038951  0
H  H14  1  0.96237356  0.06794805  0.18070446  1  0  0.097613  0  0.972179  0  0  0.106304  0  1.036831  0  0  0.10877  0  1.037219  0  0  0.098702  0.103349  0  1.039017  0
H  H15  1  0.46237075  0.93204545  0.31929508  1  0  0.097614  0  0.972159  0  0  0.106317  0  1.036782  0  0  0.108789  0  1.037177  0  0  0.098697  0.103361  0  1.03897  0
H  H16  1  0.06637313  0.64431823  0.74929653  1  0  0.060383  0  0.984341  0  0  0.065005  0  1.061208  0  0  0.06719  0  1.05972  0  0  0.094243  0.063099  0  1.062579  0
H  H17  1  0.56637275  0.35568061  0.75070217  1  0  0.060339  0  0.984281  0  0  0.064976  0  1.061137  0  0  0.06716  0  1.059651  0  0  0.09424  0.06307  0  1.062506  0
H  H18  1  0.93363148  0.85568111  0.24930291  1  0  0.060343  0  0.984093  0  0  0.065015  0  1.060942  0  0  0.067202  0  1.059451  0  0  0.094228  0.063108  0  1.062312  0
H  H19  1  0.43363009  0.14431238  0.25069538  1  0  0.060372  0  0.984235  0  0  0.06507  0  1.061054  0  0  0.067259  0  1.05956  0  0  0.094262  0.063161  0  1.062423  0
H  H20  1  0.56474300  0.89049193  0.55077662  1  0  0.111503  0  0.974843  0  0  0.13125  0  1.041919  0  0  0.13245  0  1.041983  0  0  0.083535  0.130227  0  1.042084  0
H  H21  1  0.06475329  0.10950879  0.94922394  1  0  0.111496  0  0.974979  0  0  0.13126  0  1.042026  0  0  0.132457  0  1.042091  0  0  0.083536  0.130237  0  1.042187  0
H  H22  1  0.43527872  0.60950234  0.05077429  1  0  0.111359  0  0.974819  0  0  0.131157  0  1.041882  0  0  0.132349  0  1.041953  0  0  0.083539  0.130137  0  1.042041  0
H  H23  1  0.93529026  0.39050057  0.44922027  1  0  0.111329  0  0.974872  0  0  0.131133  0  1.041931  0  0  0.132334  0  1.041994  0  0  0.083519  0.130113  0  1.042091  0
H  H24  1  0.87258834  0.83602821  0.60828979  1  0  0.118536  0  0.959163  0  0  0.133026  0  1.036789  0  0  0.134709  0  1.035486  0  0  0.086822  0.13172  0  1.037626  0
H  H25  1  0.37258974  0.16397457  0.89171025  1  0  0.118565  0  0.959152  0  0  0.133061  0  1.036778  0  0  0.134745  0  1.03547  0  0  0.086828  0.131749  0  1.037617  0
H  H26  1  0.12741356  0.66396938  0.10828967  1  0  0.118528  0  0.95908  0  0  0.133018  0  1.036723  0  0  0.134702  0  1.035418  0  0  0.086827  0.131706  0  1.037563  0
H  H27  1  0.62742471  0.33603335  0.39170416  1  0  0.118598  0  0.958977  0  0  0.133037  0  1.036662  0  0  0.134721  0  1.035359  0  0  0.086838  0.131743  0  1.037488  0
H  H28  1  0.81838384  0.78096466  0.50436973  1  0  0.114074  0  0.966351  0  0  0.133713  0  1.02909  0  0  0.135758  0  1.028321  0  0  0.083213  0.132207  0  1.029378  0
H  H29  1  0.31839023  0.21903526  0.99563154  1  0  0.11408  0  0.966428  0  0  0.133726  0  1.029142  0  0  0.135771  0  1.028372  0  0  0.08321  0.132219  0  1.029427  0
H  H30  1  0.18161326  0.71903280  0.00436386  1  0  0.114013  0  0.966336  0  0  0.133639  0  1.029102  0  0  0.135692  0  1.028323  0  0  0.083223  0.132138  0  1.029381  0
H  H31  1  0.68162457  0.28097374  0.49563186  1  0  0.114136  0  0.966325  0  0  0.133779  0  1.029047  0  0  0.135818  0  1.028285  0  0  0.083235  0.132272  0  1.029333  0
C  C32  1  0.52220898  0.70010106  0.59360359  1  0  0.305361  0  3.711791  0  0  0.316336  0  3.945082  0  0  0.324434  0  3.966872  0  0  0.117054  0.310593  0  3.930394  0
C  C33  1  0.02220868  0.29989869  0.90639944  1  0  0.305441  0  3.711651  0  0  0.316379  0  3.945014  0  0  0.324479  0  3.966798  0  0  0.117113  0.310634  0  3.93032  0
C  C34  1  0.47778842  0.79989476  0.09360191  1  0  0.305487  0  3.712567  0  0  0.316567  0  3.945685  0  0  0.324665  0  3.967469  0  0  0.117161  0.31082  0  3.930994  0
C  C35  1  0.97779691  0.20010629  0.40639515  1  0  0.30538  0  3.712871  0  0  0.316416  0  3.946017  0  0  0.324513  0  3.967809  0  0  0.117103  0.310669  0  3.931335  0
C  C36  1  0.70532912  0.80746578  0.56210943  1  0  -0.371687  0  3.701263  0  0  -0.452794  0  3.932334  0  0  -0.456021  0  3.940096  0  0  -0.249211  -0.450173  0  3.927287  0
C  C37  1  0.20533077  0.19253408  0.93789242  1  0  -0.371729  0  3.701466  0  0  -0.452848  0  3.932525  0  0  -0.456069  0  3.940284  0  0  -0.249226  -0.450229  0  3.927478  0
C  C38  1  0.29469042  0.69254160  0.06211051  1  0  -0.371564  0  3.701492  0  0  -0.452729  0  3.932535  0  0  -0.455952  0  3.940294  0  0  -0.249281  -0.450115  0  3.927483  0
C  C39  1  0.79469940  0.30746406  0.43788524  1  0  -0.371695  0  3.701502  0  0  -0.452819  0  3.932575  0  0  -0.456043  0  3.940342  0  0  -0.249274  -0.450212  0  3.927517  0
C  C40  1  0.51373888  0.58471624  0.55142870  1  0  -0.171356  0  3.715325  0  0  -0.18429  0  3.951273  0  0  -0.192527  0  3.974153  0  0  -0.092163  -0.179442  0  3.936779  0
C  C41  1  0.01372801  0.41528351  0.94857681  1  0  -0.171426  0  3.715551  0  0  -0.184365  0  3.951521  0  0  -0.192603  0  3.974404  0  0  -0.092172  -0.179512  0  3.937012  0
C  C42  1  0.48625616  0.91526766  0.05142790  1  0  -0.171284  0  3.715217  0  0  -0.184258  0  3.951114  0  0  -0.192495  0  3.97399  0  0  -0.092143  -0.179413  0  3.93661  0
C  C43  1  0.98625549  0.08473811  0.44857040  1  0  -0.171328  0  3.715296  0  0  -0.184309  0  3.951228  0  0  -0.192546  0  3.974103  0  0  -0.092209  -0.179475  0  3.936727  0
C  C44  1  0.33961350  0.48694966  0.58219981  1  0  -0.007211  0  3.753701  0  0  -0.025448  0  3.999217  0  0  -0.021633  0  4.017684  0  0  -0.075398  -0.027609  0  3.985384  0
C  C45  1  0.83961424  0.51304462  0.91780333  1  0  -0.007126  0  3.753546  0  0  -0.025367  0  3.999073  0  0  -0.021551  0  4.017531  0  0  -0.075407  -0.027528  0  3.985236  0
C  C46  1  0.66039766  0.01304840  0.08219911  1  0  -0.007186  0  3.753188  0  0  -0.025439  0  3.998771  0  0  -0.021619  0  4.017224  0  0  -0.075443  -0.027602  0  3.984936  0
C  C47  1  0.16039094  0.98695153  0.41780095  1  0  -0.007033  0  3.753498  0  0  -0.025299  0  3.999033  0  0  -0.021475  0  4.01749  0  0  -0.075414  -0.027462  0  3.98521  0
C  C48  1  0.17594223  0.50624928  0.65457866  1  0  -0.128594  0  3.76125  0  0  -0.139485  0  4.007543  0  0  -0.146852  0  4.030207  0  0  -0.092892  -0.134578  0  3.993154  0
C  C49  1  0.67592487  0.49374679  0.84541945  1  0  -0.128647  0  3.761185  0  0  -0.139576  0  4.007506  0  0  -0.146942  0  4.030164  0  0  -0.092939  -0.134669  0  3.993116  0
C  C50  1  0.82404871  0.99375361  0.15458083  1  0  -0.128445  0  3.761468  0  0  -0.139437  0  4.007805  0  0  -0.146802  0  4.030463  0  0  -0.092918  -0.134528  0  3.993411  0
C  C51  1  0.32403159  0.00624546  0.34542549  1  0  -0.128642  0  3.761825  0  0  -0.139633  0  4.008168  0  0  -0.147012  0  4.030842  0  0  -0.092953  -0.134721  0  3.993774  0
C  C52  1  0.19333368  0.62334282  0.69307186  1  0  0.116062  0  3.731504  0  0  0.090289  0  3.977818  0  0  0.096826  0  3.99678  0  0  0.032948  0.086751  0  3.963715  0
C  C53  1  0.69334468  0.37665703  0.80693061  1  0  0.116094  0  3.731796  0  0  0.090319  0  3.978104  0  0  0.096856  0  3.997069  0  0  0.032925  0.086781  0  3.963997  0
C  C54  1  0.80664849  0.87666637  0.19306757  1  0  0.116036  0  3.731253  0  0  0.090203  0  3.977658  0  0  0.096737  0  3.996619  0  0  0.032942  0.086667  0  3.963545  0
C  C55  1  0.30665835  0.12333081  0.30692943  1  0  0.116187  0  3.731246  0  0  0.090306  0  3.977628  0  0  0.096843  0  3.99659  0  0  0.032956  0.08677  0  3.963521  0
I  I56  1  0.88137448  0.86680936  0.85179770  1  0  -0.389462  0  1.532286  0  0  -0.318706  0  1.967455  0  0  -0.339646  0  1.93394  0  0  -0.168946  -0.304351  0  1.991633  0
I  I57  1  0.38136826  0.13320002  0.64820359  1  0  -0.389458  0  1.532136  0  0  -0.318702  0  1.967282  0  0  -0.339643  0  1.933768  0  0  -0.168974  -0.304349  0  1.991461  0
I  I58  1  0.11862825  0.63319484  0.35179830  1  0  -0.389492  0  1.532147  0  0  -0.318735  0  1.967295  0  0  -0.339679  0  1.933782  0  0  -0.168981  -0.304385  0  1.99147  0
I  I59  1  0.61862533  0.36680318  0.14819988  1  0  -0.389476  0  1.532221  0  0  -0.318722  0  1.967377  0  0  -0.339661  0  1.933863  0  0  -0.168977  -0.304367  0  1.991549  0
N  N60  1  0.36259246  0.71818584  0.66382139  1  0  -0.338821  0  3.217803  0  0  -0.264881  0  3.479614  0  0  -0.283945  0  3.496613  0  0  -0.336241  -0.250996  0  3.466656  0
N  N61  1  0.86259211  0.28181410  0.83617679  1  0  -0.338854  0  3.217939  0  0  -0.264908  0  3.479769  0  0  -0.283974  0  3.496769  0  0  -0.336267  -0.251026  0  3.46681  0
N  N62  1  0.63739628  0.78181038  0.16382417  1  0  -0.338803  0  3.217483  0  0  -0.264882  0  3.479256  0  0  -0.283956  0  3.496284  0  0  -0.336225  -0.250998  0  3.466296  0
N  N63  1  0.13740213  0.21818765  0.33617339  1  0  -0.338852  0  3.217585  0  0  -0.264877  0  3.479333  0  0  -0.283946  0  3.496347  0  0  -0.336197  -0.250991  0  3.466373  0
