# generated using pymatgen
data_Cu3H84C70S2(N6O13)2
_symmetry_space_group_name_H-M   'P 1'
_cell_length_a   11.28312855
_cell_length_b   12.55157578
_cell_length_c   15.66049861
_cell_angle_alpha   97.59561642
_cell_angle_beta   93.04100528
_cell_angle_gamma   108.93857979
_symmetry_Int_Tables_number   1
_chemical_formula_structural   Cu3H84C70S2(N6O13)2
_chemical_formula_sum   'Cu3 H84 C70 S2 N12 O26'
_cell_volume   2068.47240281
_cell_formula_units_Z   1
loop_
 _symmetry_equiv_pos_site_id
 _symmetry_equiv_pos_as_xyz
  1  'x, y, z'
loop_
 _atom_site_type_symbol
 _atom_site_label
 _atom_site_symmetry_multiplicity
 _atom_site_fract_x
 _atom_site_fract_y
 _atom_site_fract_z
 _atom_site_occupancy
 _atom_site_pbe_bader_charge
 _atom_site_pbe_bader_spin_density
 _atom_site_pbe_cm5_charge
 _atom_site_pbe_ddec_charge
 _atom_site_pbe_ddec_spin_density
 _atom_site_pbe_ddec_sum_bond_order
 _atom_site_pbe_magmom
Cu  Cu0  1  0.00009995  0.00004882  0.50005098  1  1.084395  0.577566  0.736227  0.780199  0.776049  2.247596  0.576
Cu  Cu1  1  0.19578670  0.62458302  0.90700015  1  1.079237  -0.578107  0.75316  0.811098  -0.749641  2.176359  -0.575
Cu  Cu2  1  0.80425722  0.37541118  0.09295987  1  1.078967  -0.57822  0.753375  0.811098  -0.749861  2.17707  -0.575
H  H3  1  0.04381049  0.45250914  0.79235328  1  0.657344  4.5e-05  0.330863  0.431896  -0.00013  0.843912  0.0
H  H4  1  0.95606612  0.54740653  0.20765495  1  0.65682  4.6e-05  0.330863  0.431922  -0.000131  0.843567  0.0
H  H5  1  0.99534710  0.41346311  0.88226270  1  0.65937  -0.000537  0.291496  0.39708  -0.000701  0.941247  -0.001
H  H6  1  0.00458898  0.58650996  0.11776586  1  0.659915  -0.000538  0.291431  0.396938  -0.000704  0.94148  -0.001
H  H7  1  0.36485208  0.63275694  0.78099540  1  0.609514  -0.000566  0.291669  0.385645  -0.000541  0.939445  -0.001
H  H8  1  0.63511746  0.36718339  0.21896920  1  0.642156  -0.000499  0.291752  0.385837  -0.000539  0.939281  -0.001
H  H9  1  0.32242552  0.50806914  0.81004962  1  0.669734  -6.3e-05  0.290702  0.394414  -0.000207  0.938185  0.0
H  H10  1  0.67755281  0.49187120  0.18991200  1  0.669491  -6.4e-05  0.290687  0.39438  -0.000206  0.938217  0.0
H  H11  1  0.78001740  0.64869604  0.58785439  1  0.438781  3.8e-05  0.322439  0.275938  3.4e-05  0.938122  0.0
H  H12  1  0.21997258  0.35139562  0.41218491  1  0.438916  3.8e-05  0.322353  0.275843  3.4e-05  0.937611  0.0
H  H13  1  0.41415785  0.90489030  0.74080602  1  0.506263  2e-06  0.298516  0.267513  -5e-06  1.017575  0.0
H  H14  1  0.58586869  0.09511919  0.25915902  1  0.506718  2e-06  0.298486  0.267455  -5e-06  1.017614  0.0
H  H15  1  0.61931641  0.76677717  0.01930586  1  0.488295  -5e-06  0.306457  0.274747  -1.5e-05  0.989573  0.0
H  H16  1  0.38068936  0.23320875  0.98070024  1  0.488744  -5e-06  0.306409  0.274721  -1.5e-05  0.989854  0.0
H  H17  1  0.05499797  0.76145202  0.19902512  1  0.126362  -7.9e-05  0.111136  0.110302  -6.7e-05  1.027158  0.0
H  H18  1  0.94494582  0.23857413  0.80103737  1  0.125837  -7.9e-05  0.111115  0.110195  -6.7e-05  1.027248  0.0
H  H19  1  0.34258506  0.97293980  0.06418293  1  0.135517  -0.000533  0.114262  0.128397  -0.000462  0.993027  0.0
H  H20  1  0.65736690  0.02700941  0.93583391  1  0.135084  -0.000534  0.114252  0.128459  -0.000462  0.993013  0.0
H  H21  1  0.24807513  0.11081183  0.30865210  1  0.115457  0.00031  0.111255  0.122317  0.000258  0.992695  0.0
H  H22  1  0.75192394  0.88923188  0.69134784  1  0.115553  0.000308  0.111206  0.122344  0.000257  0.992573  0.0
H  H23  1  0.89187105  0.79551494  0.56752088  1  0.106211  0.002035  0.126401  0.100611  0.000971  1.01073  0.002
H  H24  1  0.10819326  0.20453702  0.43251987  1  0.105462  0.002036  0.126452  0.100755  0.000971  1.010472  0.002
H  H25  1  0.16951945  0.62835651  0.58882105  1  0.11996  0.000114  0.120145  0.125757  6.2e-05  0.970552  0.0
H  H26  1  0.83043444  0.37157242  0.41121156  1  0.119983  0.000114  0.12028  0.125894  6.2e-05  0.970958  0.0
H  H27  1  0.32176435  0.79576995  0.53288918  1  0.095388  0.001227  0.115278  0.122235  0.000654  0.977193  0.001
H  H28  1  0.67825745  0.20413470  0.46716042  1  0.096263  0.001227  0.115366  0.122278  0.000654  0.976926  0.001
H  H29  1  0.24439652  0.95354268  0.49758788  1  0.112785  0.002013  0.125714  0.098078  0.000964  0.976758  0.001
H  H30  1  0.75571019  0.04641252  0.50246471  1  0.113572  0.002013  0.125834  0.098236  0.000964  0.977171  0.001
H  H31  1  0.77410735  0.49929657  0.71848976  1  0.053964  3e-06  0.106911  0.081042  -5e-06  1.00067  0.0
H  H32  1  0.22579539  0.50073828  0.28151069  1  0.053759  3e-06  0.106962  0.081157  -5e-06  1.000731  0.0
H  H33  1  0.65677768  0.55975309  0.69286473  1  0.066925  3e-06  0.104914  0.088736  1e-06  0.981404  0.0
H  H34  1  0.34313045  0.44027468  0.30710061  1  0.067922  3e-06  0.104951  0.088604  1e-06  0.981229  0.0
H  H35  1  0.71488028  0.37133421  0.57475661  1  0.027909  1.9e-05  0.087035  0.079909  1.2e-05  1.018344  0.0
H  H36  1  0.28511852  0.62873485  0.42522111  1  0.027762  1.9e-05  0.087091  0.080046  1.2e-05  1.01836  0.0
H  H37  1  0.59235902  0.42612725  0.55194263  1  0.012201  -0.0  0.087738  0.080844  -0.0  0.980595  0.0
H  H38  1  0.40760192  0.57389906  0.44802769  1  0.012826  -0.0  0.0877  0.080855  -0.0  0.980703  0.0
H  H39  1  0.49328869  0.35458360  0.68521473  1  0.032767  -8e-06  0.090147  0.089673  -7e-06  0.978412  0.0
H  H40  1  0.50670931  0.64541659  0.31477098  1  0.032113  -8e-06  0.090209  0.089667  -7e-06  0.97859  0.0
H  H41  1  0.49637108  0.24781767  0.60228425  1  0.01718  6e-06  0.086641  0.080762  7e-06  0.996253  0.0
H  H42  1  0.50363336  0.75219608  0.39769220  1  0.017344  6e-06  0.086612  0.080662  7e-06  0.996202  0.0
H  H43  1  0.67922756  0.33901240  0.76891172  1  -0.005385  -1.1e-05  0.083575  0.076606  -4e-06  1.004343  0.0
H  H44  1  0.32081741  0.66100218  0.23104346  1  -0.005382  -1.1e-05  0.083707  0.076755  -4e-06  1.00447  0.0
H  H45  1  0.69709154  0.24045579  0.68427615  1  -0.000654  1e-06  0.084495  0.078415  -2e-06  0.987003  0.0
H  H46  1  0.30292953  0.75956457  0.31566820  1  -0.002039  1e-06  0.084671  0.078619  -2e-06  0.986971  0.0
H  H47  1  0.58208943  0.15894684  0.81345893  1  0.030454  3e-06  0.082159  0.080327  8e-06  1.024899  0.0
H  H48  1  0.41796618  0.84107210  0.18650337  1  0.030804  4e-06  0.082097  0.080321  8e-06  1.024842  0.0
H  H49  1  0.45470259  0.19850976  0.77483471  1  0.05773  -1.2e-05  0.090474  0.09307  -9e-06  1.014765  0.0
H  H50  1  0.54534743  0.80151187  0.22514754  1  0.05789  -1.2e-05  0.090404  0.093136  -9e-06  1.014819  0.0
H  H51  1  0.44398252  0.07567488  0.63067046  1  0.043387  2.4e-05  0.101654  0.066967  2.1e-05  0.997458  0.0
H  H52  1  0.55603977  0.92434405  0.36930634  1  0.043425  2.4e-05  0.101703  0.067075  2.1e-05  0.997534  0.0
H  H53  1  0.56279080  0.02932038  0.67669308  1  0.06376  1.4e-05  0.102448  0.075488  5e-06  0.989895  0.0
H  H54  1  0.43723267  0.97069763  0.32327407  1  0.064313  1.4e-05  0.102287  0.075303  5e-06  0.99001  0.0
H  H55  1  0.94570666  0.63355885  0.85138438  1  0.119793  -0.002344  0.119515  0.085288  -0.001099  1.038529  -0.002
H  H56  1  0.05434152  0.36640277  0.14854546  1  0.120206  -0.002343  0.11933  0.085115  -0.0011  1.038501  -0.002
H  H57  1  0.86846757  0.77999088  0.79264632  1  0.148597  -0.001097  0.108396  0.124438  -0.000589  1.037394  -0.001
H  H58  1  0.13158025  0.22001385  0.20735068  1  0.147951  -0.001096  0.108247  0.124406  -0.000588  1.037637  -0.001
H  H59  1  0.02907836  0.94278965  0.73741226  1  0.133969  -0.000332  0.112249  0.113459  -0.000175  1.027427  0.0
H  H60  1  0.97094248  0.05721665  0.26258233  1  0.134124  -0.000332  0.112313  0.113532  -0.000175  1.027475  0.0
H  H61  1  0.31482828  0.80865618  0.82005067  1  0.148926  -0.002457  0.124545  0.097542  -0.001136  1.040704  -0.002
H  H62  1  0.68522013  0.19134390  0.17989795  1  0.149401  -0.002455  0.124545  0.097462  -0.001136  1.040719  -0.002
H  H63  1  0.12158545  0.42413461  0.00562158  1  0.139568  -0.002188  0.122459  0.101874  -0.001044  1.031206  -0.002
H  H64  1  0.87844396  0.57585969  0.99435853  1  0.13941  -0.002188  0.122511  0.102038  -0.001044  1.030998  -0.002
H  H65  1  0.23975905  0.35739648  0.11749682  1  0.128188  -0.001184  0.112178  0.124552  -0.000616  1.02381  -0.001
H  H66  1  0.76025650  0.64259101  0.88248861  1  0.128954  -0.001185  0.112222  0.124546  -0.000617  1.023807  -0.001
H  H67  1  0.46297889  0.46853865  0.16493434  1  0.142458  -0.000258  0.113386  0.108982  -0.000132  1.019262  0.0
H  H68  1  0.53703889  0.53144898  0.83506649  1  0.14249  -0.000258  0.113367  0.108912  -0.000132  1.019248  0.0
H  H69  1  0.44153697  0.69332587  0.98229357  1  0.161569  -0.002112  0.122516  0.099759  -0.000939  1.057683  -0.002
H  H70  1  0.55848528  0.30669686  0.01773089  1  0.160684  -0.002114  0.122571  0.099794  -0.000939  1.057631  -0.002
H  H71  1  0.85269654  0.74662987  0.07470724  1  0.04013  -6e-06  0.100021  0.072157  2e-06  0.999774  0.0
H  H72  1  0.14731288  0.25334821  0.92527577  1  0.040395  -6e-06  0.099883  0.071952  2e-06  0.999896  0.0
H  H73  1  0.82359183  0.84595099  0.15444251  1  0.099102  -1e-06  0.105844  0.092152  2e-06  0.982948  0.0
H  H74  1  0.17644054  0.15403146  0.84554344  1  0.09888  -1e-06  0.10581  0.092033  2e-06  0.983061  0.0
H  H75  1  0.79612427  0.96333339  0.04381620  1  0.018042  -8e-06  0.088139  0.086864  6e-06  0.984475  0.0
H  H76  1  0.20388656  0.03664383  0.95616483  1  0.017222  -8e-06  0.088124  0.086674  5e-06  0.98455  0.0
H  H77  1  0.80056349  0.85758300  0.95938164  1  0.017387  -9e-06  0.087149  0.08016  -5e-06  1.022242  0.0
H  H78  1  0.19944878  0.14238575  0.04060236  1  0.017314  -9e-06  0.087169  0.080157  -5e-06  1.022335  0.0
H  H79  1  0.02281937  0.88702766  0.00549706  1  0.024325  2e-05  0.082316  0.075344  3.1e-05  1.007139  0.0
H  H80  1  0.97719688  0.11294707  0.99448831  1  0.02445  2e-05  0.082386  0.075403  3.1e-05  1.006989  0.0
H  H81  1  0.02431006  0.98828461  0.09515721  1  0.017771  1.1e-05  0.082523  0.077043  1.1e-05  1.013136  0.0
H  H82  1  0.97570244  0.01169183  0.90483081  1  0.017933  1.1e-05  0.08251  0.07707  1.1e-05  1.01316  0.0
H  H83  1  0.76369309  0.86738584  0.38236714  1  0.629498  -2.4e-05  0.279147  0.377702  -2.5e-05  0.958668  0.0
H  H84  1  0.23625620  0.13270927  0.61769579  1  0.626223  -2.4e-05  0.279219  0.377821  -2.6e-05  0.958585  0.0
H  H85  1  0.86356645  0.81186082  0.39630367  1  0.62952  3.6e-05  0.273654  0.371908  -2.7e-05  0.972868  0.0
H  H86  1  0.13636011  0.18823964  0.60379951  1  0.629313  3.6e-05  0.273453  0.371431  -2.6e-05  0.973548  0.0
C  C87  1  0.14664740  0.93301555  0.26207152  1  -0.010179  0.008927  -0.015661  -0.032573  0.006438  3.972866  0.007
C  C88  1  0.85332543  0.06701471  0.73795956  1  -0.009441  0.008923  -0.015832  -0.03264  0.006438  3.972576  0.007
C  C89  1  0.12738207  0.84217021  0.19501623  1  -0.065458  0.000113  -0.066393  -0.091145  7.4e-05  3.925069  0.0
C  C90  1  0.87257429  0.15784307  0.80502733  1  -0.064958  0.000117  -0.066083  -0.090634  7.8e-05  3.925664  0.0
C  C91  1  0.19788758  0.85564296  0.12441730  1  0.038098  -0.010908  -0.013008  -0.030532  -0.007834  3.978894  -0.009
C  C92  1  0.80204738  0.14433183  0.87561269  1  0.041619  -0.010909  -0.013238  -0.031186  -0.007836  3.980242  -0.009
C  C93  1  0.28840158  0.96165190  0.11979367  1  -0.060824  -0.000431  -0.06929  -0.092262  -0.00043  3.925371  0.0
C  C94  1  0.71154495  0.03830921  0.88022366  1  -0.066008  -0.000429  -0.069335  -0.092234  -0.000428  3.925958  0.0
C  C95  1  0.30508860  0.05294060  0.18576368  1  -0.170728  -9.8e-05  -0.01968  -0.093394  -4.9e-05  3.982631  0.0
C  C96  1  0.69488496  0.94705454  0.81423941  1  -0.170158  -9.9e-05  -0.019483  -0.093239  -5e-05  3.98291  0.0
C  C97  1  0.23536987  0.03930473  0.25727095  1  -0.032492  0.000405  -0.073726  -0.099249  0.000352  3.940237  0.0
C  C98  1  0.76461040  0.96071854  0.74273466  1  -0.031551  0.000404  -0.07377  -0.099399  0.000351  3.940242  0.0
C  C99  1  0.17275488  0.75752310  0.05254464  1  1.528662  0.002316  0.205201  0.563822  0.000608  4.215283  0.005
C  C100  1  0.82714091  0.24245075  0.94749259  1  1.528802  0.002326  0.205035  0.563642  0.000614  4.215049  0.005
C  C101  1  0.06740345  0.91337125  0.33680074  1  1.578971  -0.00101  0.201823  0.552697  0.000603  4.238461  -0.003
C  C102  1  0.93262640  0.08669689  0.66325748  1  1.579925  -0.000995  0.201896  0.552556  0.000606  4.238805  -0.003
C  C103  1  0.98457026  0.78826947  0.56020665  1  0.463614  -0.001812  0.060389  0.076201  -0.000588  3.882775  -0.001
C  C104  1  0.01547938  0.21174493  0.43982719  1  0.464325  -0.001819  0.06019  0.075754  -0.00059  3.882863  -0.001
C  C105  1  0.01834295  0.69639854  0.58094028  1  0.03196  0.005254  -0.005058  -0.067739  0.003785  3.966529  0.004
C  C106  1  0.98164691  0.30358836  0.41908788  1  0.031331  0.005253  -0.005053  -0.067746  0.003783  3.966307  0.004
C  C107  1  0.14143408  0.69844051  0.57091811  1  0.005466  -0.003915  -0.050372  -0.030696  -0.002629  3.901311  -0.002
C  C108  1  0.85854594  0.30150642  0.42911833  1  0.006415  -0.003912  -0.050477  -0.030776  -0.002627  3.902017  -0.002
C  C109  1  0.22487215  0.79091376  0.54068416  1  -0.054661  0.005381  -0.076989  -0.124273  0.003777  3.976729  0.004
C  C110  1  0.77515627  0.20901898  0.45936475  1  -0.056796  0.005383  -0.077197  -0.12425  0.003777  3.976922  0.004
C  C111  1  0.18352011  0.87893898  0.52133147  1  0.478951  -0.001161  0.056796  0.099311  3.9e-05  3.922278  -0.001
C  C112  1  0.81654720  0.12102284  0.47871638  1  0.478145  -0.001154  0.0571  0.099207  4.6e-05  3.922831  -0.001
C  C113  1  0.93248311  0.60153158  0.62081552  1  1.435771  0.000722  0.232682  0.456922  0.000508  4.199233  0.0
C  C114  1  0.06746085  0.39845573  0.37918154  1  1.437199  0.000721  0.232827  0.457123  0.000507  4.198809  0.0
C  C115  1  0.72024778  0.51717761  0.66502787  1  0.331875  4.2e-05  -0.06288  -0.002144  3e-05  3.913836  0.0
C  C116  1  0.27968902  0.48286660  0.33495782  1  0.331284  4.2e-05  -0.062878  -0.001989  3e-05  3.913523  0.0
C  C117  1  0.64646896  0.40637220  0.60466613  1  -0.021796  4.1e-05  -0.167025  -0.174592  3.4e-05  3.958843  0.0
C  C118  1  0.35350319  0.59366524  0.39530757  1  -0.022673  4.1e-05  -0.166913  -0.174659  3.4e-05  3.959259  0.0
C  C119  1  0.55775759  0.31788145  0.65129751  1  -0.023287  2e-06  -0.166431  -0.143248  5e-06  3.93731  0.0
C  C120  1  0.44224084  0.68212548  0.34867935  1  -0.022216  2e-06  -0.166601  -0.143155  5e-06  3.937201  0.0
C  C121  1  0.62600863  0.27042561  0.71599547  1  0.019049  -1.7e-05  -0.167991  -0.137885  -1.2e-05  3.93747  0.0
C  C122  1  0.37402170  0.72959489  0.28396190  1  0.020666  -1.7e-05  -0.168316  -0.138334  -1.2e-05  3.938175  0.0
C  C123  1  0.53562653  0.17415973  0.75513577  1  -0.042072  -1.9e-05  -0.173624  -0.183076  -1.2e-05  3.932118  0.0
C  C124  1  0.46441196  0.82585577  0.24483021  1  -0.0429  -1.9e-05  -0.173469  -0.183194  -1.2e-05  3.932389  0.0
C  C125  1  0.48572787  0.06192749  0.69167783  1  0.303867  -1.5e-05  -0.061567  0.004982  -7e-06  3.928126  0.0
C  C126  1  0.51430606  0.93809483  0.30829068  1  0.30353  -1.5e-05  -0.061534  0.004991  -7e-06  3.928306  0.0
C  C127  1  0.27521637  0.97998133  0.73502519  1  1.405419  -0.000818  0.23781  0.461693  -0.000569  4.167892  -0.001
C  C128  1  0.72481846  0.02004201  0.26496325  1  1.40555  -0.000819  0.238059  0.461755  -0.000569  4.16764  -0.001
C  C129  1  0.00930549  0.70866452  0.83023899  1  0.446579  -0.000236  0.055552  0.101103  -0.000965  3.910204  0.0
C  C130  1  0.99073266  0.29130055  0.16970055  1  0.445079  -0.00023  0.055623  0.100721  -0.000958  3.910139  0.0
C  C131  1  0.96823592  0.78930490  0.79653123  1  -0.039024  -0.006357  -0.079524  -0.122279  -0.004437  3.939425  -0.005
C  C132  1  0.03180834  0.21068430  0.20344296  1  -0.036618  -0.006354  -0.079454  -0.12242  -0.004437  3.940092  -0.005
C  C133  1  0.05631895  0.87908110  0.76667285  1  -0.002644  0.002944  -0.054479  -0.038987  0.002007  3.909138  0.002
C  C134  1  0.94371630  0.12092430  0.23330858  1  -0.003462  0.002951  -0.054496  -0.038968  0.002012  3.909898  0.002
C  C135  1  0.18304599  0.88653120  0.77185953  1  -0.004028  -0.006012  -0.006096  -0.067853  -0.004243  3.97226  -0.005
C  C136  1  0.81698755  0.11347752  0.22811263  1  -0.003297  -0.006011  -0.006091  -0.067902  -0.004242  3.972408  -0.005
C  C137  1  0.21728253  0.80536350  0.81033950  1  0.46586  0.00094  0.056514  0.074293  6e-06  3.877017  0.001
C  C138  1  0.78275348  0.19462459  0.18960626  1  0.464613  0.000943  0.056433  0.074253  8e-06  3.876692  0.001
C  C139  1  0.22092855  0.46889256  0.02735472  1  0.45247  0.000312  0.054761  0.095991  -0.000655  3.903859  0.0
C  C140  1  0.77909531  0.53110776  0.97263483  1  0.453402  0.000313  0.054848  0.095923  -0.000653  3.903612  0.0
C  C141  1  0.28537728  0.43364769  0.08993158  1  -0.029683  -0.005981  -0.08009  -0.122248  -0.004157  3.955466  -0.005
C  C142  1  0.71463578  0.56634238  0.91005853  1  -0.030946  -0.005982  -0.080416  -0.122577  -0.004158  3.955896  -0.005
C  C143  1  0.41145291  0.49538950  0.11616699  1  -0.049325  0.003708  -0.055322  -0.038209  0.002533  3.918396  0.002
C  C144  1  0.58855621  0.50459637  0.88383217  1  -0.049495  0.003709  -0.055094  -0.037803  0.002534  3.918067  0.002
C  C145  1  0.47210824  0.59107821  0.07860345  1  -0.018328  -0.005745  -0.005768  -0.067255  -0.003968  3.962646  -0.005
C  C146  1  0.52790480  0.40891541  0.92140428  1  -0.018311  -0.00575  -0.005903  -0.067338  -0.003968  3.962687  -0.005
C  C147  1  0.40162773  0.62066822  0.01552675  1  0.490364  0.001578  0.052208  0.063274  0.000473  3.879729  0.001
C  C148  1  0.59838720  0.37933993  0.98448768  1  0.492103  0.001583  0.052122  0.06324  0.000472  3.879877  0.001
C  C149  1  0.60977909  0.65380228  0.10561222  1  1.406827  -0.000728  0.238592  0.461123  -0.000491  4.166342  -0.001
C  C150  1  0.39024279  0.34618705  0.89438633  1  1.406587  -0.000729  0.238595  0.461275  -0.000491  4.166275  -0.001
C  C151  1  0.80137452  0.80766641  0.08559131  1  0.302345  -4e-06  -0.061761  0.000595  -1e-06  3.892465  0.0
C  C152  1  0.19863810  0.19230752  0.91440219  1  0.303285  -4e-06  -0.061631  0.001005  -1e-06  3.892561  0.0
C  C153  1  0.83967983  0.89754635  0.02629112  1  0.007309  -8e-06  -0.168333  -0.171735  2e-06  3.941354  0.0
C  C154  1  0.16032677  0.10242583  0.97369949  1  0.010463  -8e-06  -0.168422  -0.17156  2e-06  3.941505  0.0
C  C155  1  0.98180400  0.95303776  0.02809871  1  -0.055249  2.2e-05  -0.1701  -0.140668  2.4e-05  3.946788  0.0
C  C156  1  0.01821195  0.04694375  0.97188290  1  -0.025748  2.1e-05  -0.170138  -0.140868  2.4e-05  3.946905  0.0
S  S157  1  0.41018621  0.19206988  0.17753172  1  3.173899  -2.7e-05  0.500658  1.145502  -3.1e-05  6.236937  0.0
S  S158  1  0.58980366  0.80792617  0.82247187  1  3.174317  -2.7e-05  0.500843  1.145922  -3.1e-05  6.236595  0.0
N  N159  1  0.06531560  0.87709167  0.53124632  1  -1.191032  0.082696  -0.339065  -0.205755  0.057771  3.612723  0.072
N  N160  1  0.93476518  0.12292210  0.46880035  1  -1.190073  0.0827  -0.339239  -0.205502  0.057774  3.612455  0.072
N  N161  1  0.81091369  0.59766964  0.62163305  1  -1.22528  5.3e-05  -0.421625  -0.360736  2e-05  3.579268  0.0
N  N162  1  0.18904852  0.40238422  0.37837664  1  -1.225258  5.3e-05  -0.421894  -0.361088  1.9e-05  3.579307  0.0
N  N163  1  0.39095844  0.97347787  0.72628843  1  -1.248011  -7.5e-05  -0.421159  -0.361899  -3.5e-05  3.574472  0.0
N  N164  1  0.60907292  0.02653937  0.27368586  1  -1.249738  -7.5e-05  -0.421252  -0.361865  -3.5e-05  3.574488  0.0
N  N165  1  0.13156733  0.71817396  0.83776726  1  -1.221858  -0.091958  -0.351117  -0.205068  -0.062127  3.627057  -0.078
N  N166  1  0.86847217  0.28178846  0.16215926  1  -1.220826  -0.091931  -0.350975  -0.204321  -0.062108  3.626311  -0.078
N  N167  1  0.27941348  0.56058974  0.99077911  1  -1.222018  -0.085755  -0.353476  -0.2265  -0.058149  3.646248  -0.073
N  N168  1  0.72060394  0.43941659  0.00921987  1  -1.222588  -0.085811  -0.353449  -0.22642  -0.058187  3.646645  -0.073
N  N169  1  0.66621611  0.74554559  0.06854097  1  -1.239768  -0.000119  -0.415773  -0.348974  -6.7e-05  3.549535  0.0
N  N170  1  0.33380318  0.25444120  0.93146108  1  -1.240555  -0.000119  -0.415674  -0.349136  -6.7e-05  3.549742  0.0
O  O171  1  0.25322317  0.76967802  0.99639568  1  -1.075416  -0.132858  -0.306574  -0.521609  -0.086693  2.302281  -0.12
O  O172  1  0.74659969  0.23030696  0.00358090  1  -1.075261  -0.132784  -0.306472  -0.521245  -0.086632  2.3018  -0.12
O  O173  1  0.07625551  0.66954598  0.04860947  1  -1.19644  -0.004837  -0.31859  -0.582186  -0.002774  2.243552  -0.005
O  O174  1  0.92368403  0.33039683  0.95146195  1  -1.196361  -0.00484  -0.318643  -0.582225  -0.002778  2.243656  -0.005
O  O175  1  0.08348297  0.00447027  0.39213936  1  -1.12125  0.102783  -0.332032  -0.564133  0.068823  2.402281  0.093
O  O176  1  0.91673579  0.99560080  0.60798067  1  -1.121601  0.102673  -0.331989  -0.563939  0.068754  2.402715  0.093
O  O177  1  0.99516044  0.81464224  0.33960208  1  -1.170074  0.001073  -0.310282  -0.520384  0.000483  2.140881  0.001
O  O178  1  0.00474665  0.18547114  0.66042535  1  -1.171216  0.001075  -0.310249  -0.520345  0.000484  2.141408  0.001
O  O179  1  0.44267154  0.18660277  0.08779080  1  -1.343631  -0.000259  -0.344894  -0.60153  -0.000134  2.22028  0.0
O  O180  1  0.55728883  0.81338803  0.91220895  1  -1.343818  -0.000259  -0.345125  -0.601778  -0.000134  2.219981  0.0
O  O181  1  0.52201355  0.21496813  0.24070264  1  -1.339529  -0.000793  -0.352215  -0.616725  -0.00049  2.181421  -0.001
O  O182  1  0.47799117  0.78502105  0.75928590  1  -1.339617  -0.000795  -0.352292  -0.61703  -0.000492  2.181459  -0.001
O  O183  1  0.33968365  0.26922151  0.20145054  1  -1.341737  -0.000422  -0.343843  -0.607247  -0.000287  2.234352  0.0
O  O184  1  0.66031672  0.73077988  0.79857560  1  -1.341781  -0.000423  -0.343846  -0.607307  -0.000287  2.234303  0.0
O  O185  1  0.24204211  0.05877093  0.71250560  1  -1.155368  -0.002472  -0.289149  -0.492055  -0.001572  2.183583  -0.002
O  O186  1  0.75799553  0.94126109  0.28750363  1  -1.155483  -0.002468  -0.289198  -0.491946  -0.001569  2.183312  -0.002
O  O187  1  0.97409167  0.53505165  0.65465629  1  -1.139146  0.001595  -0.308149  -0.493117  0.00104  2.080327  0.001
O  O188  1  0.02578420  0.46487982  0.34530825  1  -1.140714  0.001595  -0.308094  -0.493084  0.00104  2.079794  0.001
O  O189  1  0.66836126  0.62000838  0.16026760  1  -1.148022  -0.002221  -0.297512  -0.498294  -0.001396  2.158467  -0.002
O  O190  1  0.33165550  0.37996471  0.83972591  1  -1.148036  -0.002222  -0.297515  -0.498451  -0.001396  2.158592  -0.002
O  O191  1  0.03718498  0.47974028  0.85257335  1  -1.262596  -0.033116  -0.576345  -0.774416  -0.022284  2.103478  -0.029
O  O192  1  0.96274114  0.52021899  0.14743562  1  -1.262323  -0.033242  -0.576299  -0.77428  -0.022369  2.1038  -0.029
O  O193  1  0.29506486  0.57342241  0.79997037  1  -1.249121  -0.021557  -0.591727  -0.784829  -0.014571  2.073048  -0.019
O  O194  1  0.70487888  0.42649113  0.19995561  1  -1.28181  -0.02148  -0.59191  -0.785168  -0.014478  2.073129  -0.019
O  O195  1  0.79916428  0.83533772  0.42737635  1  -1.275432  -0.001875  -0.627995  -0.817007  -0.001165  1.926748  -0.001
O  O196  1  0.20075052  0.16476340  0.57270873  1  -1.271715  -0.001878  -0.627796  -0.81656  -0.001167  1.927897  -0.001
