# generated using pymatgen
data_ZnH25C34(NO)5
_symmetry_space_group_name_H-M   'P 1'
_cell_length_a   11.17969578
_cell_length_b   11.36974975
_cell_length_c   13.52078846
_cell_angle_alpha   116.30567172
_cell_angle_beta   92.91619141
_cell_angle_gamma   97.34368240
_symmetry_Int_Tables_number   1
_chemical_formula_structural   ZnH25C34(NO)5
_chemical_formula_sum   'Zn2 H50 C68 N10 O10'
_cell_volume   1516.80275776
_cell_formula_units_Z   2
loop_
 _symmetry_equiv_pos_site_id
 _symmetry_equiv_pos_as_xyz
  1  'x, y, z'
loop_
 _atom_site_type_symbol
 _atom_site_label
 _atom_site_symmetry_multiplicity
 _atom_site_fract_x
 _atom_site_fract_y
 _atom_site_fract_z
 _atom_site_occupancy
 _atom_site_hle17_bader_spin_density
 _atom_site_hle17_ddec_charge
 _atom_site_hle17_ddec_spin_density
 _atom_site_hle17_ddec_sum_bond_order
 _atom_site_hle17_magmom
 _atom_site_hse06_10hf_bader_spin_density
 _atom_site_hse06_10hf_ddec_charge
 _atom_site_hse06_10hf_ddec_spin_density
 _atom_site_hse06_10hf_ddec_sum_bond_order
 _atom_site_hse06_10hf_magmom
 _atom_site_hse06_bader_spin_density
 _atom_site_hse06_ddec_charge
 _atom_site_hse06_ddec_spin_density
 _atom_site_hse06_ddec_sum_bond_order
 _atom_site_hse06_magmom
 _atom_site_pbe_bader_spin_density
 _atom_site_pbe_cm5_charge
 _atom_site_pbe_ddec_charge
 _atom_site_pbe_ddec_spin_density
 _atom_site_pbe_ddec_sum_bond_order
 _atom_site_pbe_magmom
Zn  Zn0  1  0.02344087  0.45927427  0.17127709  1  0  1.003143  0  1.880554  0  0  0.815428  0  2.358764  0  0  0.861737  0  2.304467  0  0  0.693665  0.783099  0  2.396269  0
Zn  Zn1  1  0.97655814  0.54072753  0.82872286  1  0  1.003128  0  1.880629  0  0  0.815428  0  2.358849  0  0  0.861737  0  2.304551  0  0  0.69373  0.78315  0  2.396378  0
H  H2  1  0.19364771  0.43207162  0.99067597  1  0  0.113353  0  0.928249  0  0  0.123438  0  0.988423  0  0  0.126921  0  0.984001  0  0  0.14299  0.120717  0  0.991969  0
H  H3  1  0.80634535  0.56793219  0.00932301  1  0  0.11321  0  0.928333  0  0  0.123375  0  0.988423  0  0  0.126859  0  0.984001  0  0  0.142923  0.120626  0  0.991918  0
H  H4  1  0.02187986  0.12996875  0.06039035  1  0  0.112868  0  0.95128  0  0  0.1245  0  1.008356  0  0  0.126604  0  1.008094  0  0  0.120795  0.12291  0  1.008848  0
H  H5  1  0.97813030  0.87002995  0.93960886  1  0  0.112864  0  0.951332  0  0  0.124548  0  1.008335  0  0  0.126653  0  1.008073  0  0  0.120873  0.123023  0  1.008779  0
H  H6  1  0.16435751  0.01710656  0.88887013  1  0  0.125256  0  0.954122  0  0  0.133503  0  1.018364  0  0  0.136861  0  1.015701  0  0  0.12362  0.130915  0  1.020598  0
H  H7  1  0.83565471  0.98289919  0.11113463  1  0  0.125254  0  0.954069  0  0  0.133521  0  1.018297  0  0  0.136883  0  1.015632  0  0  0.123624  0.130955  0  1.020485  0
H  H8  1  0.42116527  0.14476252  0.91113038  1  0  0.101457  0  0.959166  0  0  0.111545  0  1.022461  0  0  0.113786  0  1.022355  0  0  0.101534  0.109993  0  1.022494  0
H  H9  1  0.57884257  0.85524413  0.08887011  1  0  0.101485  0  0.959143  0  0  0.11154  0  1.022458  0  0  0.113779  0  1.022357  0  0  0.101547  0.110028  0  1.022468  0
H  H10  1  0.57607770  0.15165279  0.78690389  1  0  0.101746  0  0.982118  0  0  0.111849  0  1.04504  0  0  0.114302  0  1.045062  0  0  0.100453  0.109834  0  1.04568  0
H  H11  1  0.42392435  0.84834588  0.21309134  1  0  0.10175  0  0.982108  0  0  0.111824  0  1.045053  0  0  0.114276  0  1.045078  0  0  0.100453  0.109842  0  1.045624  0
H  H12  1  0.17340761  0.29719347  0.75955955  1  0  0.137204  0  0.968315  0  0  0.144555  0  1.032398  0  0  0.148204  0  1.029656  0  0  0.11071  0.141716  0  1.034741  0
H  H13  1  0.82659289  0.70280635  0.24044047  1  0  0.137208  0  0.968263  0  0  0.144552  0  1.032356  0  0  0.148202  0  1.029613  0  0  0.110699  0.141719  0  1.034675  0
H  H14  1  0.62161272  0.00083162  0.54639681  1  0  0.101359  0  0.956823  0  0  0.120135  0  1.022879  0  0  0.121126  0  1.024106  0  0  0.086584  0.119362  0  1.022184  0
H  H15  1  0.37838473  0.99916616  0.45360017  1  0  0.101351  0  0.95689  0  0  0.120142  0  1.022935  0  0  0.121134  0  1.024159  0  0  0.086604  0.11939  0  1.022208  0
H  H16  1  0.75914726  0.06734914  0.51591009  1  0  0.111413  0  0.938578  0  0  0.135571  0  0.993341  0  0  0.136235  0  0.994171  0  0  0.095559  0.135075  0  0.992855  0
H  H17  1  0.24085165  0.93264662  0.48408547  1  0  0.111388  0  0.938558  0  0  0.135573  0  0.993296  0  0  0.136221  0  0.994145  0  0  0.095577  0.135104  0  0.99278  0
H  H18  1  0.61862303  0.05407362  0.44092901  1  0  0.097021  0  0.958099  0  0  0.117793  0  1.021132  0  0  0.11864  0  1.02217  0  0  0.085004  0.117149  0  1.020485  0
H  H19  1  0.38137573  0.94592114  0.55906619  1  0  0.097046  0  0.958143  0  0  0.117818  0  1.021173  0  0  0.118666  0  1.022208  0  0  0.085015  0.117175  0  1.020546  0
H  H20  1  0.18430074  0.39198336  0.60400288  1  0  0.12235  0  0.940382  0  0  0.133654  0  1.00046  0  0  0.13655  0  0.998759  0  0  0.113688  0.131592  0  1.001608  0
H  H21  1  0.81569714  0.60801145  0.39599379  1  0  0.122333  0  0.940355  0  0  0.133645  0  1.000432  0  0  0.136542  0  0.998729  0  0  0.113707  0.131616  0  1.001558  0
H  H22  1  0.17035503  0.61054465  0.59093619  1  0  0.12537  0  0.963762  0  0  0.133529  0  1.026767  0  0  0.135846  0  1.026244  0  0  0.124793  0.131821  0  1.027296  0
H  H23  1  0.82964301  0.38945631  0.40906785  1  0  0.125408  0  0.963774  0  0  0.133573  0  1.026771  0  0  0.135889  0  1.026249  0  0  0.124772  0.131819  0  1.027267  0
H  H24  1  0.03750491  0.65950617  0.43678041  1  0  0.118835  0  0.940982  0  0  0.130642  0  0.994135  0  0  0.133606  0  0.992166  0  0  0.125117  0.1286  0  0.995495  0
H  H25  1  0.96249552  0.34049868  0.56322289  1  0  0.118782  0  0.941099  0  0  0.130638  0  0.994199  0  0  0.133603  0  0.992227  0  0  0.125079  0.128583  0  0.995525  0
H  H26  1  0.08074757  0.97185995  0.34125689  1  0  0.104331  0  0.934341  0  0  0.114569  0  0.990057  0  0  0.118739  0  0.986576  0  0  0.107624  0.11153  0  0.992558  0
H  H27  1  0.91924644  0.02814397  0.65874586  1  0  0.104363  0  0.934366  0  0  0.114615  0  0.990074  0  0  0.118785  0  0.986592  0  0  0.107709  0.111672  0  0.99254  0
H  H28  1  0.31332159  0.91519400  0.02312013  1  0  0.110617  0  0.961549  0  0  0.120193  0  1.022589  0  0  0.122451  0  1.02346  0  0  0.102537  0.11848  0  1.02217  0
H  H29  1  0.68668151  0.08480493  0.97688411  1  0  0.110536  0  0.961594  0  0  0.120147  0  1.022579  0  0  0.122401  0  1.023463  0  0  0.102598  0.11852  0  1.022146  0
H  H30  1  0.18600660  0.17202190  0.32803112  1  0  0.106611  0  0.973725  0  0  0.114983  0  1.036342  0  0  0.117767  0  1.035964  0  0  0.102064  0.112938  0  1.036954  0
H  H31  1  0.81398508  0.82797893  0.67196675  1  0  0.10657  0  0.973718  0  0  0.114959  0  1.036323  0  0  0.117742  0  1.035946  0  0  0.102059  0.112936  0  1.03691  0
H  H32  1  0.40525753  0.35112600  0.12260239  1  0  0.114237  0  0.938415  0  0  0.124019  0  0.997016  0  0  0.12786  0  0.995145  0  0  0.106023  0.121204  0  0.998598  0
H  H33  1  0.59474442  0.64887693  0.87740324  1  0  0.114202  0  0.938423  0  0  0.123988  0  0.997025  0  0  0.127827  0  0.995155  0  0  0.106054  0.121201  0  0.998624  0
H  H34  1  0.62915080  0.42580112  0.13525372  1  0  0.103174  0  0.944421  0  0  0.113465  0  1.002974  0  0  0.116639  0  1.001149  0  0  0.105422  0.111095  0  1.004541  0
H  H35  1  0.37084827  0.57420077  0.86474921  1  0  0.103161  0  0.944411  0  0  0.113455  0  1.002969  0  0  0.116628  0  1.001144  0  0  0.105397  0.111082  0  1.004506  0
H  H36  1  0.70315557  0.12462613  0.22799215  1  0  0.09531  0  0.952824  0  0  0.104251  0  1.015501  0  0  0.108195  0  1.011998  0  0  0.101556  0.101341  0  1.017923  0
H  H37  1  0.29684704  0.87537566  0.77200865  1  0  0.095336  0  0.95283  0  0  0.104298  0  1.015486  0  0  0.108245  0  1.011979  0  0  0.101618  0.101437  0  1.0179  0
H  H38  1  0.43228420  0.39576102  0.36976773  1  0  0.101127  0  0.963564  0  0  0.111531  0  1.02513  0  0  0.113608  0  1.025278  0  0  0.104072  0.110031  0  1.025052  0
H  H39  1  0.56771180  0.60423880  0.63023066  1  0  0.101146  0  0.963557  0  0  0.111579  0  1.025092  0  0  0.113656  0  1.02524  0  0  0.104135  0.110146  0  1.024973  0
H  H40  1  0.57558669  0.29358444  0.43973622  1  0  0.105932  0  0.957548  0  0  0.116446  0  1.019121  0  0  0.11909  0  1.018589  0  0  0.103408  0.114544  0  1.019556  0
H  H41  1  0.42441029  0.70641623  0.56025807  1  0  0.105905  0  0.957505  0  0  0.116407  0  1.019097  0  0  0.119045  0  1.018586  0  0  0.103486  0.11461  0  1.019528  0
H  H42  1  0.69829630  0.23748675  0.69104972  1  0  0.067371  0  0.938479  0  0  0.084452  0  0.999978  0  0  0.084022  0  1.001073  0  0  0.108108  0.084527  0  0.999466  0
H  H43  1  0.30170023  0.76251097  0.30894499  1  0  0.067517  0  0.938335  0  0  0.084519  0  0.99993  0  0  0.084089  0  1.001023  0  0  0.108167  0.084635  0  0.999401  0
H  H44  1  0.70012141  0.29032908  0.58705008  1  0  0.058602  0  0.960291  0  0  0.072452  0  1.028375  0  0  0.071839  0  1.030423  0  0  0.10269  0.072839  0  1.027071  0
H  H45  1  0.29987961  0.70966865  0.41294625  1  0  0.058623  0  0.9603  0  0  0.072464  0  1.028388  0  0  0.07185  0  1.030437  0  0  0.10269  0.072842  0  1.027076  0
H  H46  1  0.20921726  0.71634197  0.03818373  1  0  0.105403  0  0.95773  0  0  0.113234  0  1.022101  0  0  0.116607  0  1.019567  0  0  0.103896  0.110746  0  1.024216  0
H  H47  1  0.79077960  0.28365707  0.96182181  1  0  0.105444  0  0.957696  0  0  0.113254  0  1.022098  0  0  0.116625  0  1.019566  0  0  0.103926  0.110783  0  1.024171  0
H  H48  1  0.22330913  0.34156514  0.26352543  1  0  0.102678  0  0.977113  0  0  0.104269  0  1.051727  0  0  0.108172  0  1.0472  0  0  0.134995  0.101395  0  1.05504  0
H  H49  1  0.77668888  0.65843574  0.73647637  1  0  0.102695  0  0.977112  0  0  0.104274  0  1.051746  0  0  0.108176  0  1.047219  0  0  0.13497  0.101357  0  1.055053  0
H  H50  1  0.48132224  0.05223841  0.21947054  1  0  0.102289  0  0.987474  0  0  0.110818  0  1.052872  0  0  0.113809  0  1.05258  0  0  0.09931  0.108576  0  1.05331  0
H  H51  1  0.51868137  0.94775841  0.78052926  1  0  0.102249  0  0.9875  0  0  0.110769  0  1.052897  0  0  0.113757  0  1.052611  0  0  0.099349  0.108577  0  1.053375  0
C  C52  1  0.16687242  0.33559117  0.98812196  1  0  0.168872  0  3.636074  0  0  0.10674  0  3.898501  0  0  0.120579  0  3.910021  0  0  0.146561  0.097928  0  3.890436  0
C  C53  1  0.83312261  0.66440852  0.01187192  1  0  0.168848  0  3.636007  0  0  0.106688  0  3.898422  0  0  0.12053  0  3.909937  0  0  0.146501  0.097885  0  3.890262  0
C  C54  1  0.07948219  0.17483421  0.01992788  1  0  0.020974  0  3.721599  0  0  -0.018177  0  3.994729  0  0  -0.015695  0  4.014206  0  0  0.002532  -0.019925  0  3.981845  0
C  C55  1  0.92052656  0.82516661  0.98007574  1  0  0.020877  0  3.721746  0  0  -0.018297  0  3.994878  0  0  -0.015817  0  4.014358  0  0  0.002613  -0.019925  0  3.981867  0
C  C56  1  0.15041306  0.11906465  0.93654131  1  0  -0.052722  0  3.629062  0  0  -0.094884  0  3.892065  0  0  -0.093364  0  3.909063  0  0  0.004094  -0.095875  0  3.880806  0
C  C57  1  0.84960512  0.88093907  0.06346366  1  0  -0.052593  0  3.628963  0  0  -0.094773  0  3.891976  0  0  -0.093258  0  3.90898  0  0  0.00419  -0.095745  0  3.880674  0
C  C58  1  0.29003888  0.21969217  0.84090786  1  0  0.138723  0  3.806384  0  0  0.129533  0  4.062174  0  0  0.130848  0  4.08745  0  0  0.075758  0.128601  0  4.044976  0
C  C59  1  0.70996408  0.78030654  0.15908889  1  0  0.138654  0  3.806176  0  0  0.129544  0  4.061845  0  0  0.130858  0  4.087118  0  0  0.075791  0.128617  0  4.04468  0
C  C60  1  0.40190741  0.17799597  0.84865539  1  0  -0.135566  0  3.769075  0  0  -0.157906  0  4.024632  0  0  -0.159006  0  4.046016  0  0  -0.095338  -0.156911  0  4.010032  0
C  C61  1  0.59809742  0.82200869  0.15134355  1  0  -0.135613  0  3.768965  0  0  -0.157953  0  4.024502  0  0  -0.159051  0  4.045885  0  0  -0.095271  -0.156905  0  4.009869  0
C  C62  1  0.48887613  0.18201836  0.77940698  1  0  -0.16098  0  3.778597  0  0  -0.175527  0  4.028716  0  0  -0.180118  0  4.048362  0  0  -0.102517  -0.172772  0  4.01612  0
C  C63  1  0.51112537  0.81798236  0.22059044  1  0  -0.160883  0  3.778549  0  0  -0.175397  0  4.028631  0  0  -0.17999  0  4.048282  0  0  -0.102381  -0.172546  0  4.015893  0
C  C64  1  0.46109269  0.22905395  0.70280807  1  0  0.145638  0  3.799041  0  0  0.130514  0  4.047236  0  0  0.138575  0  4.068034  0  0  0.09779  0.125248  0  4.032984  0
C  C65  1  0.53890879  0.77094672  0.29718785  1  0  0.145582  0  3.799237  0  0  0.130499  0  4.047353  0  0  0.138558  0  4.068149  0  0  0.097804  0.125263  0  4.033041  0
C  C66  1  0.34821925  0.27266721  0.69614983  1  0  -0.020544  0  3.828536  0  0  -0.009568  0  4.06443  0  0  -0.013182  0  4.089259  0  0  -0.016448  -0.007136  0  4.047599  0
C  C67  1  0.65177862  0.72732758  0.30384609  1  0  -0.020561  0  3.828608  0  0  -0.009586  0  4.064488  0  0  -0.013196  0  4.089315  0  0  -0.016422  -0.007126  0  4.047617  0
C  C68  1  0.26160738  0.26761653  0.76551667  1  0  -0.152326  0  3.696291  0  0  -0.179739  0  3.943755  0  0  -0.179758  0  3.961156  0  0  -0.080901  -0.179575  0  3.932165  0
C  C69  1  0.73838993  0.73238028  0.23448069  1  0  -0.152328  0  3.696244  0  0  -0.179765  0  3.943701  0  0  -0.179785  0  3.961099  0  0  -0.080909  -0.1796  0  3.932078  0
C  C70  1  0.66298758  0.07624934  0.52299818  1  0  -0.31059  0  3.699463  0  0  -0.387895  0  3.946428  0  0  -0.391102  0  3.957716  0  0  -0.245843  -0.38552  0  3.938699  0
C  C71  1  0.33701271  0.92374939  0.47699849  1  0  -0.310618  0  3.699526  0  0  -0.387961  0  3.946498  0  0  -0.391142  0  3.957762  0  0  -0.245856  -0.385576  0  3.93873  0
C  C72  1  0.26927648  0.37072214  0.56895964  1  0  -0.153681  0  3.704541  0  0  -0.181155  0  3.953668  0  0  -0.181917  0  3.972025  0  0  -0.08236  -0.180486  0  3.941249  0
C  C73  1  0.73071962  0.62927272  0.43103772  1  0  -0.153634  0  3.704478  0  0  -0.181109  0  3.953598  0  0  -0.181875  0  3.971956  0  0  -0.082318  -0.180415  0  3.94115  0
C  C74  1  0.16089588  0.56281283  0.50090400  1  0  -0.064325  0  3.657348  0  0  -0.10339  0  3.916035  0  0  -0.102192  0  3.934668  0  0  0.003631  -0.104068  0  3.903467  0
C  C75  1  0.83909732  0.43718610  0.49909694  1  0  -0.064233  0  3.657248  0  0  -0.103303  0  3.915919  0  0  -0.102105  0  3.934556  0  0  0.003724  -0.103905  0  3.903286  0
C  C76  1  0.09464953  0.58523385  0.42446191  1  0  0.007828  0  3.739226  0  0  -0.02692  0  4.005172  0  0  -0.024795  0  4.023749  0  0  0.00372  -0.028497  0  3.992834  0
C  C77  1  0.90534832  0.41476606  0.57554028  1  0  0.007778  0  3.739101  0  0  -0.027021  0  4.005062  0  0  -0.024898  0  4.023639  0  0  0.003765  -0.028534  0  3.992676  0
C  C78  1  0.07879635  0.71521411  0.20429925  1  0  0.623033  0  3.951082  0  0  0.573985  0  4.249543  0  0  0.607929  0  4.242775  0  0  0.191906  0.550899  0  4.253401  0
C  C79  1  0.92119958  0.28478487  0.79570402  1  0  0.622949  0  3.951139  0  0  0.57388  0  4.24963  0  0  0.607826  0  4.242863  0  0  0.191946  0.550852  0  4.253452  0
C  C80  1  0.13228710  0.96101388  0.27227372  1  0  -0.043782  0  3.747149  0  0  -0.06402  0  3.990124  0  0  -0.062264  0  4.009499  0  0  -0.078265  -0.064729  0  3.976656  0
C  C81  1  0.86770808  0.03898608  0.72772913  1  0  -0.044005  0  3.747082  0  0  -0.064274  0  3.990106  0  0  -0.062514  0  4.009474  0  0  -0.078275  -0.064913  0  3.976584  0
C  C82  1  0.26324901  0.92691190  0.09312288  1  0  -0.186489  0  3.750241  0  0  -0.20491  0  4.001118  0  0  -0.211255  0  4.021901  0  0  -0.101289  -0.200631  0  3.987256  0
C  C83  1  0.73675290  0.07308509  0.90688211  1  0  -0.186394  0  3.750171  0  0  -0.204803  0  4.001048  0  0  -0.211156  0  4.021828  0  0  -0.101227  -0.200476  0  3.987186  0
C  C84  1  0.25587079  0.05398734  0.17551410  1  0  0.264799  0  3.791288  0  0  0.255804  0  4.051509  0  0  0.26638  0  4.067611  0  0  0.08091  0.248747  0  4.040332  0
C  C85  1  0.74412764  0.94601057  0.82448740  1  0  0.26483  0  3.791212  0  0  0.255761  0  4.051514  0  0  0.26634  0  4.067618  0  0  0.080987  0.248728  0  4.040394  0
C  C86  1  0.19028998  0.07206123  0.26478987  1  0  -0.173634  0  3.747975  0  0  -0.19286  0  3.997105  0  0  -0.198376  0  4.017088  0  0  -0.099875  -0.189191  0  3.983681  0
C  C87  1  0.80970305  0.92793669  0.73520997  1  0  -0.173501  0  3.747722  0  0  -0.192722  0  3.996876  0  0  -0.198239  0  4.016857  0  0  -0.099849  -0.189045  0  3.983428  0
C  C88  1  0.47160572  0.30198230  0.14516832  1  0  -0.193621  0  3.746501  0  0  -0.213544  0  4.007131  0  0  -0.219332  0  4.023883  0  0  -0.106003  -0.20974  0  3.995818  0
C  C89  1  0.52839467  0.69801661  0.85483434  1  0  -0.193488  0  3.746459  0  0  -0.21343  0  4.007125  0  0  -0.219215  0  4.023874  0  0  -0.105991  -0.209647  0  3.995862  0
C  C90  1  0.59578760  0.34305011  0.15220263  1  0  -0.038516  0  3.741818  0  0  -0.06175  0  3.990216  0  0  -0.05865  0  4.00908  0  0  -0.081313  -0.063574  0  3.977563  0
C  C91  1  0.40421577  0.65695073  0.84779933  1  0  -0.038608  0  3.741947  0  0  -0.061848  0  3.99035  0  0  -0.058743  0  4.009214  0  0  -0.081312  -0.063629  0  3.977605  0
C  C92  1  0.63728421  0.17325862  0.20419216  1  0  -0.057787  0  3.775434  0  0  -0.079389  0  4.023653  0  0  -0.076296  0  4.041368  0  0  -0.087664  -0.081168  0  4.011361  0
C  C93  1  0.36271898  0.82674119  0.79580869  1  0  -0.057841  0  3.775557  0  0  -0.079463  0  4.023771  0  0  -0.076369  0  4.041486  0  0  -0.087677  -0.08124  0  4.011442  0
C  C94  1  0.68017402  0.27880708  0.18126803  1  0  -0.09932  0  3.790231  0  0  -0.079467  0  4.027656  0  0  -0.089594  0  4.052035  0  0  -0.034551  -0.073063  0  4.011525  0
C  C95  1  0.31982878  0.72119578  0.81873537  1  0  -0.099287  0  3.79027  0  0  -0.079414  0  4.027669  0  0  -0.089551  0  4.05206  0  0  -0.034526  -0.072946  0  4.01135  0
C  C96  1  0.81430166  0.31834575  0.18596753  1  0  0.618848  0  3.957184  0  0  0.572074  0  4.253849  0  0  0.605449  0  4.247665  0  0  0.190238  0.549438  0  4.257315  0
C  C97  1  0.18569919  0.68165610  0.81403471  1  0  0.618738  0  3.957256  0  0  0.571956  0  4.25394  0  0  0.605336  0  4.247755  0  0  0.190092  0.549284  0  4.257266  0
C  C98  1  0.30138648  0.39965507  0.48284240  1  0  0.136218  0  3.808543  0  0  0.127611  0  4.065409  0  0  0.130149  0  4.088525  0  0  0.075873  0.125666  0  4.05004  0
C  C99  1  0.69861256  0.60034678  0.51715904  1  0  0.136164  0  3.808646  0  0  0.127564  0  4.065514  0  0  0.130101  0  4.088629  0  0  0.075878  0.125671  0  4.050114  0
C  C100  1  0.40983347  0.37019355  0.43594683  1  0  -0.129368  0  3.775718  0  0  -0.15408  0  4.035323  0  0  -0.155012  0  4.056223  0  0  -0.093456  -0.153271  0  4.021188  0
C  C101  1  0.59016731  0.62980819  0.56405167  1  0  -0.129407  0  3.775792  0  0  -0.154142  0  4.035377  0  0  -0.155072  0  4.056278  0  0  -0.093397  -0.153292  0  4.021219  0
C  C102  1  0.49132161  0.31414035  0.47604231  1  0  -0.149281  0  3.766825  0  0  -0.168203  0  4.026868  0  0  -0.172226  0  4.046166  0  0  -0.099669  -0.165606  0  4.013916  0
C  C103  1  0.50867721  0.68586039  0.52395503  1  0  -0.149165  0  3.766634  0  0  -0.168064  0  4.026663  0  0  -0.172091  0  4.04596  0  0  -0.099567  -0.165423  0  4.013709  0
C  C104  1  0.46243018  0.28963056  0.56521497  1  0  0.140459  0  3.798036  0  0  0.124642  0  4.049922  0  0  0.132577  0  4.070266  0  0  0.096351  0.119225  0  4.036137  0
C  C105  1  0.53756869  0.71036513  0.43477834  1  0  0.14048  0  3.797997  0  0  0.124684  0  4.049874  0  0  0.132619  0  4.070216  0  0  0.096412  0.11929  0  4.036048  0
C  C106  1  0.65323583  0.21630688  0.60951611  1  0  0.061645  0  3.648717  0  0  0.006755  0  3.910036  0  0  0.012492  0  3.921783  0  0  -0.055917  0.003016  0  3.901948  0
C  C107  1  0.34676339  0.78369084  0.39047943  1  0  0.061579  0  3.648582  0  0  0.006736  0  3.909953  0  0  0.012478  0  3.921689  0  0  -0.055909  0.002994  0  3.901839  0
C  C108  1  0.35001408  0.31410640  0.60979464  1  0  -0.013683  0  3.826891  0  0  -0.003507  0  4.064225  0  0  -0.006591  0  4.089329  0  0  -0.014351  -0.001468  0  4.047373  0
C  C109  1  0.64998501  0.68589037  0.39020203  1  0  -0.013746  0  3.82691  0  0  -0.003589  0  4.064269  0  0  -0.006669  0  4.08937  0  0  -0.01437  -0.001519  0  4.047388  0
C  C110  1  0.20537494  0.81639230  0.10193417  1  0  -0.049408  0  3.732985  0  0  -0.072521  0  3.982899  0  0  -0.070608  0  4.002268  0  0  -0.082872  -0.073855  0  3.970352  0
C  C111  1  0.79462389  0.18360774  0.89807253  1  0  -0.04947  0  3.733164  0  0  -0.072591  0  3.983108  0  0  -0.070672  0  4.002475  0  0  -0.082884  -0.073885  0  3.970512  0
C  C112  1  0.19125907  0.42297487  0.33029663  1  0  0.166259  0  3.625192  0  0  0.106274  0  3.890429  0  0  0.120531  0  3.900031  0  0  0.142523  0.096933  0  3.883947  0
C  C113  1  0.80873639  0.57702701  0.66970470  1  0  0.166259  0  3.625186  0  0  0.106263  0  3.890446  0  0  0.12052  0  3.900049  0  0  0.142483  0.096875  0  3.883936  0
C  C114  1  0.13990113  0.83249617  0.19167634  1  0  -0.082948  0  3.768409  0  0  -0.063136  0  4.005576  0  0  -0.072567  0  4.030029  0  0  -0.025569  -0.057168  0  3.989244  0
C  C115  1  0.86009467  0.16750186  0.80832806  1  0  -0.082854  0  3.768477  0  0  -0.063022  0  4.00563  0  0  -0.072452  0  4.030076  0  0  -0.025449  -0.056995  0  3.98926  0
C  C116  1  0.43075979  0.19636704  0.16872828  1  0  0.284842  0  3.796012  0  0  0.271382  0  4.060645  0  0  0.28448  0  4.074104  0  0  0.086686  0.262525  0  4.051291  0
C  C117  1  0.56924341  0.80363280  0.83127332  1  0  0.284802  0  3.795938  0  0  0.271328  0  4.06058  0  0  0.284426  0  4.074037  0  0  0.086671  0.26245  0  4.051319  0
C  C118  1  0.51350818  0.13180791  0.19857291  1  0  -0.207629  0  3.787177  0  0  -0.225159  0  4.038693  0  0  -0.232216  0  4.058781  0  0  -0.111961  -0.220441  0  4.025076  0
C  C119  1  0.48649487  0.86819095  0.80142908  1  0  -0.207508  0  3.787241  0  0  -0.22503  0  4.038766  0  0  -0.232084  0  4.058852  0  0  -0.111915  -0.220338  0  4.025254  0
N  N120  1  0.09100051  0.30949104  0.05133966  1  0  -0.378991  0  3.304859  0  0  -0.298673  0  3.606459  0  0  -0.318455  0  3.619041  0  0  -0.356825  -0.285285  0  3.597695  0
N  N121  1  0.90900174  0.69050869  0.94865817  1  0  -0.378832  0  3.304781  0  0  -0.298597  0  3.606487  0  0  -0.31838  0  3.61907  0  0  -0.356672  -0.285075  0  3.597593  0
N  N122  1  0.20548287  0.22258288  0.91759430  1  0  -0.087908  0  3.616692  0  0  0.002951  0  3.831196  0  0  -0.011453  0  3.858266  0  0  -0.224453  0.012535  0  3.812613  0
N  N123  1  0.79452122  0.77742279  0.08240498  1  0  -0.087861  0  3.616595  0  0  0.002966  0  3.831097  0  0  -0.011437  0  3.858168  0  0  -0.224376  0.012628  0  3.812472  0
N  N124  1  0.52906403  0.24128774  0.62395023  1  0  -0.164611  0  3.482393  0  0  -0.081552  0  3.707961  0  0  -0.099584  0  3.731472  0  0  -0.253543  -0.069119  0  3.691368  0
N  N125  1  0.47093605  0.75870993  0.37604383  1  0  -0.164703  0  3.482458  0  0  -0.081684  0  3.708048  0  0  -0.09972  0  3.731558  0  0  -0.253623  -0.069251  0  3.691415  0
N  N126  1  0.22203056  0.45960632  0.43999051  1  0  -0.088912  0  3.614933  0  0  0.000848  0  3.828467  0  0  -0.013314  0  3.854159  0  0  -0.22632  0.010275  0  3.810981  0
N  N127  1  0.77796743  0.54039454  0.56001054  1  0  -0.08891  0  3.615097  0  0  0.000847  0  3.828633  0  0  -0.013316  0  3.854327  0  0  -0.226394  0.010184  0  3.81114  0
N  N128  1  0.11417992  0.49730943  0.31888589  1  0  -0.373844  0  3.327671  0  0  -0.295021  0  3.626726  0  0  -0.314059  0  3.638389  0  0  -0.354349  -0.282151  0  3.618958  0
N  N129  1  0.88581677  0.50269446  0.68111694  1  0  -0.373858  0  3.327602  0  0  -0.295031  0  3.626671  0  0  -0.314072  0  3.638339  0  0  -0.354315  -0.282106  0  3.618887  0
O  O130  1  0.30708939  0.16748766  0.16736594  1  0  -0.313773  0  2.407492  0  0  -0.240976  0  2.635813  0  0  -0.26066  0  2.640306  0  0  -0.151943  -0.22694  0  2.632134  0
O  O131  1  0.69291399  0.83251319  0.83263677  1  0  -0.313784  0  2.40757  0  0  -0.240939  0  2.635904  0  0  -0.260618  0  2.640387  0  0  -0.151974  -0.226943  0  2.632293  0
O  O132  1  0.88644261  0.25176940  0.20321713  1  0  -0.620937  0  1.879637  0  0  -0.578813  0  2.094881  0  0  -0.599735  0  2.086185  0  0  -0.336947  -0.563944  0  2.100519  0
O  O133  1  0.11355819  0.74823236  0.79678212  1  0  -0.620924  0  1.879651  0  0  -0.578799  0  2.094898  0  0  -0.599724  0  2.086203  0  0  -0.337099  -0.564149  0  2.100561  0
O  O134  1  0.84664242  0.42280539  0.17059820  1  0  -0.647544  0  2.02544  0  0  -0.576262  0  2.30207  0  0  -0.604289  0  2.285533  0  0  -0.337396  -0.556348  0  2.312962  0
O  O135  1  0.15335575  0.57719649  0.82940396  1  0  -0.647445  0  2.025483  0  0  -0.576174  0  2.302126  0  0  -0.604202  0  2.285589  0  0  -0.33748  -0.556459  0  2.313061  0
O  O136  1  0.09176273  0.59888682  0.12848783  1  0  -0.651297  0  2.033606  0  0  -0.581808  0  2.306258  0  0  -0.61063  0  2.291996  0  0  -0.337529  -0.561508  0  2.315477  0
O  O137  1  0.90823328  0.40111299  0.87151056  1  0  -0.651265  0  2.033719  0  0  -0.581753  0  2.306366  0  0  -0.610576  0  2.292103  0  0  -0.337473  -0.561433  0  2.315552  0
O  O138  1  0.02125988  0.73336161  0.28587126  1  0  -0.62319  0  1.907828  0  0  -0.579117  0  2.129971  0  0  -0.600902  0  2.119458  0  0  -0.330018  -0.563842  0  2.136914  0
O  O139  1  0.97873428  0.26663742  0.71413271  1  0  -0.623162  0  1.907819  0  0  -0.579095  0  2.129966  0  0  -0.60088  0  2.119455  0  0  -0.330018  -0.563768  0  2.136866  0
