# generated using pymatgen
data_CuH12C11S(N2O3)2
_symmetry_space_group_name_H-M   'P 1'
_cell_length_a   5.00800768
_cell_length_b   16.81637401
_cell_length_c   18.18700551
_cell_angle_alpha   90.00001198
_cell_angle_beta   91.96384455
_cell_angle_gamma   90.00007739
_symmetry_Int_Tables_number   1
_chemical_formula_structural   CuH12C11S(N2O3)2
_chemical_formula_sum   'Cu4 H48 C44 S4 N16 O24'
_cell_volume   1530.74688695
_cell_formula_units_Z   4
loop_
 _symmetry_equiv_pos_site_id
 _symmetry_equiv_pos_as_xyz
  1  'x, y, z'
loop_
 _atom_site_type_symbol
 _atom_site_label
 _atom_site_symmetry_multiplicity
 _atom_site_fract_x
 _atom_site_fract_y
 _atom_site_fract_z
 _atom_site_occupancy
 _atom_site_pbe_bader_charge
 _atom_site_pbe_bader_spin_density
 _atom_site_pbe_cm5_charge
 _atom_site_pbe_ddec_charge
 _atom_site_pbe_ddec_spin_density
 _atom_site_pbe_ddec_sum_bond_order
 _atom_site_pbe_magmom
Cu  Cu0  1  0.36781975  0.36578049  0.11841044  1  1.099043  -0.590685  0.761335  0.844772  -0.76921  2.216901  -0.589
Cu  Cu1  1  0.63217934  0.86578194  0.38158840  1  1.099034  0.590682  0.761323  0.844731  0.769208  2.216857  0.589
Cu  Cu2  1  0.63218640  0.63422197  0.88158941  1  1.099046  -0.590689  0.761334  0.84484  -0.769218  2.216851  -0.589
Cu  Cu3  1  0.36781482  0.13422171  0.61841189  1  1.099042  0.590688  0.761341  0.84475  0.769219  2.216941  0.589
H  H4  1  0.72322135  0.49390687  0.11934341  1  0.135466  -0.002771  0.118865  0.104624  -0.001361  1.042649  -0.002
H  H5  1  0.27677833  0.99390758  0.38065656  1  0.135493  0.002772  0.118882  0.104647  0.001361  1.042622  0.002
H  H6  1  0.27677481  0.50609499  0.88065745  1  0.135425  -0.002771  0.118851  0.104588  -0.001361  1.042652  -0.002
H  H7  1  0.72322582  0.00609368  0.61934217  1  0.135436  0.002772  0.118862  0.104619  0.001361  1.042611  0.002
H  H8  1  0.58239123  0.63836428  0.31040618  1  0.130555  0.000103  0.117696  0.142241  0.000163  0.996291  0.0
H  H9  1  0.41760881  0.13836644  0.18959317  1  0.130515  -0.000103  0.117671  0.142217  -0.000163  0.996317  0.0
H  H10  1  0.41760693  0.36163520  0.68959634  1  0.130594  0.000103  0.117702  0.142252  0.000164  0.996261  0.0
H  H11  1  0.58239534  0.86163423  0.81040391  1  0.130555  -0.000103  0.1177  0.142261  -0.000164  0.996266  0.0
H  H12  1  0.24324110  0.53805127  0.34670722  1  0.088905  -0.001383  0.111712  0.118969  -0.000721  0.978916  -0.001
H  H13  1  0.75675049  0.03805237  0.15329038  1  0.088897  0.001383  0.111722  0.119023  0.000721  0.978895  0.001
H  H14  1  0.75675506  0.46194642  0.65329474  1  0.088966  -0.001383  0.111743  0.118947  -0.000721  0.978951  -0.001
H  H15  1  0.24324567  0.96194473  0.84670497  1  0.088942  0.001383  0.111737  0.118943  0.000721  0.978982  0.001
H  H16  1  0.15790811  0.41768761  0.26483234  1  0.171716  -0.002135  0.116628  0.104052  -0.001055  1.043829  -0.002
H  H17  1  0.84208522  0.91768732  0.23516480  1  0.17199  0.002136  0.116653  0.104126  0.001055  1.043778  0.002
H  H18  1  0.84209803  0.58231009  0.73516695  1  0.171722  -0.002135  0.116639  0.104053  -0.001055  1.043828  -0.002
H  H19  1  0.15790494  0.08230859  0.76483270  1  0.171704  0.002135  0.116643  0.104069  0.001055  1.043859  0.002
H  H20  1  0.93300835  0.66728675  0.23958659  1  0.54682  -0.000198  0.307582  0.290422  -0.000128  1.003544  0.0
H  H21  1  0.06699183  0.16728819  0.26041387  1  0.546811  0.000198  0.307554  0.290374  0.000128  1.003576  0.0
H  H22  1  0.06698981  0.33271332  0.76041593  1  0.546833  -0.000198  0.307583  0.290434  -0.000128  1.003534  0.0
H  H23  1  0.93300832  0.83271129  0.73958318  1  0.54683  0.000198  0.307571  0.290353  0.000128  1.003627  0.0
H  H24  1  0.15222102  0.74408436  0.17399897  1  0.55255  -0.000171  0.303432  0.284778  -9.4e-05  1.023767  0.0
H  H25  1  0.84777950  0.24408374  0.32600151  1  0.552327  0.000171  0.303427  0.284767  9.4e-05  1.023809  0.0
H  H26  1  0.84777514  0.25591750  0.82600299  1  0.552366  -0.000171  0.303429  0.284771  -9.4e-05  1.02377  0.0
H  H27  1  0.15222664  0.75591633  0.67399669  1  0.552364  0.000171  0.303454  0.284818  9.4e-05  1.023791  0.0
H  H28  1  0.30253619  0.62729403  0.00217652  1  0.149375  -0.002768  0.120191  0.107715  -0.001375  1.039004  -0.002
H  H29  1  0.69745781  0.12729280  0.49782277  1  0.149232  0.002768  0.120179  0.107707  0.001375  1.038938  0.002
H  H30  1  0.69745398  0.37270664  0.99782373  1  0.149255  -0.002768  0.120172  0.107684  -0.001375  1.038938  -0.002
H  H31  1  0.30254834  0.87270787  0.50217653  1  0.149231  0.002767  0.120218  0.107779  0.001374  1.038922  0.002
H  H32  1  0.87255654  0.78875652  0.93718167  1  0.166836  -0.002249  0.119443  0.103861  -0.001115  1.017828  -0.002
H  H33  1  0.12744539  0.28875615  0.56281967  1  0.166829  0.002249  0.119437  0.103867  0.001115  1.017796  0.002
H  H34  1  0.12744561  0.21124355  0.06282199  1  0.166799  -0.002249  0.119435  0.103864  -0.001115  1.017794  -0.002
H  H35  1  0.87255876  0.71124570  0.43717741  1  0.166761  0.002249  0.119428  0.103857  0.001115  1.017765  0.002
H  H36  1  0.82072152  0.87021571  0.05338363  1  0.090307  -0.001406  0.111868  0.116724  -0.000727  0.978859  -0.001
H  H37  1  0.17927759  0.37021664  0.44661740  1  0.09031  0.001406  0.111884  0.116736  0.000727  0.978814  0.001
H  H38  1  0.17927664  0.12978198  0.94662054  1  0.090379  -0.001406  0.111902  0.116758  -0.000727  0.978826  -0.001
H  H39  1  0.82072855  0.62978403  0.55337970  1  0.090308  0.001406  0.11188  0.116719  0.000727  0.978848  0.001
H  H40  1  0.49263060  0.82507453  0.14585839  1  0.153341  -0.00012  0.117127  0.134489  -6.3e-05  0.994088  0.0
H  H41  1  0.50736631  0.32507438  0.35414152  1  0.153354  0.00012  0.117119  0.134486  6.3e-05  0.994101  0.0
H  H42  1  0.50736556  0.17492316  0.85414412  1  0.15338  -0.00012  0.117122  0.134525  -6.3e-05  0.994078  0.0
H  H43  1  0.49263983  0.67492450  0.64585503  1  0.153421  0.00012  0.117118  0.134507  6.3e-05  0.994138  0.0
H  H44  1  0.17716986  0.49862537  0.06325915  1  0.650043  -0.000324  0.300843  0.394357  -0.000735  0.939493  -0.001
H  H45  1  0.82282385  0.99862572  0.43674076  1  0.650056  0.000324  0.300837  0.39433  0.000735  0.939532  0.001
H  H46  1  0.82282630  0.50137530  0.93674226  1  0.650089  -0.000324  0.300798  0.394304  -0.000735  0.939587  -0.001
H  H47  1  0.17717231  0.00137495  0.56325844  1  0.650047  0.000325  0.300862  0.394387  0.000735  0.939452  0.001
H  H48  1  0.17097849  0.43260292  0.99931908  1  0.645315  -0.000325  0.301639  0.395335  -0.000738  0.937812  -0.001
H  H49  1  0.82901611  0.93260258  0.50068001  1  0.645333  0.000325  0.30163  0.395305  0.000738  0.937866  0.001
H  H50  1  0.82902166  0.56739894  0.00068291  1  0.645273  -0.000326  0.301638  0.395348  -0.000738  0.937815  -0.001
H  H51  1  0.17097805  0.06739750  0.49931807  1  0.645305  0.000325  0.301628  0.395301  0.000738  0.937861  0.001
C  C52  1  0.62373968  0.50612649  0.17003479  1  0.498651  0.000533  0.032777  -0.018282  -0.000659  3.894358  0.0
C  C53  1  0.37626174  0.00612688  0.32996345  1  0.498453  -0.000532  0.032803  -0.018212  0.000659  3.894294  0.0
C  C54  1  0.37626047  0.49387417  0.82996611  1  0.498664  0.000532  0.032812  -0.018167  -0.000659  3.894319  0.0
C  C55  1  0.62374041  0.99387438  0.67003526  1  0.498902  -0.000532  0.032795  -0.018203  0.00066  3.894433  0.0
C  C56  1  0.68630567  0.57342164  0.21268310  1  0.411715  -0.005843  0.105762  0.218754  -0.003961  4.01348  -0.005
C  C57  1  0.31369207  0.07342318  0.28731567  1  0.411987  0.005842  0.105725  0.218682  0.003961  4.013417  0.005
C  C58  1  0.31369049  0.42657903  0.78731886  1  0.411741  -0.005842  0.105713  0.218654  -0.003961  4.013485  -0.005
C  C59  1  0.68631207  0.92657809  0.71268086  1  0.411746  0.005843  0.105718  0.218615  0.003961  4.013508  0.005
C  C60  1  0.54620694  0.58486344  0.27767531  1  -0.036133  0.004153  -0.068454  -0.123215  0.002857  3.881958  0.003
C  C61  1  0.45378885  0.08486443  0.22232454  1  -0.036219  -0.004152  -0.068383  -0.123154  -0.002857  3.882129  -0.003
C  C62  1  0.45379121  0.41513663  0.72232721  1  -0.036209  0.004153  -0.068384  -0.123106  0.002857  3.881929  0.003
C  C63  1  0.54621130  0.91513505  0.77767361  1  -0.036222  -0.004152  -0.068334  -0.12304  -0.002857  3.88193  -0.003
C  C64  1  0.35720147  0.52905946  0.29742912  1  -0.003554  -0.005625  -0.083451  -0.106805  -0.003918  4.003233  -0.005
C  C65  1  0.64279207  0.02906052  0.20256849  1  -0.003553  0.005626  -0.08351  -0.106913  0.003919  4.003312  0.005
C  C66  1  0.64279868  0.47093883  0.70257342  1  -0.003513  -0.005625  -0.083532  -0.10683  -0.003918  4.003346  -0.005
C  C67  1  0.35720209  0.97093718  0.79742739  1  -0.003486  0.005625  -0.083589  -0.106911  0.003918  4.003367  0.005
C  C68  1  0.30563390  0.46316117  0.25261010  1  0.418366  0.001171  0.036278  0.06157  0.000181  3.931303  0.001
C  C69  1  0.69435564  0.96316321  0.24738921  1  0.418247  -0.001171  0.036243  0.061466  -0.000181  3.931336  -0.001
C  C70  1  0.69436825  0.53683771  0.74739136  1  0.418343  0.001171  0.036277  0.061563  0.000181  3.931337  0.001
C  C71  1  0.30563252  0.03683686  0.75260827  1  0.418418  -0.001172  0.036277  0.061535  -0.000182  3.93131  -0.001
C  C72  1  0.02234806  0.63534923  0.13343392  1  1.840554  -0.000356  0.346568  0.644924  -0.000314  4.135573  0.0
C  C73  1  0.97764997  0.13534927  0.36656596  1  1.840567  0.000356  0.346602  0.645005  0.000313  4.135424  0.0
C  C74  1  0.97764610  0.36465143  0.86656746  1  1.840577  -0.000356  0.346599  0.644974  -0.000314  4.135395  0.0
C  C75  1  0.02235218  0.86465080  0.63343111  1  1.84056  0.000356  0.346654  0.645074  0.000313  4.135424  0.0
C  C76  1  0.36629998  0.72304240  0.08107345  1  0.371927  -0.005829  0.107335  0.221105  -0.003904  4.023097  -0.005
C  C77  1  0.63369845  0.22304231  0.41892645  1  0.37192  0.005829  0.107328  0.221109  0.003904  4.023012  0.005
C  C78  1  0.63369817  0.27695708  0.91892797  1  0.371957  -0.005829  0.107325  0.221009  -0.003904  4.02299  -0.005
C  C79  1  0.36630969  0.77695717  0.58107122  1  0.371862  0.005828  0.107303  0.221067  0.003904  4.02302  0.005
C  C80  1  0.41147970  0.68117666  0.01601363  1  0.529224  0.000719  0.033424  -0.020781  -0.000527  3.895356  0.0
C  C81  1  0.58851654  0.18117657  0.48398624  1  0.529377  -0.000719  0.033399  -0.02085  0.000527  3.895161  0.0
C  C82  1  0.58851246  0.31882342  0.98398773  1  0.529336  0.000719  0.033456  -0.0207  -0.000527  3.895032  0.0
C  C83  1  0.41148561  0.81882529  0.51601302  1  0.529328  -0.000719  0.033413  -0.020813  0.000527  3.895028  0.0
C  C84  1  0.73348045  0.77264185  0.97961019  1  0.449542  0.001476  0.039061  0.06861  0.000348  3.927918  0.001
C  C85  1  0.26651941  0.27264093  0.52039003  1  0.449468  -0.001476  0.039035  0.068526  -0.000348  3.927997  -0.001
C  C86  1  0.26651971  0.22735822  0.02039235  1  0.449047  0.001474  0.039092  0.068583  0.000348  3.927869  0.001
C  C87  1  0.73348474  0.72735974  0.47960650  1  0.449568  -0.001476  0.039072  0.068558  -0.000348  3.927756  -0.001
C  C88  1  0.70035194  0.81704548  0.04349197  1  -0.066471  -0.005497  -0.083934  -0.111478  -0.003769  4.011209  -0.004
C  C89  1  0.29964692  0.31704408  0.45650850  1  -0.066473  0.005496  -0.083947  -0.111466  0.003769  4.011183  0.004
C  C90  1  0.29964822  0.18295340  0.95651167  1  -0.066193  -0.005495  -0.083881  -0.111324  -0.00377  4.010994  -0.004
C  C91  1  0.70035922  0.68295540  0.54348805  1  -0.066586  0.005497  -0.083855  -0.111277  0.00377  4.01084  0.004
C  C92  1  0.51854911  0.79234274  0.09481478  1  -0.030155  0.003834  -0.069958  -0.129074  0.002596  3.89199  0.002
C  C93  1  0.48144764  0.29234319  0.40518567  1  -0.030155  -0.003834  -0.069954  -0.129107  -0.002596  3.891996  -0.002
C  C94  1  0.48144904  0.20765495  0.90518719  1  -0.030116  0.003834  -0.070026  -0.129271  0.002596  3.891979  0.002
C  C95  1  0.51855651  0.70765808  0.59481142  1  -0.030108  -0.003834  -0.070034  -0.129282  -0.002596  3.892098  -0.002
S  S96  1  0.83235523  0.28710072  0.19192972  1  3.744086  -0.000738  0.547671  1.396379  -0.002449  6.384007  0.001
S  S97  1  0.16764949  0.78710078  0.30807190  1  3.74412  0.000738  0.547709  1.396477  0.002448  6.383913  -0.001
S  S98  1  0.16764492  0.71289816  0.80807007  1  3.744119  -0.000737  0.547695  1.396405  -0.002448  6.383957  0.001
S  S99  1  0.83235866  0.21289810  0.69192961  1  3.744124  0.000738  0.54769  1.39638  0.002448  6.383918  -0.001
N  N100  1  0.43696019  0.45368947  0.19001891  1  -1.215678  -0.083945  -0.354447  -0.215905  -0.056621  3.663205  -0.072
N  N101  1  0.56303530  0.95369088  0.30997881  1  -1.215789  0.083941  -0.354403  -0.21583  0.056618  3.663234  0.072
N  N102  1  0.56303996  0.54631120  0.80998198  1  -1.215691  -0.08394  -0.354476  -0.21596  -0.056618  3.663142  -0.072
N  N103  1  0.43696285  0.04630979  0.69001822  1  -1.215928  0.083942  -0.354459  -0.215888  0.056619  3.663281  0.072
N  N104  1  0.87693213  0.63014555  0.19538850  1  -1.281692  -0.001487  -0.394086  -0.413991  -0.000832  3.561977  -0.001
N  N105  1  0.12306588  0.13014643  0.30461193  1  -1.281693  0.001487  -0.394048  -0.413931  0.000832  3.56188  0.001
N  N106  1  0.12306403  0.36985511  0.80461235  1  -1.281654  -0.001487  -0.394028  -0.413992  -0.000832  3.561875  -0.001
N  N107  1  0.87693427  0.86985424  0.69538732  1  -1.281668  0.001487  -0.39408  -0.413968  0.000832  3.561958  0.001
N  N108  1  0.18265558  0.70101324  0.13289479  1  -1.31969  -0.001476  -0.396073  -0.418844  -0.00081  3.574984  -0.001
N  N109  1  0.81733875  0.20101322  0.36710562  1  -1.319469  0.001476  -0.396069  -0.418839  0.00081  3.574979  0.001
N  N110  1  0.81733658  0.29898743  0.86710768  1  -1.319468  -0.001476  -0.396056  -0.41876  -0.00081  3.575078  -0.001
N  N111  1  0.18266340  0.79898745  0.63289254  1  -1.319395  0.001476  -0.3961  -0.418926  0.00081  3.575074  0.001
N  N112  1  0.59182675  0.70579982  0.96797875  1  -1.206835  -0.082955  -0.351002  -0.205572  -0.056064  3.657303  -0.071
N  N113  1  0.40817080  0.20579956  0.53202198  1  -1.206793  0.082953  -0.350947  -0.205428  0.056062  3.657274  0.071
N  N114  1  0.40816941  0.29419965  0.03202320  1  -1.206774  -0.082951  -0.351016  -0.205545  -0.056061  3.657223  -0.071
N  N115  1  0.59183534  0.79420170  0.46797567  1  -1.20672  0.082955  -0.350972  -0.205479  0.056063  3.657119  0.071
O  O116  1  0.00920001  0.58482644  0.08192038  1  -1.218795  -0.00224  -0.305825  -0.578059  -0.001357  2.266327  -0.002
O  O117  1  0.99079978  0.08482531  0.41807951  1  -1.218819  0.00224  -0.305838  -0.578097  0.001357  2.266251  0.002
O  O118  1  0.99080614  0.41517482  0.91808112  1  -1.218897  -0.00224  -0.305901  -0.578126  -0.001357  2.266202  -0.002
O  O119  1  0.00919238  0.91517239  0.58191856  1  -1.218865  0.002239  -0.305894  -0.578138  0.001356  2.266378  0.002
O  O120  1  0.52867195  0.28405898  0.18444149  1  -1.215392  -0.111746  -0.373387  -0.653686  -0.072473  2.306237  -0.098
O  O121  1  0.47133276  0.78405798  0.31555903  1  -1.215498  0.111748  -0.373447  -0.653756  0.072476  2.30617  0.098
O  O122  1  0.47132821  0.71594406  0.81556215  1  -1.215414  -0.111747  -0.373375  -0.65372  -0.072476  2.306222  -0.098
O  O123  1  0.52867539  0.21594269  0.68443974  1  -1.215366  0.111746  -0.373378  -0.653679  0.072475  2.306258  0.098
O  O124  1  0.90742601  0.31493671  0.26776643  1  -1.338788  -0.006332  -0.363915  -0.644403  -0.003942  2.173805  -0.005
O  O125  1  0.09257884  0.81493672  0.23223465  1  -1.338737  0.006331  -0.363917  -0.644448  0.003942  2.173772  0.005
O  O126  1  0.09258813  0.68506039  0.73223460  1  -1.338811  -0.006329  -0.363927  -0.644383  -0.00394  2.173833  -0.005
O  O127  1  0.90742332  0.18506156  0.76776626  1  -1.338805  0.00633  -0.363938  -0.64442  0.003941  2.173799  0.005
O  O128  1  0.93430646  0.20533520  0.18052794  1  -1.341967  -0.016537  -0.358169  -0.640535  -0.010662  2.170313  -0.014
O  O129  1  0.06569389  0.70533522  0.31947308  1  -1.341959  0.016538  -0.358158  -0.640545  0.010663  2.170277  0.014
O  O130  1  0.06568770  0.79466428  0.81947070  1  -1.341915  -0.016542  -0.358156  -0.640502  -0.010665  2.170259  -0.014
O  O131  1  0.93431625  0.29466426  0.68052791  1  -1.341967  0.01654  -0.358153  -0.640514  0.010664  2.170204  0.014
O  O132  1  0.93104030  0.34339111  0.13605687  1  -1.348744  -0.001264  -0.373876  -0.720551  -0.000563  2.340989  -0.003
O  O133  1  0.06897068  0.84339055  0.36394537  1  -1.34878  0.001264  -0.373865  -0.720551  0.000563  2.341065  0.003
O  O134  1  0.06895786  0.65660956  0.86394400  1  -1.348767  -0.001264  -0.373886  -0.720562  -0.000563  2.341013  -0.003
O  O135  1  0.93104147  0.15660774  0.63605729  1  -1.348773  0.001264  -0.373886  -0.720532  0.000563  2.341032  0.003
O  O136  1  0.27246893  0.45200356  0.04345512  1  -1.220559  -0.072486  -0.580677  -0.75252  -0.048483  2.219695  -0.064
O  O137  1  0.72752456  0.95200447  0.45654423  1  -1.220586  0.072486  -0.580684  -0.752482  0.048483  2.219764  0.064
O  O138  1  0.72754321  0.54800067  0.95654369  1  -1.220367  -0.072479  -0.580645  -0.752545  -0.04848  2.219738  -0.064
O  O139  1  0.27245562  0.04800036  0.54345702  1  -1.220374  0.072477  -0.580691  -0.752534  0.048479  2.219714  0.064
