# generated using pymatgen
data_CuH18C24(NO4)2
_symmetry_space_group_name_H-M   'P 1'
_cell_length_a   6.65847217
_cell_length_b   8.14733809
_cell_length_c   10.99290268
_cell_angle_alpha   83.79839943
_cell_angle_beta   75.83729221
_cell_angle_gamma   76.99608688
_symmetry_Int_Tables_number   1
_chemical_formula_structural   CuH18C24(NO4)2
_chemical_formula_sum   'Cu1 H18 C24 N2 O8'
_cell_volume   562.51074870
_cell_formula_units_Z   1
loop_
 _symmetry_equiv_pos_site_id
 _symmetry_equiv_pos_as_xyz
  1  'x, y, z'
loop_
 _atom_site_type_symbol
 _atom_site_label
 _atom_site_symmetry_multiplicity
 _atom_site_fract_x
 _atom_site_fract_y
 _atom_site_fract_z
 _atom_site_occupancy
 _atom_site_pbe_cm5_charge
 _atom_site_pbe_ddec_charge
 _atom_site_pbe_ddec_spin_density
 _atom_site_pbe_ddec_sum_bond_order
 _atom_site_pbe_magmom
Cu  Cu0  1  0.49999807  0.50000024  0.49999969  1  0.760536  0.769238  -0.721077  2.227441  -0.557
H  H1  1  0.96829868  0.72476300  0.81462346  1  0.294652  0.338996  4.9e-05  0.99858  0.0
H  H2  1  0.03170213  0.27523745  0.18537795  1  0.294648  0.338968  4.9e-05  0.99866  0.0
H  H3  1  0.11319905  0.47168190  0.61161012  1  0.292985  0.340053  0.00013  1.007221  0.0
H  H4  1  0.88679834  0.52831982  0.38839261  1  0.29302  0.340151  0.00013  1.007028  0.0
H  H5  1  0.61933568  0.72042414  0.65108817  1  0.12623  0.102879  -0.00094  0.99514  -0.001
H  H6  1  0.38066886  0.27957380  0.34890923  1  0.126231  0.102835  -0.00094  0.995169  -0.001
H  H7  1  0.60259870  0.73891579  0.87644608  1  0.112131  0.120111  -0.000539  1.02773  -0.001
H  H8  1  0.39739718  0.26107964  0.12355282  1  0.112138  0.12013  -0.000539  1.027701  -0.001
H  H9  1  0.41474795  0.25388331  0.94137069  1  0.11565  0.125998  -0.000524  1.002927  -0.001
H  H10  1  0.58525568  0.74611211  0.05862795  1  0.115624  0.125998  -0.000524  1.002835  -0.001
H  H11  1  0.45206634  0.25430734  0.71243314  1  0.125179  0.098755  -0.000917  0.998511  -0.002
H  H12  1  0.54793387  0.74568934  0.28756592  1  0.125176  0.098777  -0.000917  0.998468  -0.002
H  H13  1  0.86961938  0.12558397  0.94454696  1  0.102709  0.121865  -0.000176  1.00471  0.0
H  H14  1  0.13038266  0.87441774  0.05545507  1  0.10269  0.12182  -0.000176  1.004794  0.0
H  H15  1  0.97086664  0.37194546  0.80885605  1  0.101496  0.116568  1.2e-05  1.011076  0.0
H  H16  1  0.02913075  0.62805626  0.19114486  1  0.101507  0.116544  1.2e-05  1.01111  0.0
H  H17  1  0.25379226  0.05210620  0.49846554  1  0.107366  0.130009  -0.000367  0.99237  0.0
H  H18  1  0.74621441  0.94789550  0.50153307  1  0.107373  0.130024  -0.000367  0.992403  0.0
C  C19  1  0.57504291  0.62077712  0.71979102  1  0.05345  0.105677  0.001053  3.924474  0.0
C  C20  1  0.42495324  0.37922334  0.28020926  1  0.053522  0.105845  0.001053  3.924391  0.0
C  C21  1  0.56308123  0.62942761  0.84665351  1  -0.075642  -0.16015  -0.003555  3.91215  -0.004
C  C22  1  0.43691588  0.37056908  0.15334602  1  -0.075649  -0.160177  -0.003556  3.912075  -0.004
C  C23  1  0.50565627  0.49760692  0.93213394  1  0.016793  0.105036  0.003086  3.953294  0.002
C  C24  1  0.49434426  0.50238850  0.06786516  1  0.016759  0.104972  0.003086  3.953359  0.002
C  C25  1  0.46298313  0.36072820  0.88233124  1  -0.072349  -0.156023  -0.003561  3.909612  -0.004
C  C26  1  0.53701739  0.63926723  0.11766514  1  -0.072265  -0.155957  -0.003561  3.90951  -0.004
C  C27  1  0.48081990  0.35975555  0.75397773  1  0.056906  0.107926  0.001193  3.923251  0.0
C  C28  1  0.51918122  0.64024365  0.24602100  1  0.056903  0.107904  0.001193  3.92317  0.0
C  C29  1  0.16880281  0.76043483  0.62081223  1  0.209248  0.584269  -0.001  4.171686  0.001
C  C30  1  0.83119645  0.23956562  0.37918941  1  0.209221  0.584183  -0.001001  4.171533  0.001
C  C31  1  0.10600532  0.93109606  0.67036999  1  -0.043685  -0.175407  -0.006404  4.033489  -0.007
C  C32  1  0.89399672  0.06890564  0.32963295  1  -0.043691  -0.175377  -0.006403  4.033581  -0.007
C  C33  1  0.99096551  0.95235816  0.79663230  1  0.07096  0.27553  -0.00126  4.076226  -0.002
C  C34  1  0.00903775  0.04764481  0.20336854  1  0.070916  0.275542  -0.00126  4.076243  -0.002
C  C35  1  0.94863835  0.11120141  0.84590069  1  -0.111831  -0.192572  -0.00064  4.025485  -0.001
C  C36  1  0.05136245  0.88879904  0.15409980  1  -0.111867  -0.192632  -0.00064  4.025542  -0.001
C  C37  1  0.00734337  0.24830608  0.77006655  1  -0.107027  -0.191516  0.000214  4.012233  0.0
C  C38  1  0.99265898  0.75169438  0.22993281  1  -0.106995  -0.191418  0.000214  4.012203  0.0
C  C39  1  0.11177154  0.23012126  0.64293279  1  0.063686  0.296075  -0.000317  4.098185  0.0
C  C40  1  0.88823081  0.76987918  0.35706838  1  0.063682  0.296091  -0.000317  4.098232  0.0
C  C41  1  0.16609059  0.07044629  0.59526964  1  -0.103279  -0.192393  -0.000221  3.950148  0.0
C  C42  1  0.83391390  0.92955794  0.40473001  1  -0.103306  -0.192478  -0.000222  3.950328  0.0
N  N43  1  0.53284599  0.48867999  0.67428543  1  -0.352056  -0.222286  -0.055044  3.63183  -0.071
N  N44  1  0.46715421  0.51131670  0.32571272  1  -0.352123  -0.222389  -0.055043  3.631872  -0.071
O  O45  1  0.31867711  0.73344012  0.52223797  1  -0.317154  -0.529894  -0.067876  2.325496  -0.096
O  O46  1  0.68132028  0.26656159  0.47776476  1  -0.317117  -0.529844  -0.067877  2.325353  -0.096
O  O47  1  0.07544007  0.64494353  0.68272214  1  -0.30936  -0.557346  -0.001628  2.263442  -0.003
O  O48  1  0.92455667  0.35506071  0.31727866  1  -0.3094  -0.557346  -0.001627  2.263354  -0.003
O  O49  1  0.92518014  0.82177732  0.87243003  1  -0.36975  -0.476215  -0.000349  2.306896  0.0
O  O50  1  0.07482377  0.17822313  0.12757091  1  -0.369707  -0.47617  -0.000349  2.307007  0.0
O  O51  1  0.16352398  0.36417928  0.56518797  1  -0.367583  -0.50056  0.000121  2.415622  -0.001
O  O52  1  0.83647243  0.63582623  0.43481279  1  -0.36755  -0.50062  0.00012  2.415538  -0.001
