# generated using pymatgen
data_CdH22C22N6(ClO4)2
_symmetry_space_group_name_H-M   'P 1'
_cell_length_a   8.48758730
_cell_length_b   9.55765464
_cell_length_c   17.69900000
_cell_angle_alpha   85.78712693
_cell_angle_beta   80.47676220
_cell_angle_gamma   63.63933679
_symmetry_Int_Tables_number   1
_chemical_formula_structural   CdH22C22N6(ClO4)2
_chemical_formula_sum   'Cd2 H44 C44 N12 Cl4 O16'
_cell_volume   1268.74299731
_cell_formula_units_Z   2
loop_
 _symmetry_equiv_pos_site_id
 _symmetry_equiv_pos_as_xyz
  1  'x, y, z'
loop_
 _atom_site_type_symbol
 _atom_site_label
 _atom_site_symmetry_multiplicity
 _atom_site_fract_x
 _atom_site_fract_y
 _atom_site_fract_z
 _atom_site_occupancy
 _atom_site_hle17_bader_spin_density
 _atom_site_hle17_ddec_charge
 _atom_site_hle17_ddec_spin_density
 _atom_site_hle17_ddec_sum_bond_order
 _atom_site_hle17_magmom
 _atom_site_hse06_10hf_bader_spin_density
 _atom_site_hse06_10hf_ddec_charge
 _atom_site_hse06_10hf_ddec_spin_density
 _atom_site_hse06_10hf_ddec_sum_bond_order
 _atom_site_hse06_10hf_magmom
 _atom_site_hse06_bader_spin_density
 _atom_site_hse06_ddec_charge
 _atom_site_hse06_ddec_spin_density
 _atom_site_hse06_ddec_sum_bond_order
 _atom_site_hse06_magmom
 _atom_site_pbe_bader_charge
 _atom_site_pbe_bader_spin_density
 _atom_site_pbe_cm5_charge
 _atom_site_pbe_ddec_charge
 _atom_site_pbe_ddec_spin_density
 _atom_site_pbe_ddec_sum_bond_order
 _atom_site_pbe_magmom
Cd  Cd0  1  0.39155543  0.21722901  0.25002291  1  0  1.054158  0  1.719604  0  0  0.842137  0  2.167012  0  0  0.894745  0  2.124722  0  1.229018  0  0.800615  0.805026  0  2.195548  0
Cd  Cd1  1  0.60844435  0.78277107  0.74997721  1  0  1.054168  0  1.719583  0  0  0.84213  0  2.166988  0  0  0.894732  0  2.124705  0  1.229035  0  0.800592  0.805021  0  2.195523  0
H  H2  1  0.67409644  0.02663064  0.13332625  1  0  0.275296  0  0.966055  0  0  0.256655  0  1.036379  0  0  0.263306  0  1.031275  0  0.499946  0  0.295178  0.251981  0  1.039976  0
H  H3  1  0.29983242  0.02657342  0.36663948  1  0  0.274781  0  0.966895  0  0  0.256932  0  1.036088  0  0  0.263634  0  1.030931  0  0.504504  0  0.295025  0.251847  0  1.040574  0
H  H4  1  0.32590454  0.97336944  0.86667435  1  0  0.275333  0  0.966012  0  0  0.256671  0  1.036359  0  0  0.263322  0  1.031256  0  0.499952  0  0.295187  0.251999  0  1.039953  0
H  H5  1  0.70016559  0.97342783  0.63336018  1  0  0.274789  0  0.966894  0  0  0.256897  0  1.036116  0  0  0.263599  0  1.030958  0  0.504518  0  0.295016  0.251814  0  1.040599  0
H  H6  1  0.60656010  0.69186070  0.07700962  1  0  0.117293  0  0.965572  0  0  0.127367  0  1.026403  0  0  0.130764  0  1.025877  0  0.083856  0  0.105086  0.124913  0  1.027009  0
H  H7  1  0.70214379  0.69195762  0.42305451  1  0  0.116589  0  0.965691  0  0  0.126121  0  1.027393  0  0  0.12943  0  1.026957  0  0.076946  0  0.10478  0.123982  0  1.027422  0
H  H8  1  0.39343910  0.30814055  0.92298994  1  0  0.117314  0  0.965625  0  0  0.127413  0  1.026423  0  0  0.130809  0  1.025897  0  0.083834  0  0.105112  0.124966  0  1.027017  0
H  H9  1  0.29785600  0.30804246  0.57694449  1  0  0.116526  0  0.965611  0  0  0.126061  0  1.027312  0  0  0.129368  0  1.026879  0  0.076961  0  0.104792  0.123923  0  1.027341  0
H  H10  1  0.30694475  0.70547145  0.09108040  1  0  0.098782  0  0.946214  0  0  0.109381  0  1.006802  0  0  0.111456  0  1.005341  0  0.105965  0  0.10529  0.107921  0  1.007807  0
H  H11  1  0.98809356  0.70563026  0.40897037  1  0  0.098759  0  0.945538  0  0  0.109938  0  1.005668  0  0  0.11202  0  1.004225  0  0.109091  0  0.105203  0.108161  0  1.00712  0
H  H12  1  0.69305387  0.29453097  0.90891916  1  0  0.098765  0  0.946216  0  0  0.109368  0  1.006798  0  0  0.111443  0  1.005335  0  0.105972  0  0.105284  0.107909  0  1.007804  0
H  H13  1  0.01190561  0.29436866  0.59102872  1  0  0.098761  0  0.945547  0  0  0.10993  0  1.005691  0  0  0.112011  0  1.004249  0  0.109074  0  0.105194  0.108152  0  1.007143  0
H  H14  1  0.04396930  0.94141758  0.15668916  1  0  0.106033  0  0.959901  0  0  0.115554  0  1.021489  0  0  0.118527  0  1.021789  0  0.085472  0  0.100223  0.113514  0  1.021272  0
H  H15  1  0.01510467  0.94152384  0.34330866  1  0  0.105888  0  0.959667  0  0  0.115449  0  1.021107  0  0  0.118298  0  1.021563  0  0.085073  0  0.10061  0.113247  0  1.021418  0
H  H16  1  0.95602873  0.05858601  0.84331041  1  0  0.106098  0  0.95995  0  0  0.115634  0  1.021508  0  0  0.118593  0  1.021823  0  0.085471  0  0.100267  0.113596  0  1.021292  0
H  H17  1  0.98489869  0.05847625  0.65669231  1  0  0.1059  0  0.959704  0  0  0.115455  0  1.021156  0  0  0.118302  0  1.021611  0  0.08508  0  0.100626  0.113254  0  1.021468  0
H  H18  1  0.10447658  0.14366137  0.20949150  1  0  0.086925  0  0.952523  0  0  0.095411  0  1.016015  0  0  0.097878  0  1.013112  0  0.1114  0  0.112054  0.093695  0  1.017996  0
H  H19  1  0.75236062  0.14369990  0.29045772  1  0  0.086507  0  0.9521  0  0  0.094954  0  1.015914  0  0  0.097377  0  1.013072  0  0.117064  0  0.111909  0.093318  0  1.01752  0
H  H20  1  0.89552440  0.85633871  0.79050909  1  0  0.08691  0  0.952519  0  0  0.095374  0  1.016041  0  0  0.097837  0  1.013142  0  0.111399  0  0.112043  0.093658  0  1.018021  0
H  H21  1  0.24764097  0.85630135  0.70954334  1  0  0.086502  0  0.952098  0  0  0.094937  0  1.015933  0  0  0.097366  0  1.013073  0  0.117059  0  0.111902  0.093302  0  1.017537  0
H  H22  1  0.79302994  0.78230633  0.02067397  1  0  0.076252  0  0.91662  0  0  0.094516  0  0.975937  0  0  0.09471  0  0.976126  0  0.064614  0  0.111666  0.094458  0  0.97571  0
H  H23  1  0.42511943  0.78238223  0.47935160  1  0  0.076042  0  0.916876  0  0  0.093874  0  0.976479  0  0  0.094137  0  0.976651  0  0.070816  0  0.111254  0.093651  0  0.976338  0
H  H24  1  0.20696865  0.21769376  0.97932626  1  0  0.076239  0  0.916594  0  0  0.094478  0  0.975938  0  0  0.09467  0  0.976128  0  0.064631  0  0.111642  0.094435  0  0.975695  0
H  H25  1  0.57487855  0.21761669  0.52064815  1  0  0.076046  0  0.916865  0  0  0.093883  0  0.976478  0  0  0.094148  0  0.976651  0  0.070801  0  0.111257  0.093659  0  0.976337  0
H  H26  1  0.90812858  0.87983407  0.04648027  1  0  0.109533  0  0.925847  0  0  0.127227  0  0.983819  0  0  0.128236  0  0.983133  0  0.137096  0  0.121659  0.126519  0  0.984341  0
H  H27  1  0.21254882  0.87987261  0.45348866  1  0  0.109548  0  0.926701  0  0  0.127089  0  0.984438  0  0  0.128112  0  0.983791  0  0.138276  0  0.121578  0.126299  0  0.985041  0
H  H28  1  0.09187062  0.12016718  0.95351929  1  0  0.109609  0  0.925882  0  0  0.127289  0  0.983853  0  0  0.128297  0  0.983166  0  0.137086  0  0.121679  0.126579  0  0.984378  0
H  H29  1  0.78744977  0.12012748  0.54651100  1  0  0.109512  0  0.926734  0  0  0.127041  0  0.984502  0  0  0.128067  0  0.983851  0  0.138295  0  0.121538  0.126252  0  0.985104  0
H  H30  1  0.81176309  0.75262915  0.22655741  1  0  0.106062  0  0.975503  0  0  0.111601  0  1.042235  0  0  0.113911  0  1.04388  0  0.081431  0  0.103112  0.109938  0  1.041223  0
H  H31  1  0.43657857  0.75226015  0.27345285  1  0  0.105294  0  0.975872  0  0  0.110777  0  1.042772  0  0  0.113092  0  1.044414  0  0.124265  0  0.102899  0.109248  0  1.041544  0
H  H32  1  0.18823611  0.24737210  0.77344272  1  0  0.106057  0  0.975469  0  0  0.111601  0  1.042196  0  0  0.113912  0  1.043841  0  0.081442  0  0.103112  0.109938  0  1.041184  0
H  H33  1  0.56341824  0.24774110  0.72654690  1  0  0.105266  0  0.975919  0  0  0.110726  0  1.042847  0  0  0.11304  0  1.044489  0  0.124288  0  0.102886  0.109198  0  1.04162  0
H  H34  1  0.45568989  0.51881875  0.21144530  1  0  0.074118  0  0.962248  0  0  0.078723  0  1.034956  0  0  0.080859  0  1.032789  0  0.079439  0  0.109871  0.077179  0  1.036474  0
H  H35  1  0.02598634  0.51914454  0.28866678  1  0  0.074556  0  0.962075  0  0  0.079247  0  1.034563  0  0  0.081344  0  1.032485  0  0.079143  0  0.110221  0.077719  0  1.036031  0
H  H36  1  0.54430695  0.48118484  0.78855379  1  0  0.074136  0  0.962223  0  0  0.078746  0  1.034936  0  0  0.08088  0  1.032771  0  0.079457  0  0.109882  0.077202  0  1.036453  0
H  H37  1  0.97401166  0.48085671  0.71133401  1  0  0.07458  0  0.962073  0  0  0.079272  0  1.034559  0  0  0.081369  0  1.03248  0  0.079084  0  0.110231  0.077743  0  1.036027  0
H  H38  1  0.31757278  0.32814097  0.07879380  1  0  0.074961  0  0.936412  0  0  0.081449  0  1.004689  0  0  0.083988  0  1.002031  0  0.090966  0  0.112833  0.079594  0  1.006591  0
H  H39  1  0.35397565  0.32844574  0.42132486  1  0  0.075448  0  0.936501  0  0  0.081981  0  1.004659  0  0  0.084472  0  1.002068  0  0.072265  0  0.112956  0.079983  0  1.006625  0
H  H40  1  0.68242639  0.67185794  0.92120642  1  0  0.074984  0  0.936432  0  0  0.081456  0  1.004717  0  0  0.083994  0  1.00206  0  0.090958  0  0.112844  0.0796  0  1.006624  0
H  H41  1  0.64602355  0.67155551  0.57867470  1  0  0.075429  0  0.93652  0  0  0.081972  0  1.004661  0  0  0.084464  0  1.002071  0  0.072225  0  0.112963  0.079979  0  1.006628  0
H  H42  1  0.11503000  0.55460185  0.00790712  1  0  0.10737  0  0.971648  0  0  0.11415  0  1.039367  0  0  0.116989  0  1.039128  0  0.073207  0  0.103567  0.11205  0  1.039891  0
H  H43  1  0.33022244  0.55489494  0.49215708  1  0  0.107082  0  0.971515  0  0  0.11359  0  1.039774  0  0  0.116379  0  1.039588  0  0.07213  0  0.103358  0.111491  0  1.04022  0
H  H44  1  0.88496978  0.44539824  0.99209301  1  0  0.107372  0  0.971648  0  0  0.114148  0  1.039374  0  0  0.116989  0  1.039132  0  0.073187  0  0.103562  0.112049  0  1.039897  0
H  H45  1  0.66977734  0.44510514  0.50784192  1  0  0.10708  0  0.971508  0  0  0.113589  0  1.039772  0  0  0.116377  0  1.039584  0  0.072066  0  0.103354  0.111489  0  1.040218  0
C  C46  1  0.51548929  0.91753571  0.13144737  1  0  0.417402  0  3.835058  0  0  0.389504  0  4.09165  0  0  0.409934  0  4.105796  0  0.960326  0  0.221609  0.375869  0  4.081762  0
C  C47  1  0.56754068  0.91750652  0.36852333  1  0  0.416493  0  3.836862  0  0  0.387634  0  4.094981  0  0  0.408158  0  4.109079  0  0.982106  0  0.221266  0.374131  0  4.084897  0
C  C48  1  0.48451049  0.08246437  0.86855275  1  0  0.41741  0  3.835087  0  0  0.389517  0  4.091675  0  0  0.409949  0  4.105821  0  0.960334  0  0.22162  0.375881  0  4.081791  0
C  C49  1  0.43246027  0.08249123  0.63147793  1  0  0.416486  0  3.836777  0  0  0.387544  0  4.094928  0  0  0.408071  0  4.109023  0  0.971943  0  0.221243  0.374043  0  4.084842  0
C  C50  1  0.49299873  0.79280164  0.10436175  1  0  -0.242702  0  3.696986  0  0  -0.256233  0  3.944698  0  0  -0.268224  0  3.963463  0  0.008424  0  -0.106024  -0.248553  0  3.932249  0
C  C51  1  0.71471020  0.79287054  0.39565861  1  0  -0.241071  0  3.698767  0  0  -0.253802  0  3.947036  0  0  -0.265722  0  3.965815  0  -0.001895  0  -0.105607  -0.246524  0  3.934196  0
C  C52  1  0.50700047  0.20719961  0.89563781  1  0  -0.242771  0  3.697046  0  0  -0.256322  0  3.944752  0  0  -0.268312  0  3.963516  0  0.008417  0  -0.106069  -0.248649  0  3.932303  0
C  C53  1  0.28528836  0.20712721  0.60434114  1  0  -0.240999  0  3.698615  0  0  -0.253724  0  3.946883  0  0  -0.265643  0  3.965663  0  -0.001865  0  -0.105631  -0.246442  0  3.934031  0
C  C54  1  0.32428412  0.80020021  0.11326750  1  0  0.034162  0  3.744675  0  0  0.014758  0  3.994749  0  0  0.02399  0  4.009568  0  -0.02362  0  -0.068371  0.009111  0  3.984195  0
C  C55  1  0.87600432  0.80028429  0.38674890  1  0  0.033079  0  3.745358  0  0  0.013113  0  3.995326  0  0  0.022208  0  4.01025  0  -0.034966  0  -0.06832  0.007593  0  3.985456  0
C  C56  1  0.67571508  0.19980104  0.88673206  1  0  0.034242  0  3.744624  0  0  0.014841  0  3.994707  0  0  0.024078  0  4.009514  0  -0.023648  0  -0.068357  0.009194  0  3.984156  0
C  C57  1  0.12399363  0.19971229  0.61325094  1  0  0.033051  0  3.745433  0  0  0.013116  0  3.995354  0  0  0.022208  0  4.01028  0  -0.03516  0  -0.068306  0.007597  0  3.985486  0
C  C58  1  0.17908678  0.92911582  0.14994688  1  0  -0.166659  0  3.765533  0  0  -0.182791  0  4.024944  0  0  -0.193001  0  4.046357  0  -0.037793  0  -0.110714  -0.176211  0  4.010305  0
C  C59  1  0.89230779  0.92916136  0.35003145  1  0  -0.164836  0  3.763962  0  0  -0.180677  0  4.023151  0  0  -0.190804  0  4.044678  0  -0.006476  0  -0.110882  -0.17472  0  4.009466  0
C  C60  1  0.82091303  0.07088660  0.85005315  1  0  -0.166806  0  3.765673  0  0  -0.182952  0  4.025074  0  0  -0.193157  0  4.046501  0  -0.037814  0  -0.110756  -0.176369  0  4.010428  0
C  C61  1  0.10769196  0.07083638  0.64996990  1  0  -0.164837  0  3.764113  0  0  -0.180686  0  4.023298  0  0  -0.19081  0  4.044822  0  -0.00633  0  -0.110883  -0.174733  0  4.009616  0
C  C62  1  0.21181081  0.04282435  0.17885283  1  0  0.139943  0  3.74569  0  0  0.107934  0  3.999484  0  0  0.118536  0  4.016613  0  0.43452  0  0.031406  0.101121  0  3.987423  0
C  C63  1  0.74586967  0.04284303  0.32110235  1  0  0.140311  0  3.743956  0  0  0.108129  0  3.99821  0  0  0.118752  0  4.015335  0  0.418585  0  0.03197  0.101273  0  3.985782  0
C  C64  1  0.78818959  0.95717690  0.82114776  1  0  0.140045  0  3.745724  0  0  0.108061  0  3.999525  0  0  0.118665  0  4.016647  0  0.434541  0  0.031428  0.101248  0  3.987467  0
C  C65  1  0.25412772  0.95715705  0.67889796  1  0  0.140307  0  3.744046  0  0  0.108126  0  3.998307  0  0  0.11875  0  4.015434  0  0.418549  0  0.031946  0.101269  0  3.985879  0
C  C66  1  0.82930217  0.81740749  0.07067675  1  0  -0.003215  0  3.688557  0  0  -0.06694  0  3.941294  0  0  -0.062488  0  3.951167  0  0.318676  0  -0.050434  -0.069817  0  3.934051  0
C  C67  1  0.35383417  0.81745770  0.42932137  1  0  -0.002822  0  3.690796  0  0  -0.065063  0  3.942346  0  0  -0.060772  0  3.952534  0  0.330219  0  -0.049518  -0.067758  0  3.935019  0
C  C68  1  0.17069642  0.18259260  0.92932348  1  0  -0.003316  0  3.688625  0  0  -0.066989  0  3.941321  0  0  -0.06254  0  3.951202  0  0.31866  0  -0.050414  -0.069876  0  3.93408  0
C  C69  1  0.64616383  0.18254355  0.57067885  1  0  -0.002708  0  3.690814  0  0  -0.065024  0  3.942398  0  0  -0.060738  0  3.952597  0  0.330232  0  -0.049453  -0.067714  0  3.935063  0
C  C70  1  0.94675277  0.67371809  0.11172924  1  0  0.132851  0  3.691902  0  0  0.148495  0  3.928532  0  0  0.153395  0  3.949864  0  -0.08378  0  0.015822  0.145299  0  3.913949  0
C  C71  1  0.38011670  0.67368540  0.38830601  1  0  0.132906  0  3.692666  0  0  0.147233  0  3.930599  0  0  0.152152  0  3.95194  0  -0.002065  0  0.015313  0.144304  0  3.915646  0
C  C72  1  0.05324701  0.32628199  0.88827089  1  0  0.132894  0  3.691874  0  0  0.148525  0  3.928512  0  0  0.153424  0  3.949842  0  -0.083772  0  0.015822  0.145326  0  3.913934  0
C  C73  1  0.61988072  0.32631702  0.61169365  1  0  0.1329  0  3.69265  0  0  0.14723  0  3.930613  0  0  0.15215  0  3.951956  0  -0.00207  0  0.015317  0.144301  0  3.915659  0
C  C74  1  0.92192087  0.66110690  0.19150069  1  0  -0.160631  0  3.701338  0  0  -0.175573  0  3.941833  0  0  -0.184113  0  3.964185  0  0.036663  0  -0.085773  -0.170054  0  3.926716  0
C  C75  1  0.41785145  0.66083015  0.30855048  1  0  -0.159699  0  3.701662  0  0  -0.174215  0  3.942498  0  0  -0.182743  0  3.964797  0  -0.085012  0  -0.085325  -0.168986  0  3.927394  0
C  C76  1  0.07807833  0.33889435  0.80849887  1  0  -0.160618  0  3.701308  0  0  -0.175564  0  3.941817  0  0  -0.184104  0  3.964168  0  0.036674  0  -0.085782  -0.170045  0  3.926701  0
C  C77  1  0.58214775  0.33917110  0.69144908  1  0  -0.159636  0  3.701701  0  0  -0.174126  0  3.942544  0  0  -0.182652  0  3.964845  0  -0.085079  0  -0.085307  -0.1689  0  3.927443  0
C  C78  1  0.04105058  0.53096520  0.22646249  1  0  0.143727  0  3.708899  0  0  0.114078  0  3.956231  0  0  0.122295  0  3.974918  0  0.536332  0  0.046098  0.108753  0  3.943375  0
C  C79  1  0.42875494  0.53070130  0.27363697  1  0  0.144625  0  3.708009  0  0  0.114924  0  3.955091  0  0  0.123099  0  3.973792  0  0.537452  0  0.046585  0.109781  0  3.942445  0
C  C80  1  0.95894801  0.46903489  0.77353773  1  0  0.143662  0  3.708942  0  0  0.114018  0  3.956267  0  0  0.122235  0  3.974955  0  0.536373  0  0.046075  0.108694  0  3.943412  0
C  C81  1  0.57124187  0.46929995  0.72636278  1  0  0.144561  0  3.707948  0  0  0.114854  0  3.955055  0  0  0.123028  0  3.973759  0  0.537501  0  0.046548  0.109711  0  3.94241  0
C  C82  1  0.20299202  0.42444497  0.10930019  1  0  0.14651  0  3.715161  0  0  0.112731  0  3.973503  0  0  0.121006  0  3.991395  0  0.444161  0  0.046055  0.107434  0  3.961364  0
C  C83  1  0.37263804  0.42456641  0.39079344  1  0  0.145114  0  3.716485  0  0  0.111265  0  3.975074  0  0  0.11955  0  3.992905  0  0.417442  0  0.045568  0.106285  0  3.961965  0
C  C84  1  0.79700538  0.57555512  0.89069957  1  0  0.146541  0  3.715149  0  0  0.112783  0  3.973478  0  0  0.121057  0  3.99137  0  0.443855  0  0.046057  0.107484  0  3.961338  0
C  C85  1  0.62736116  0.57543484  0.60920499  1  0  0.145161  0  3.716518  0  0  0.111326  0  3.975108  0  0  0.11961  0  3.99294  0  0.417432  0  0.045565  0.10634  0  3.962004  0
C  C86  1  0.09016057  0.55090140  0.07021918  1  0  -0.165547  0  3.699511  0  0  -0.18379  0  3.95059  0  0  -0.192373  0  3.972194  0  0.028294  0  -0.085674  -0.178382  0  3.936432  0
C  C87  1  0.35909184  0.55106137  0.42984518  1  0  -0.164754  0  3.698899  0  0  -0.182644  0  3.950465  0  0  -0.191101  0  3.971854  0  0.061547  0  -0.084899  -0.176954  0  3.935909  0
C  C88  1  0.90983921  0.44909869  0.92978095  1  0  -0.165596  0  3.699472  0  0  -0.183834  0  3.950547  0  0  -0.192416  0  3.972148  0  0.028614  0  -0.085683  -0.178425  0  3.936389  0
C  C89  1  0.64090795  0.44893871  0.57015382  1  0  -0.164744  0  3.698891  0  0  -0.182636  0  3.95046  0  0  -0.19109  0  3.971849  0  0.061534  0  -0.084881  -0.176945  0  3.935904  0
N  N90  1  0.37564618  0.03726608  0.17167823  1  0  -0.466276  0  3.200858  0  0  -0.385982  0  3.468808  0  0  -0.410888  0  3.484261  0  -1.258729  0  -0.352468  -0.368849  0  3.457488  0
N  N91  1  0.58762348  0.03722054  0.32826519  1  0  -0.466649  0  3.199919  0  0  -0.385869  0  3.468149  0  0  -0.41082  0  3.48356  0  -1.279681  0  -0.352909  -0.368602  0  3.456313  0
N  N92  1  0.62435480  0.96273400  0.82832180  1  0  -0.466347  0  3.200934  0  0  -0.386056  0  3.468881  0  0  -0.410961  0  3.484332  0  -1.258716  0  -0.352494  -0.36892  0  3.457557  0
N  N93  1  0.41237153  0.96277954  0.67173645  1  0  -0.466609  0  3.199912  0  0  -0.385833  0  3.468183  0  0  -0.410785  0  3.483593  0  -1.279716  0  -0.352908  -0.368567  0  3.456349  0
N  N94  1  0.67349698  0.92547259  0.11852149  1  0  -0.424365  0  3.369618  0  0  -0.366168  0  3.618054  0  0  -0.38641  0  3.628968  0  -1.270477  0  -0.438166  -0.35204  0  3.609938  0
N  N95  1  0.40159853  0.92544573  0.38145118  1  0  -0.42333  0  3.37056  0  0  -0.365493  0  3.618518  0  0  -0.385847  0  3.629638  0  -1.287252  0  -0.438209  -0.351795  0  3.611131  0
N  N96  1  0.32650280  0.07452750  0.88147920  1  0  -0.424326  0  3.369593  0  0  -0.36615  0  3.618057  0  0  -0.386394  0  3.628973  0  -1.270464  0  -0.438169  -0.352024  0  3.609945  0
N  N97  1  0.59840186  0.07455552  0.61854942  1  0  -0.42339  0  3.370578  0  0  -0.365371  0  3.618437  0  0  -0.385724  0  3.629559  0  -1.277019  0  -0.438161  -0.351676  0  3.611048  0
N  N98  1  0.18027999  0.41472851  0.18624666  1  0  -0.35189  0  3.281888  0  0  -0.271696  0  3.54615  0  0  -0.29381  0  3.567172  0  -1.224054  0  -0.338748  -0.256622  0  3.531517  0
N  N99  1  0.40536477  0.41465961  0.31385742  1  0  -0.352524  0  3.283086  0  0  -0.272192  0  3.547619  0  0  -0.294268  0  3.568627  0  -1.218669  0  -0.338882  -0.257266  0  3.532159  0
N  N100  1  0.81971918  0.58527041  0.81375357  1  0  -0.351895  0  3.281938  0  0  -0.2717  0  3.546183  0  0  -0.29381  0  3.567202  0  -1.224095  0  -0.338748  -0.256626  0  3.531551  0
N  N101  1  0.59463262  0.58534047  0.68614121  1  0  -0.352526  0  3.283044  0  0  -0.272233  0  3.547631  0  0  -0.294307  0  3.568636  0  -1.21861  0  -0.338877  -0.257307  0  3.532172  0
Cl  Cl102  1  0.73321595  0.28936972  0.10222648  1  0  1.382006  0  6.192934  0  0  1.316117  0  6.762845  0  0  1.368692  0  6.73932  0  3.007078  0  0.728945  1.279966  0  6.777927  0
Cl  Cl103  1  0.97761569  0.28933235  0.39775604  1  0  1.382059  0  6.190835  0  0  1.31656  0  6.760565  0  0  1.369213  0  6.736835  0  3.030903  0  0.729049  1.280282  0  6.775387  0
Cl  Cl104  1  0.26678978  0.71062803  0.89777553  1  0  1.38238  0  6.192436  0  0  1.316481  0  6.762327  0  0  1.369078  0  6.738759  0  3.007293  0  0.729158  1.280333  0  6.777415  0
Cl  Cl105  1  0.02238529  0.71066773  0.60224399  1  0  1.382127  0  6.190766  0  0  1.316646  0  6.760481  0  0  1.369297  0  6.736761  0  3.030926  0  0.729104  1.280369  0  6.775305  0
O  O106  1  0.66579919  0.21059646  0.16713856  1  0  -0.621579  0  1.93479  0  0  -0.573661  0  2.205569  0  0  -0.591136  0  2.187673  0  -0.949813  0  -0.335187  -0.561672  0  2.217892  0
O  O107  1  0.12383715  0.21068637  0.33283988  1  0  -0.62138  0  1.933598  0  0  -0.573975  0  2.204298  0  0  -0.591496  0  2.186361  0  -0.954375  0  -0.335102  -0.561684  0  2.216603  0
O  O108  1  0.33420771  0.78939896  0.83286288  1  0  -0.621759  0  1.934904  0  0  -0.573684  0  2.205541  0  0  -0.591167  0  2.187639  0  -0.949775  0  -0.335186  -0.561703  0  2.217866  0
O  O109  1  0.87616144  0.78931371  0.66716035  1  0  -0.621396  0  1.933526  0  0  -0.573998  0  2.204227  0  0  -0.591513  0  2.18629  0  -0.95437  0  -0.335114  -0.561708  0  2.216533  0
O  O110  1  0.58211407  0.41580396  0.07354758  1  0  -0.520923  0  1.858563  0  0  -0.493139  0  2.104428  0  0  -0.509853  0  2.093372  0  -0.975772  0  -0.29873  -0.481517  0  2.111598  0
O  O111  1  0.00227399  0.41571288  0.42651017  1  0  -0.521191  0  1.858311  0  0  -0.493622  0  2.10384  0  0  -0.510281  0  2.092746  0  -0.984242  0  -0.299421  -0.481915  0  2.1112  0
O  O112  1  0.41788930  0.58419612  0.92645622  1  0  -0.521035  0  1.858419  0  0  -0.49328  0  2.10431  0  0  -0.509987  0  2.093222  0  -0.975912  0  -0.298816  -0.481659  0  2.111481  0
O  O113  1  0.99772996  0.58428603  0.57349024  1  0  -0.521212  0  1.858362  0  0  -0.493646  0  2.103892  0  0  -0.510306  0  2.092805  0  -0.984242  0  -0.299439  -0.481939  0  2.111253  0
O  O114  1  0.84186067  0.34918299  0.13096082  1  0  -0.51173  0  1.840323  0  0  -0.488934  0  2.078958  0  0  -0.505358  0  2.069269  0  -0.985258  0  -0.302816  -0.477475  0  2.08519  0
O  O115  1  0.80917759  0.34920868  0.36900123  1  0  -0.51207  0  1.839905  0  0  -0.489211  0  2.078508  0  0  -0.505678  0  2.068765  0  -0.995936  0  -0.302885  -0.477514  0  2.084177  0
O  O116  1  0.15814801  0.65081126  0.86904053  1  0  -0.511804  0  1.840106  0  0  -0.489073  0  2.078806  0  0  -0.505502  0  2.069106  0  -0.985176  0  -0.302906  -0.477614  0  2.08504  0
O  O117  1  0.19082400  0.65079257  0.63099984  1  0  -0.512098  0  1.839866  0  0  -0.48926  0  2.078475  0  0  -0.505732  0  2.068736  0  -0.995942  0  -0.302912  -0.477563  0  2.084143  0
O  O118  1  0.83755955  0.17203773  0.04332018  1  0  -0.521144  0  1.868474  0  0  -0.492257  0  2.111347  0  0  -0.508601  0  2.100562  0  -0.992656  0  -0.297948  -0.480985  0  2.118276  0
O  O119  1  0.99058498  0.17190461  0.45661231  1  0  -0.52147  0  1.867729  0  0  -0.492664  0  2.110288  0  0  -0.508856  0  2.099256  0  -0.992168  0  -0.297616  -0.481039  0  2.117463  0
O  O120  1  0.16244321  0.82796119  0.95667976  1  0  -0.521247  0  1.868439  0  0  -0.492337  0  2.111276  0  0  -0.508687  0  2.100484  0  -0.99283  0  -0.297986  -0.481064  0  2.118204  0
O  O121  1  0.00941481  0.82809548  0.54338726  1  0  -0.521475  0  1.867719  0  0  -0.492665  0  2.110258  0  0  -0.508857  0  2.099229  0  -0.992173  0  -0.297611  -0.481042  0  2.117433  0
