# generated using pymatgen
data_CuH6C9IN6
_symmetry_space_group_name_H-M   'P 1'
_cell_length_a   7.32338473
_cell_length_b   11.64097708
_cell_length_c   13.19874344
_cell_angle_alpha   109.19354274
_cell_angle_beta   89.99984329
_cell_angle_gamma   90.00019909
_symmetry_Int_Tables_number   1
_chemical_formula_structural   CuH6C9IN6
_chemical_formula_sum   'Cu4 H24 C36 I4 N24'
_cell_volume   1062.66413722
_cell_formula_units_Z   4
loop_
 _symmetry_equiv_pos_site_id
 _symmetry_equiv_pos_as_xyz
  1  'x, y, z'
loop_
 _atom_site_type_symbol
 _atom_site_label
 _atom_site_symmetry_multiplicity
 _atom_site_fract_x
 _atom_site_fract_y
 _atom_site_fract_z
 _atom_site_occupancy
 _atom_site_hle17_bader_spin_density
 _atom_site_hle17_ddec_charge
 _atom_site_hle17_ddec_spin_density
 _atom_site_hle17_ddec_sum_bond_order
 _atom_site_hle17_magmom
 _atom_site_hse06_10hf_bader_spin_density
 _atom_site_hse06_10hf_ddec_charge
 _atom_site_hse06_10hf_ddec_spin_density
 _atom_site_hse06_10hf_ddec_sum_bond_order
 _atom_site_hse06_10hf_magmom
 _atom_site_hse06_bader_spin_density
 _atom_site_hse06_ddec_charge
 _atom_site_hse06_ddec_spin_density
 _atom_site_hse06_ddec_sum_bond_order
 _atom_site_hse06_magmom
 _atom_site_pbe_bader_spin_density
 _atom_site_pbe_cm5_charge
 _atom_site_pbe_ddec_charge
 _atom_site_pbe_ddec_spin_density
 _atom_site_pbe_ddec_sum_bond_order
 _atom_site_pbe_magmom
Cu  Cu0  1  0.91713393  0.52810001  0.89060531  1  0  0.349065  0  2.028847  0  0  0.255032  0  2.504013  0  0  0.263197  0  2.45483  0  0  0.338115  0.25269  0  2.534889  0
Cu  Cu1  1  0.41713480  0.97189985  0.60939575  1  0  0.349089  0  2.028831  0  0  0.255059  0  2.503971  0  0  0.263217  0  2.454801  0  0  0.338139  0.252729  0  2.534877  0
Cu  Cu2  1  0.08286845  0.47190000  0.10939434  1  0  0.349072  0  2.028852  0  0  0.25504  0  2.504058  0  0  0.263211  0  2.454832  0  0  0.338111  0.252702  0  2.534944  0
Cu  Cu3  1  0.58286212  0.02810015  0.39060616  1  0  0.349056  0  2.028828  0  0  0.255024  0  2.504012  0  0  0.263224  0  2.454814  0  0  0.338111  0.252687  0  2.534913  0
H  H4  1  0.10289235  0.25762618  0.27378701  1  0  0.121298  0  0.979158  0  0  0.130537  0  1.040698  0  0  0.133073  0  1.040086  0  0  0.122784  0.128655  0  1.04141  0
H  H5  1  0.60289210  0.24237492  0.22621222  1  0  0.121278  0  0.979129  0  0  0.130537  0  1.040659  0  0  0.133073  0  1.040045  0  0  0.122774  0.128655  0  1.041373  0
H  H6  1  0.89710730  0.74237384  0.72620961  1  0  0.121301  0  0.979172  0  0  0.130539  0  1.040711  0  0  0.133076  0  1.040094  0  0  0.122782  0.128657  0  1.041422  0
H  H7  1  0.39711028  0.75762600  0.77378845  1  0  0.12128  0  0.97911  0  0  0.130518  0  1.040661  0  0  0.133054  0  1.040049  0  0  0.12278  0.128637  0  1.041374  0
H  H8  1  0.44456909  0.54834058  0.58745249  1  0  0.108016  0  0.969026  0  0  0.117406  0  1.028817  0  0  0.120034  0  1.027715  0  0  0.114904  0.115483  0  1.029704  0
H  H9  1  0.94456771  0.95165934  0.91254628  1  0  0.108018  0  0.969004  0  0  0.117395  0  1.028806  0  0  0.120023  0  1.027706  0  0  0.114895  0.11547  0  1.029693  0
H  H10  1  0.55542919  0.45166035  0.41254591  1  0  0.108011  0  0.969031  0  0  0.117383  0  1.028846  0  0  0.120011  0  1.027744  0  0  0.114906  0.115461  0  1.029734  0
H  H11  1  0.05543194  0.04834068  0.08745261  1  0  0.108048  0  0.969047  0  0  0.117436  0  1.028833  0  0  0.120065  0  1.027733  0  0  0.114902  0.115512  0  1.02972  0
H  H12  1  0.81198630  0.09796214  0.21825294  1  0  0.106337  0  0.975294  0  0  0.108445  0  1.046602  0  0  0.111545  0  1.044676  0  0  0.114689  0.106198  0  1.048147  0
H  H13  1  0.31199140  0.40203935  0.28174684  1  0  0.106314  0  0.975285  0  0  0.108412  0  1.046601  0  0  0.111513  0  1.044674  0  0  0.11467  0.106165  0  1.048149  0
H  H14  1  0.18800789  0.90203878  0.78174848  1  0  0.106302  0  0.975295  0  0  0.10841  0  1.046606  0  0  0.111508  0  1.04469  0  0  0.114665  0.106164  0  1.048149  0
H  H15  1  0.68800825  0.59796066  0.71825357  1  0  0.106331  0  0.975277  0  0  0.108447  0  1.046569  0  0  0.111547  0  1.04464  0  0  0.114675  0.106199  0  1.048116  0
H  H16  1  0.53622659  0.21337875  0.59437573  1  0  0.1141  0  1.00807  0  0  0.11476  0  1.085678  0  0  0.120583  0  1.079355  0  0  0.103449  0.110369  0  1.09041  0
H  H17  1  0.03622908  0.28662287  0.90562541  1  0  0.114168  0  1.008069  0  0  0.114812  0  1.085681  0  0  0.120635  0  1.079355  0  0  0.103464  0.110426  0  1.090399  0
H  H18  1  0.46377306  0.78662490  0.40562574  1  0  0.114172  0  1.008019  0  0  0.114806  0  1.085627  0  0  0.120622  0  1.079308  0  0  0.103476  0.110424  0  1.090338  0
H  H19  1  0.96376920  0.71337349  0.09437544  1  0  0.11417  0  1.008023  0  0  0.114827  0  1.085607  0  0  0.120644  0  1.079284  0  0  0.103464  0.110436  0  1.090332  0
H  H20  1  0.21579053  0.52441008  0.74824543  1  0  0.112069  0  1.023383  0  0  0.114329  0  1.100821  0  0  0.119261  0  1.096368  0  0  0.099532  0.110633  0  1.104162  0
H  H21  1  0.71578735  0.97559124  0.75175410  1  0  0.112085  0  1.023356  0  0  0.114347  0  1.100793  0  0  0.119283  0  1.096329  0  0  0.099541  0.110652  0  1.104138  0
H  H22  1  0.78421185  0.47559083  0.25175524  1  0  0.112081  0  1.023416  0  0  0.114337  0  1.100852  0  0  0.119272  0  1.096391  0  0  0.099537  0.110641  0  1.104198  0
H  H23  1  0.28421094  0.02440970  0.24824278  1  0  0.112111  0  1.023355  0  0  0.114353  0  1.10081  0  0  0.119285  0  1.096356  0  0  0.099555  0.110657  0  1.104157  0
H  H24  1  0.60099566  0.34873139  0.80903100  1  0  0.11341  0  0.960318  0  0  0.117312  0  1.027398  0  0  0.120829  0  1.025703  0  0  0.105827  0.114689  0  1.02882  0
H  H25  1  0.10099847  0.15126944  0.69096981  1  0  0.113442  0  0.960299  0  0  0.117348  0  1.027371  0  0  0.120865  0  1.025676  0  0  0.105848  0.114725  0  1.028796  0
H  H26  1  0.39900672  0.65127043  0.19097145  1  0  0.113425  0  0.960322  0  0  0.117321  0  1.027414  0  0  0.120838  0  1.025721  0  0  0.105833  0.114698  0  1.028836  0
H  H27  1  0.89900118  0.84873057  0.30902908  1  0  0.113431  0  0.960323  0  0  0.117339  0  1.027389  0  0  0.120856  0  1.025694  0  0  0.105832  0.114716  0  1.028813  0
C  C28  1  0.91406037  0.37050736  0.64907747  1  0  0.431392  0  3.712689  0  0  0.375919  0  3.991635  0  0  0.398527  0  3.999841  0  0  0.331756  0.36097  0  3.986044  0
C  C29  1  0.41405954  0.12949221  0.85092325  1  0  0.43135  0  3.712647  0  0  0.375891  0  3.991623  0  0  0.39851  0  3.999817  0  0  0.331753  0.360943  0  3.986035  0
C  C30  1  0.08593927  0.62949264  0.35092369  1  0  0.43132  0  3.712737  0  0  0.375956  0  3.991682  0  0  0.398576  0  3.999877  0  0  0.331761  0.361004  0  3.986095  0
C  C31  1  0.58593601  0.87050598  0.14907510  1  0  0.43137  0  3.712593  0  0  0.375918  0  3.991523  0  0  0.398531  0  3.99973  0  0  0.331755  0.360973  0  3.985923  0
C  C32  1  0.99483904  0.23840920  0.32163076  1  0  -0.025905  0  3.642296  0  0  -0.066193  0  3.89885  0  0  -0.064642  0  3.917631  0  0  0.004296  -0.067371  0  3.886546  0
C  C33  1  0.49483705  0.26159080  0.17836906  1  0  -0.025872  0  3.642347  0  0  -0.066164  0  3.898887  0  0  -0.064616  0  3.91768  0  0  0.004308  -0.067339  0  3.886579  0
C  C34  1  0.00516471  0.76158900  0.67836759  1  0  -0.025919  0  3.642438  0  0  -0.066192  0  3.898969  0  0  -0.064645  0  3.917763  0  0  0.004339  -0.067366  0  3.886653  0
C  C35  1  0.50516397  0.73840738  0.82163232  1  0  -0.025813  0  3.642358  0  0  -0.066106  0  3.898916  0  0  -0.064554  0  3.9177  0  0  0.004331  -0.067284  0  3.886611  0
C  C36  1  0.83500005  0.24915168  0.46768565  1  0  0.439221  0  3.726403  0  0  0.384118  0  4.005044  0  0  0.406718  0  4.013837  0  0  0.332258  0.369035  0  3.999184  0
C  C37  1  0.33500008  0.25084712  0.03231407  1  0  0.439233  0  3.726344  0  0  0.384187  0  4.004974  0  0  0.406794  0  4.01376  0  0  0.332269  0.369102  0  3.999113  0
C  C38  1  0.16500097  0.75084743  0.53231298  1  0  0.43918  0  3.726299  0  0  0.384139  0  4.004946  0  0  0.406744  0  4.013731  0  0  0.332207  0.369054  0  3.999089  0
C  C39  1  0.66500230  0.74915289  0.96768634  1  0  0.439126  0  3.726516  0  0  0.384044  0  4.00516  0  0  0.406648  0  4.013949  0  0  0.332192  0.36896  0  3.999288  0
C  C40  1  0.31935910  0.49634825  0.58019718  1  0  0.014164  0  3.73158  0  0  -0.015605  0  4.007914  0  0  -0.014318  0  4.026578  0  0  -0.005558  -0.016445  0  3.995449  0
C  C41  1  0.81935659  0.00365116  0.91980212  1  0  0.014175  0  3.731602  0  0  -0.015581  0  4.007925  0  0  -0.014295  0  4.026592  0  0  -0.005537  -0.016417  0  3.995455  0
C  C42  1  0.68063918  0.50365267  0.41980273  1  0  0.014191  0  3.731488  0  0  -0.01557  0  4.007834  0  0  -0.014281  0  4.026499  0  0  -0.005558  -0.016409  0  3.995371  0
C  C43  1  0.18064169  0.99634795  0.08019499  1  0  0.014033  0  3.731726  0  0  -0.015742  0  4.00807  0  0  -0.014457  0  4.026738  0  0  -0.005601  -0.016581  0  3.995602  0
C  C44  1  0.10425351  0.37617105  0.50083962  1  0  0.42567  0  3.78477  0  0  0.371047  0  4.076732  0  0  0.392703  0  4.085306  0  0  0.323097  0.356724  0  4.070739  0
C  C45  1  0.60424990  0.12382614  0.99916088  1  0  0.425723  0  3.784785  0  0  0.371189  0  4.076659  0  0  0.392852  0  4.085224  0  0  0.323179  0.356867  0  4.070666  0
C  C46  1  0.89574887  0.62382987  0.49915954  1  0  0.425667  0  3.784838  0  0  0.371186  0  4.076638  0  0  0.392844  0  4.085208  0  0  0.323161  0.356864  0  4.070649  0
C  C47  1  0.39574838  0.87616932  0.00083895  1  0  0.425666  0  3.784815  0  0  0.371146  0  4.076607  0  0  0.392805  0  4.085178  0  0  0.32318  0.356826  0  4.070605  0
C  C48  1  0.85012711  0.15975694  0.29666984  1  0  0.014056  0  3.720402  0  0  -0.014034  0  3.987821  0  0  -0.012166  0  4.004623  0  0  4.4e-05  -0.015336  0  3.976862  0
C  C49  1  0.35012952  0.34024462  0.20333066  1  0  0.014096  0  3.720422  0  0  -0.013973  0  3.987826  0  0  -0.012111  0  4.00464  0  0  6.6e-05  -0.015275  0  3.976869  0
C  C50  1  0.14987254  0.84024398  0.70333083  1  0  0.014122  0  3.720453  0  0  -0.013974  0  3.987872  0  0  -0.012104  0  4.004663  0  0  3.7e-05  -0.015276  0  3.976914  0
C  C51  1  0.64987013  0.65975357  0.79666921  1  0  0.013949  0  3.720367  0  0  -0.014138  0  3.987781  0  0  -0.012274  0  4.004596  0  0  -1e-06  -0.015439  0  3.976821  0
C  C52  1  0.64833192  0.27216973  0.63369250  1  0  -0.023727  0  3.640264  0  0  -0.06356  0  3.898571  0  0  -0.062154  0  3.91535  0  0  0.001107  -0.064684  0  3.888156  0
C  C53  1  0.14833155  0.22783027  0.86630800  1  0  -0.023857  0  3.640341  0  0  -0.06364  0  3.89866  0  0  -0.062234  0  3.915439  0  0  0.001098  -0.064762  0  3.88824  0
C  C54  1  0.35166909  0.72783301  0.36630870  1  0  -0.023898  0  3.640279  0  0  -0.063637  0  3.898609  0  0  -0.062222  0  3.915397  0  0  0.001076  -0.064763  0  3.888195  0
C  C55  1  0.85166400  0.77216609  0.13369209  1  0  -0.023881  0  3.64026  0  0  -0.063682  0  3.898576  0  0  -0.062265  0  3.915361  0  0  0.00109  -0.064799  0  3.888149  0
C  C56  1  0.20932369  0.48682877  0.66133520  1  0  -0.045393  0  3.637596  0  0  -0.085961  0  3.899844  0  0  -0.084436  0  3.916658  0  0  -0.005971  -0.087118  0  3.889143  0
C  C57  1  0.70932163  0.01317135  0.83866448  1  0  -0.045396  0  3.637571  0  0  -0.085969  0  3.899845  0  0  -0.084442  0  3.916658  0  0  -0.00599  -0.087132  0  3.889154  0
C  C58  1  0.79067732  0.51317124  0.33866444  1  0  -0.045415  0  3.637529  0  0  -0.085979  0  3.899835  0  0  -0.084452  0  3.91665  0  0  -0.005989  -0.087139  0  3.889144  0
C  C59  1  0.29067802  0.98682958  0.16133392  1  0  -0.045363  0  3.63762  0  0  -0.085937  0  3.899854  0  0  -0.084411  0  3.91667  0  0  -0.005995  -0.087101  0  3.889163  0
C  C60  1  0.68350138  0.33867698  0.73835922  1  0  0.020993  0  3.685919  0  0  -0.009002  0  3.94849  0  0  -0.008421  0  3.96744  0  0  -0.001967  -0.009564  0  3.936423  0
C  C61  1  0.18350252  0.16132309  0.76164125  1  0  0.020955  0  3.685958  0  0  -0.009051  0  3.948506  0  0  -0.008469  0  3.967455  0  0  -0.002022  -0.009617  0  3.936447  0
C  C62  1  0.31650237  0.66132393  0.26164221  1  0  0.020965  0  3.685975  0  0  -0.009017  0  3.948527  0  0  -0.008436  0  3.967479  0  0  -0.002007  -0.00958  0  3.93646  0
C  C63  1  0.81649576  0.83867510  0.23835862  1  0  0.021015  0  3.685887  0  0  -0.008965  0  3.948452  0  0  -0.008382  0  3.967406  0  0  -0.001976  -0.009537  0  3.936392  0
I  I64  1  0.24615038  0.55944177  0.96413185  1  0  -0.493261  0  1.498337  0  0  -0.445086  0  1.925888  0  0  -0.46139  0  1.890601  0  0  -0.243531  -0.432829  0  1.948206  0
I  I65  1  0.74615352  0.94055961  0.53586689  1  0  -0.49327  0  1.49835  0  0  -0.445088  0  1.925885  0  0  -0.461402  0  1.890609  0  0  -0.243522  -0.432821  0  1.948205  0
I  I66  1  0.75385200  0.44056185  0.03587492  1  0  -0.49328  0  1.49839  0  0  -0.445081  0  1.925914  0  0  -0.461392  0  1.890639  0  0  -0.243528  -0.432801  0  1.948206  0
I  I67  1  0.25384476  0.05944314  0.46413053  1  0  -0.493289  0  1.498352  0  0  -0.445107  0  1.925889  0  0  -0.461423  0  1.890617  0  0  -0.243537  -0.432831  0  1.948195  0
N  N68  1  0.75006661  0.16621023  0.38829002  1  0  -0.39083  0  3.26339  0  0  -0.335151  0  3.579809  0  0  -0.346922  0  3.579919  0  0  -0.374796  -0.328076  0  3.579879  0
N  N69  1  0.25006807  0.33379114  0.11171058  1  0  -0.390882  0  3.263353  0  0  -0.335202  0  3.579763  0  0  -0.346963  0  3.579846  0  0  -0.374803  -0.328125  0  3.579829  0
N  N70  1  0.24993440  0.83379160  0.61171091  1  0  -0.39087  0  3.263271  0  0  -0.335193  0  3.579689  0  0  -0.346955  0  3.57978  0  0  -0.374776  -0.328118  0  3.579764  0
N  N71  1  0.74993294  0.66620887  0.88829058  1  0  -0.390733  0  3.263266  0  0  -0.335048  0  3.579675  0  0  -0.346814  0  3.579768  0  0  -0.374728  -0.327971  0  3.579727  0
N  N72  1  0.06878476  0.40886505  0.60984316  1  0  -0.192657  0  3.57372  0  0  -0.111232  0  3.802339  0  0  -0.128707  0  3.822139  0  0  -0.215371  -0.099887  0  3.789058  0
N  N73  1  0.56878151  0.09113299  0.89015688  1  0  -0.19268  0  3.573673  0  0  -0.111299  0  3.80231  0  0  -0.128779  0  3.822106  0  0  -0.215387  -0.099954  0  3.789033  0
N  N74  1  0.93121898  0.59113496  0.39015724  1  0  -0.192593  0  3.573894  0  0  -0.111283  0  3.802538  0  0  -0.128762  0  3.822335  0  0  -0.215356  -0.099936  0  3.789261  0
N  N75  1  0.43121814  0.90886520  0.10984223  1  0  -0.192724  0  3.573946  0  0  -0.111259  0  3.802429  0  0  -0.128734  0  3.822225  0  0  -0.215371  -0.099919  0  3.789148  0
N  N76  1  0.79700381  0.29219060  0.57589176  1  0  -0.187531  0  3.567512  0  0  -0.103871  0  3.789445  0  0  -0.12114  0  3.809309  0  0  -0.211306  -0.092658  0  3.776168  0
N  N77  1  0.29700441  0.20780967  0.92410934  1  0  -0.187441  0  3.567426  0  0  -0.103889  0  3.78946  0  0  -0.121163  0  3.80932  0  0  -0.211319  -0.092674  0  3.776179  0
N  N78  1  0.20299584  0.70781213  0.42411020  1  0  -0.187335  0  3.567366  0  0  -0.103856  0  3.78945  0  0  -0.121129  0  3.809307  0  0  -0.211276  -0.092642  0  3.776172  0
N  N79  1  0.70299387  0.79218761  0.07589101  1  0  -0.187439  0  3.567479  0  0  -0.103847  0  3.789465  0  0  -0.121118  0  3.809325  0  0  -0.211294  -0.092637  0  3.776179  0
N  N80  1  0.98502106  0.29620448  0.43168338  1  0  -0.201288  0  3.622372  0  0  -0.119014  0  3.845082  0  0  -0.137524  0  3.868183  0  0  -0.219152  -0.106992  0  3.82955  0
N  N81  1  0.48501929  0.20379367  0.06831743  1  0  -0.201343  0  3.622476  0  0  -0.119136  0  3.845225  0  0  -0.137653  0  3.868326  0  0  -0.219185  -0.107115  0  3.829693  0
N  N82  1  0.01498132  0.70379553  0.56831702  1  0  -0.201346  0  3.622591  0  0  -0.119119  0  3.845274  0  0  -0.137633  0  3.868375  0  0  -0.219201  -0.107096  0  3.829742  0
N  N83  1  0.51498172  0.79620452  0.93168244  1  0  -0.201256  0  3.622482  0  0  -0.119017  0  3.845149  0  0  -0.137531  0  3.86825  0  0  -0.219151  -0.106997  0  3.829611  0
N  N84  1  0.84996417  0.40006436  0.74801687  1  0  -0.385412  0  3.253755  0  0  -0.322487  0  3.558495  0  0  -0.334879  0  3.560666  0  0  -0.3697  -0.314949  0  3.557132  0
N  N85  1  0.34996366  0.09993510  0.75198392  1  0  -0.385351  0  3.253741  0  0  -0.322381  0  3.558426  0  0  -0.334781  0  3.560599  0  0  -0.369654  -0.314847  0  3.557079  0
N  N86  1  0.15003958  0.59993655  0.25198456  1  0  -0.385332  0  3.253627  0  0  -0.322438  0  3.558342  0  0  -0.334845  0  3.560518  0  0  -0.369646  -0.3149  0  3.556981  0
N  N87  1  0.65003463  0.90006400  0.24801546  1  0  -0.385348  0  3.25353  0  0  -0.322464  0  3.558273  0  0  -0.33488  0  3.560475  0  0  -0.369678  -0.31492  0  3.556912  0
N  N88  1  0.25274515  0.42747058  0.47976609  1  0  -0.423775  0  2.959827  0  0  -0.397715  0  3.247926  0  0  -0.409779  0  3.256856  0  0  -0.344508  -0.389562  0  3.241851  0
N  N89  1  0.75274225  0.07252715  0.02023344  1  0  -0.423816  0  2.959956  0  0  -0.397788  0  3.248054  0  0  -0.409855  0  3.256982  0  0  -0.344559  -0.389637  0  3.241977  0
N  N90  1  0.74725450  0.57253125  0.52023333  1  0  -0.423845  0  2.959829  0  0  -0.397808  0  3.247867  0  0  -0.409873  0  3.256793  0  0  -0.344565  -0.389655  0  3.241796  0
N  N91  1  0.24725740  0.92746832  0.97976412  1  0  -0.423746  0  2.959973  0  0  -0.397718  0  3.248008  0  0  -0.409783  0  3.256939  0  0  -0.344546  -0.389567  0  3.241928  0
