# generated using pymatgen
data_AgH14C8(N2O)2
_symmetry_space_group_name_H-M   'P 1'
_cell_length_a   6.41966272
_cell_length_b   9.27613262
_cell_length_c   10.30258993
_cell_angle_alpha   69.08974207
_cell_angle_beta   79.35099294
_cell_angle_gamma   87.57858042
_symmetry_Int_Tables_number   1
_chemical_formula_structural   AgH14C8(N2O)2
_chemical_formula_sum   'Ag2 H28 C16 N8 O4'
_cell_volume   563.05170271
_cell_formula_units_Z   2
loop_
 _symmetry_equiv_pos_site_id
 _symmetry_equiv_pos_as_xyz
  1  'x, y, z'
loop_
 _atom_site_type_symbol
 _atom_site_label
 _atom_site_symmetry_multiplicity
 _atom_site_fract_x
 _atom_site_fract_y
 _atom_site_fract_z
 _atom_site_occupancy
 _atom_site_pbe_bader_spin_density
 _atom_site_pbe_cm5_charge
 _atom_site_pbe_ddec_charge
 _atom_site_pbe_ddec_spin_density
 _atom_site_pbe_ddec_sum_bond_order
 _atom_site_pbe_magmom
Ag  Ag0  1  0.14396034  0.06804432  0.37708091  1  0  0.411564  0.329415  0  2.038257  0
Ag  Ag1  1  0.85603521  0.93197136  0.62291330  1  0  0.41151  0.329408  0  2.038339  0
H  H2  1  0.40701257  0.10680709  0.06100634  1  0  0.112287  0.07045  0  1.004935  0
H  H3  1  0.59298428  0.89319233  0.93899393  1  0  0.112276  0.070444  0  1.004899  0
H  H4  1  0.51441531  0.94847529  0.18529256  1  0  0.119973  0.094539  0  0.969707  0
H  H5  1  0.48557829  0.05151858  0.81470662  1  0  0.119989  0.094563  0  0.969619  0
H  H6  1  0.62311115  0.16057580  0.40258668  1  0  0.118108  0.091181  0  0.997282  0
H  H7  1  0.37688733  0.83942602  0.59741180  1  0  0.118105  0.091159  0  0.997276  0
H  H8  1  0.64150840  0.97831080  0.37795824  1  0  0.118549  0.091284  0  0.996507  0
H  H9  1  0.35849486  0.02169213  0.62204037  1  0  0.118572  0.091266  0  0.996452  0
H  H10  1  0.47501158  0.37541265  0.23876687  1  0  0.12052  0.091608  0  0.959094  0
H  H11  1  0.52499001  0.62458476  0.76123047  1  0  0.120486  0.091619  0  0.959118  0
H  H12  1  0.38412066  0.35727171  0.09145666  1  0  0.108782  0.062321  0  1.035213  0
H  H13  1  0.61587617  0.64272564  0.90854124  1  0  0.108778  0.0623  0  1.035245  0
H  H14  1  0.88759695  0.94615707  0.18912539  1  0  0.120833  0.091615  0  0.959176  0
H  H15  1  0.11240461  0.05383910  0.81087325  1  0  0.120824  0.091644  0  0.959154  0
H  H16  1  0.05727579  0.10125597  0.06801557  1  0  0.11128  0.067848  0  1.012648  0
H  H17  1  0.94272273  0.89874756  0.93197564  1  0  0.111287  0.067819  0  1.012681  0
H  H18  1  0.03371572  0.35255880  0.09873036  1  0  0.110772  0.069064  0  1.010944  0
H  H19  1  0.96628755  0.64744453  0.90126328  1  0  0.110761  0.069048  0  1.01106  0
H  H20  1  0.84639703  0.37330594  0.24223701  1  0  0.119711  0.088514  0  0.960593  0
H  H21  1  0.15359987  0.62669611  0.75775867  1  0  0.119753  0.088585  0  0.960652  0
H  H22  1  0.91070564  0.31910135  0.90363050  1  0  0.114366  0.074858  0  0.970957  0
H  H23  1  0.08928795  0.68089252  0.09636869  1  0  0.114351  0.074828  0  0.97102  0
H  H24  1  0.63287367  0.32113667  0.90021889  1  0  0.119414  0.08488  0  0.959191  0
H  H25  1  0.36711524  0.67886093  0.09977596  1  0  0.119462  0.084971  0  0.959178  0
H  H26  1  0.07451751  0.57040043  0.33892394  1  0  0.092234  0.098465  0  1.002425  0
H  H27  1  0.92551570  0.42959452  0.66108986  1  0  0.09223  0.098425  0  1.002548  0
H  H28  1  0.24336523  0.52325378  0.46206275  1  0  0.095205  0.113307  0  0.980697  0
H  H29  1  0.75663961  0.47675318  0.53796965  1  0  0.095174  0.113297  0  0.980684  0
C  C30  1  0.52812056  0.07390446  0.12832308  1  0  0.017264  0.008362  0  3.895253  0
C  C31  1  0.47187940  0.92609071  0.87167406  1  0  0.017208  0.008345  0  3.895207  0
C  C32  1  0.65012601  0.10421588  0.32369662  1  0  0.012159  -0.017615  0  3.876634  0
C  C33  1  0.34987090  0.89578625  0.67629807  1  0  0.012268  -0.017269  0  3.876395  0
C  C34  1  0.50452669  0.31998945  0.15911464  1  0  0.016052  0.007433  0  3.891254  0
C  C35  1  0.49547327  0.68000572  0.84088250  1  0  0.016149  0.007642  0  3.891065  0
C  C36  1  0.89765651  0.07163969  0.13211167  1  0  0.017474  0.008983  0  3.904196  0
C  C37  1  0.10234505  0.92835589  0.86788031  1  0  0.017509  0.008979  0  3.904489  0
C  C38  1  0.87468111  0.31754540  0.16280911  1  0  0.018063  0.011818  0  3.904669  0
C  C39  1  0.12531575  0.68245426  0.83718818  1  0  0.01799  0.011785  0  3.904974  0
C  C40  1  0.75205885  0.28589153  0.96916965  1  0  0.022876  0.024206  0  3.902487  0
C  C41  1  0.24793009  0.71410805  0.03082857  1  0  0.02278  0.024094  0  3.902668  0
C  C42  1  0.05237880  0.72025069  0.45683571  1  0  0.184823  0.599863  0  4.197859  0
C  C43  1  0.94764348  0.27975302  0.54316733  1  0  0.184754  0.599613  0  4.197736  0
C  C44  1  0.08156513  0.55995086  0.44800950  1  0  -0.171617  -0.264795  0  3.963862  0
C  C45  1  0.91844919  0.44005204  0.55200342  1  0  -0.17156  -0.264592  0  3.963854  0
N  N46  1  0.48533029  0.15062918  0.23420700  1  0  -0.356876  -0.164465  0  3.451179  0
N  N47  1  0.51466654  0.84936810  0.76579189  1  0  -0.357007  -0.164827  0  3.451414  0
N  N48  1  0.73915301  0.11669186  0.03967527  1  0  -0.349216  -0.220601  0  3.396605  0
N  N49  1  0.26084222  0.88330441  0.96032212  1  0  -0.349206  -0.220588  0  3.396621  0
N  N50  1  0.86554354  0.14820922  0.23810525  1  0  -0.354025  -0.177413  0  3.466474  0
N  N51  1  0.13445017  0.85179156  0.76189211  1  0  -0.354042  -0.177477  0  3.466598  0
N  N52  1  0.71565393  0.36788553  0.07070847  1  0  -0.349683  -0.224966  0  3.385035  0
N  N53  1  0.28434450  0.63211307  0.92928794  1  0  -0.349638  -0.225063  0  3.385077  0
O  O54  1  0.20998831  0.81459417  0.39888223  1  0  -0.352457  -0.559634  0  2.268785  0
O  O55  1  0.78997863  0.18541679  0.60111456  1  0  -0.352414  -0.55957  0  2.2682  0
O  O56  1  0.87408795  0.74760765  0.52069277  1  0  -0.348384  -0.550531  0  2.282881  0
O  O57  1  0.12591198  0.25238804  0.47932564  1  0  -0.348396  -0.550443  0  2.283212  0
