# generated using pymatgen
data_ZnH18C18(NO)4
_symmetry_space_group_name_H-M   'P 1'
_cell_length_a   10.19801567
_cell_length_b   11.72129280
_cell_length_c   17.86203845
_cell_angle_alpha   90.00001756
_cell_angle_beta   90.00019383
_cell_angle_gamma   89.99989408
_symmetry_Int_Tables_number   1
_chemical_formula_structural   ZnH18C18(NO)4
_chemical_formula_sum   'Zn4 H72 C72 N16 O16'
_cell_volume   2135.11961255
_cell_formula_units_Z   4
loop_
 _symmetry_equiv_pos_site_id
 _symmetry_equiv_pos_as_xyz
  1  'x, y, z'
loop_
 _atom_site_type_symbol
 _atom_site_label
 _atom_site_symmetry_multiplicity
 _atom_site_fract_x
 _atom_site_fract_y
 _atom_site_fract_z
 _atom_site_occupancy
 _atom_site_pbe_bader_charge
 _atom_site_pbe_bader_spin_density
 _atom_site_pbe_cm5_charge
 _atom_site_pbe_ddec_charge
 _atom_site_pbe_ddec_spin_density
 _atom_site_pbe_ddec_sum_bond_order
 _atom_site_pbe_magmom
Zn  Zn0  1  0.57289729  0.86304268  0.48895938  1  1.26171  0  0.708037  0.775565  0  2.362439  0
Zn  Zn1  1  0.07289693  0.13695936  0.51104030  1  1.261688  0  0.708034  0.775555  0  2.362526  0
Zn  Zn2  1  0.57290098  0.63695938  0.98895941  1  1.261703  0  0.70807  0.775645  0  2.362446  0
Zn  Zn3  1  0.07290207  0.36303925  0.01103972  1  1.261714  0  0.708059  0.77557  0  2.362453  0
H  H4  1  0.84670135  0.86807261  0.42824653  1  0.574375  0  0.30992  0.274498  0  1.032597  0
H  H5  1  0.34670137  0.13192558  0.57175480  1  0.574316  0  0.30993  0.274464  0  1.032631  0
H  H6  1  0.84670505  0.63192813  0.92824599  1  0.574416  0  0.309925  0.274478  0  1.032686  0
H  H7  1  0.34670551  0.36807006  0.07175478  1  0.57444  0  0.309945  0.274486  0  1.032655  0
H  H8  1  0.75582227  0.49058523  0.08646235  1  0.566112  0  0.320337  0.287497  0  1.008762  0
H  H9  1  0.25582352  0.50941481  0.91353713  1  0.566131  0  0.320306  0.287438  0  1.00879  0
H  H10  1  0.75581937  0.00941317  0.58646067  1  0.566121  0  0.320343  0.287455  0  1.008812  0
H  H11  1  0.25581760  0.99058772  0.41353937  1  0.566121  0  0.320313  0.287395  0  1.008871  0
H  H12  1  0.03942937  0.76796397  0.31805956  1  0.066258  0  0.100212  0.14471  0  0.980196  0
H  H13  1  0.53942928  0.23203471  0.68194174  1  0.066305  0  0.100232  0.144757  0  0.98016  0
H  H14  1  0.03943385  0.73203716  0.81805848  1  0.066211  0  0.100228  0.144746  0  0.980159  0
H  H15  1  0.53943167  0.26796237  0.18194226  1  0.066237  0  0.10022  0.14474  0  0.980118  0
H  H16  1  0.99015628  0.90993303  0.30064086  1  0.037725  0  0.100888  0.145973  0  0.981413  0
H  H17  1  0.49015715  0.09006407  0.69936075  1  0.037659  0  0.100903  0.146024  0  0.981337  0
H  H18  1  0.99016106  0.59006827  0.80063919  1  0.037582  0  0.100894  0.145972  0  0.981408  0
H  H19  1  0.49016022  0.40993140  0.19936129  1  0.037597  0  0.100908  0.146  0  0.981387  0
H  H20  1  0.96996794  0.80418275  0.22957503  1  0.048724  0  0.095951  0.137788  0  1.009897  0
H  H21  1  0.46996803  0.19581609  0.77042653  1  0.048686  0  0.095948  0.137826  0  1.009906  0
H  H22  1  0.96997053  0.69581940  0.72957450  1  0.048691  0  0.095952  0.137783  0  1.00991  0
H  H23  1  0.46997231  0.30418115  0.27042650  1  0.048612  0  0.095976  0.137854  0  1.00988  0
H  H24  1  0.41897183  0.75210193  0.30860635  1  0.068482  0  0.097436  0.144154  0  1.002929  0
H  H25  1  0.91897274  0.24789956  0.69139400  1  0.068504  0  0.097428  0.144099  0  1.002989  0
H  H26  1  0.41897430  0.74789859  0.80860527  1  0.0685  0  0.097431  0.144112  0  1.002957  0
H  H27  1  0.91897516  0.25210204  0.19139451  1  0.068498  0  0.097434  0.14414  0  1.002947  0
H  H28  1  0.45020960  0.66229869  0.38563061  1  0.053825  0  0.096065  0.136696  0  1.018445  0
H  H29  1  0.95020888  0.33770275  0.61437091  1  0.053819  0  0.096058  0.136686  0  1.018446  0
H  H30  1  0.45021091  0.83770181  0.88562844  1  0.053494  0  0.096058  0.136723  0  1.018448  0
H  H31  1  0.95021052  0.16229791  0.11437141  1  0.053515  0  0.096057  0.136706  0  1.018454  0
H  H32  1  0.49007105  0.61562375  0.29305779  1  0.050726  0  0.095421  0.136539  0  0.995332  0
H  H33  1  0.99007471  0.38437506  0.70694214  1  0.050751  0  0.095411  0.136505  0  0.995367  0
H  H34  1  0.49007520  0.88437494  0.79305674  1  0.050738  0  0.095414  0.13651  0  0.995379  0
H  H35  1  0.99007448  0.11562472  0.20694375  1  0.050733  0  0.095414  0.136523  0  0.995364  0
H  H36  1  0.79249366  0.41522239  0.23912020  1  0.075995  0  0.101507  0.144341  0  0.986736  0
H  H37  1  0.29248992  0.58477674  0.76087990  1  0.075985  0  0.101495  0.144324  0  0.986771  0
H  H38  1  0.79249354  0.08477688  0.73911406  1  0.075973  0  0.101509  0.144384  0  0.986681  0
H  H39  1  0.29248906  0.91522140  0.26088549  1  0.075929  0  0.101488  0.144337  0  0.986675  0
H  H40  1  0.86060400  0.53055519  0.29107124  1  0.076273  0  0.098083  0.138366  0  0.99871  0
H  H41  1  0.36060216  0.46944639  0.70892732  1  0.076256  0  0.098089  0.138372  0  0.998701  0
H  H42  1  0.86060797  0.96944973  0.79106797  1  0.076378  0  0.098096  0.138425  0  0.998638  0
H  H43  1  0.36060408  0.03055014  0.20893115  1  0.07638  0  0.098101  0.138414  0  0.998583  0
H  H44  1  0.94134011  0.47858899  0.20919096  1  0.044083  0  0.102391  0.14785  0  0.982709  0
H  H45  1  0.44133669  0.52141246  0.79080887  1  0.044122  0  0.102404  0.147897  0  0.982683  0
H  H46  1  0.94133817  0.02141173  0.70918480  1  0.04405  0  0.102376  0.147847  0  0.982677  0
H  H47  1  0.44133373  0.97858716  0.29081559  1  0.044078  0  0.10239  0.147869  0  0.982655  0
H  H48  1  0.47733751  0.82955405  0.14335540  1  0.063839  0  0.099199  0.147285  0  0.989726  0
H  H49  1  0.97733957  0.17044478  0.85664506  1  0.063837  0  0.099199  0.147308  0  0.989683  0
H  H50  1  0.47733525  0.67044544  0.64335543  1  0.063807  0  0.099178  0.147251  0  0.98975  0
H  H51  1  0.97733497  0.32955680  0.35664447  1  0.063768  0  0.099181  0.147248  0  0.98975  0
H  H52  1  0.59899133  0.87542430  0.07998593  1  0.076209  0  0.094587  0.134167  0  1.006963  0
H  H53  1  0.09899442  0.12457514  0.92001604  1  0.07617  0  0.094626  0.134197  0  1.006846  0
H  H54  1  0.59899015  0.62457496  0.57998483  1  0.076198  0  0.094606  0.134181  0  1.006905  0
H  H55  1  0.09899070  0.37542619  0.42001434  1  0.076199  0  0.09457  0.134128  0  1.006988  0
H  H56  1  0.61943381  0.90112284  0.17791263  1  0.038741  0  0.09427  0.131874  0  0.997084  0
H  H57  1  0.11943539  0.09887657  0.82208827  1  0.039026  0  0.094252  0.131868  0  0.997122  0
H  H58  1  0.61943170  0.59887644  0.67791264  1  0.038418  0  0.094267  0.131874  0  0.997107  0
H  H59  1  0.11943161  0.40112638  0.32208713  1  0.038393  0  0.094252  0.131845  0  0.997091  0
H  H60  1  0.36343060  0.24780524  0.44646621  1  0.097585  0  0.099267  0.092465  0  1.0708  0
H  H61  1  0.86343059  0.75219377  0.55353571  1  0.097621  0  0.099269  0.092454  0  1.070847  0
H  H62  1  0.36343306  0.25219993  0.94646682  1  0.097558  0  0.099283  0.092509  0  1.07075  0
H  H63  1  0.86343205  0.74780079  0.05353566  1  0.097564  0  0.099267  0.092471  0  1.070796  0
H  H64  1  0.39491681  0.45322453  0.41747685  1  0.069284  0  0.099563  0.095603  0  1.009596  0
H  H65  1  0.89492232  0.54677528  0.58252401  1  0.069331  0  0.099542  0.095618  0  1.00959  0
H  H66  1  0.39491775  0.04677972  0.91747741  1  0.069348  0  0.099552  0.09562  0  1.009592  0
H  H67  1  0.89491745  0.95322180  0.08252177  1  0.069331  0  0.099547  0.095579  0  1.009624  0
H  H68  1  0.61801212  0.54081794  0.43089491  1  0.063106  0  0.098491  0.096177  0  1.030557  0
H  H69  1  0.11801829  0.45918318  0.56910542  1  0.063056  0  0.098478  0.096166  0  1.030578  0
H  H70  1  0.61801317  0.95918317  0.93089388  1  0.063129  0  0.09848  0.096137  0  1.030522  0
H  H71  1  0.11801234  0.04081709  0.06910141  1  0.063129  0  0.098488  0.096137  0  1.030646  0
H  H72  1  0.80473007  0.42077387  0.47348764  1  0.083049  0  0.10101  0.100871  0  1.019057  0
H  H73  1  0.30473475  0.57923036  0.52651136  1  0.082978  0  0.100979  0.100836  0  1.019055  0
H  H74  1  0.80473389  0.07922805  0.97348206  1  0.083021  0  0.100971  0.100846  0  1.019101  0
H  H75  1  0.30473191  0.92077191  0.02651023  1  0.083  0  0.100979  0.100861  0  1.01904  0
C  C76  1  0.96453077  0.82028168  0.28998694  1  -0.013808  0  -0.228256  -0.420075  0  3.955433  0
C  C77  1  0.46453053  0.17971547  0.71001461  1  -0.013766  0  -0.228299  -0.420215  0  3.955257  0
C  C78  1  0.96453536  0.67971880  0.78998585  1  -0.013651  0  -0.22829  -0.420107  0  3.955312  0
C  C79  1  0.46453380  0.32028090  0.21001458  1  -0.013605  0  -0.228302  -0.420185  0  3.955258  0
C  C80  1  0.83041362  0.79388539  0.31828034  1  0.404782  0  0.10709  0.210014  0  3.986  0
C  C81  1  0.33041217  0.20611197  0.68172040  1  0.404785  0  0.107144  0.209988  0  3.985838  0
C  C82  1  0.83041717  0.70611618  0.81827981  1  0.404769  0  0.107054  0.20996  0  3.985976  0
C  C83  1  0.33041647  0.29388460  0.18172093  1  0.404655  0  0.107065  0.209927  0  3.985939  0
C  C84  1  0.72402229  0.73842998  0.28423652  1  0.088003  0  -0.037718  -0.15011  0  4.085703  0
C  C85  1  0.22402191  0.26156841  0.71576289  1  0.087982  0  -0.03772  -0.150016  0  4.085618  0
C  C86  1  0.72402572  0.76157004  0.78423713  1  0.087955  0  -0.037656  -0.149967  0  4.085808  0
C  C87  1  0.22402535  0.23843176  0.21576341  1  0.088218  0  -0.03764  -0.149826  0  4.085704  0
C  C88  1  0.62284296  0.73797620  0.33838758  1  0.409624  0  0.097818  0.206907  0  4.022789  0
C  C89  1  0.12284324  0.26202406  0.66161220  1  0.409608  0  0.097809  0.206857  0  4.022728  0
C  C90  1  0.62284737  0.76202486  0.83838707  1  0.409606  0  0.097755  0.206847  0  4.022925  0
C  C91  1  0.12284668  0.23797540  0.16161327  1  0.409623  0  0.097795  0.206882  0  4.022852  0
C  C92  1  0.48853255  0.68923680  0.33109041  1  -0.05974  0  -0.236011  -0.430067  0  3.968488  0
C  C93  1  0.98853319  0.31076372  0.66890951  1  -0.05978  0  -0.235959  -0.429912  0  3.968486  0
C  C94  1  0.48853490  0.81076361  0.83108990  1  -0.05938  0  -0.235967  -0.429999  0  3.968573  0
C  C95  1  0.98853477  0.18923690  0.16891058  1  -0.059401  0  -0.235984  -0.430051  0  3.968555  0
C  C96  1  0.84533619  0.49666046  0.23450209  1  -0.056438  0  -0.227129  -0.423356  0  3.965165  0
C  C97  1  0.34533462  0.50333858  0.76549756  1  -0.056444  0  -0.22713  -0.423389  0  3.965157  0
C  C98  1  0.84533527  0.00333957  0.73449873  1  -0.056614  0  -0.227109  -0.423445  0  3.964968  0
C  C99  1  0.34533456  0.99666032  0.26550148  1  -0.056586  0  -0.227087  -0.42338  0  3.964812  0
C  C100  1  0.76965066  0.58071779  0.18939799  1  0.395958  0  0.110152  0.213569  0  3.978353  0
C  C101  1  0.26964953  0.41928052  0.81060207  1  0.396011  0  0.110184  0.213574  0  3.978336  0
C  C102  1  0.76964983  0.91928039  0.68939527  1  0.395976  0  0.110142  0.213601  0  3.978448  0
C  C103  1  0.26964742  0.08072048  0.31060479  1  0.39624  0  0.110147  0.213594  0  3.978387  0
C  C104  1  0.71782092  0.68700134  0.20993032  1  0.063261  0  -0.035855  -0.146826  0  4.082913  0
C  C105  1  0.21781989  0.31299620  0.79006852  1  0.063155  0  -0.035905  -0.146902  0  4.08293  0
C  C106  1  0.71782129  0.81299609  0.70993038  1  0.063416  0  -0.035847  -0.146848  0  4.082855  0
C  C107  1  0.21781951  0.18700486  0.29007014  1  0.063181  0  -0.03592  -0.147035  0  4.082974  0
C  C108  1  0.65355425  0.72891484  0.14543707  1  0.443709  0  0.10192  0.213426  0  3.993809  0
C  C109  1  0.15355468  0.27108451  0.85456445  1  0.443838  0  0.10189  0.213368  0  3.993869  0
C  C110  1  0.65355276  0.77108351  0.64543543  1  0.44375  0  0.101901  0.213363  0  3.993863  0
C  C111  1  0.15355128  0.22891754  0.35456496  1  0.443732  0  0.10194  0.213381  0  3.993842  0
C  C112  1  0.58375622  0.83976700  0.13616875  1  -0.059805  0  -0.233669  -0.419163  0  3.960852  0
C  C113  1  0.08375890  0.16023161  0.86383151  1  -0.060053  0  -0.233685  -0.41921  0  3.960785  0
C  C114  1  0.58375398  0.66023146  0.63616934  1  -0.059369  0  -0.233672  -0.419138  0  3.960827  0
C  C115  1  0.08375427  0.33976971  0.36383093  1  -0.059332  0  -0.233615  -0.419021  0  3.960852  0
C  C116  1  0.54086344  0.09330253  0.48772650  1  1.569591  0  0.208021  0.569463  0  4.206029  0
C  C117  1  0.04086146  0.90669786  0.51227313  1  1.569649  0  0.208016  0.569492  0  4.206015  0
C  C118  1  0.54086362  0.40669897  0.98772545  1  1.569643  0  0.208018  0.5695  0  4.20595  0
C  C119  1  0.04086324  0.59329886  0.01227417  1  1.569656  0  0.207983  0.569462  0  4.205942  0
C  C120  1  0.56484245  0.21850969  0.47622728  1  0.021796  0  -0.011589  -0.048208  0  3.939303  0
C  C121  1  0.06484374  0.78149066  0.52377406  1  0.021637  0  -0.011556  -0.048154  0  3.939218  0
C  C122  1  0.56484682  0.28149177  0.97622621  1  0.021662  0  -0.01158  -0.04814  0  3.939265  0
C  C123  1  0.06484330  0.71850602  0.02377346  1  0.021643  0  -0.011622  -0.048167  0  3.939292  0
C  C124  1  0.45975912  0.28665242  0.45278306  1  -0.030429  0  -0.091924  -0.10734  0  3.98727  0
C  C125  1  0.95975916  0.71334815  0.54721905  1  -0.030451  0  -0.091983  -0.107403  0  3.987324  0
C  C126  1  0.45976167  0.21335090  0.95278309  1  -0.030396  0  -0.091976  -0.107484  0  3.987407  0
C  C127  1  0.95975955  0.78664881  0.04721789  1  -0.030443  0  -0.091915  -0.107396  0  3.987354  0
C  C128  1  0.47786149  0.40203728  0.43642381  1  -0.045361  0  -0.095226  -0.08902  0  4.027183  0
C  C129  1  0.97786481  0.59796325  0.56357721  1  -0.045319  0  -0.095184  -0.088993  0  4.027189  0
C  C130  1  0.47786428  0.09796600  0.93642326  1  -0.045306  0  -0.095186  -0.088975  0  4.027116  0
C  C131  1  0.97786300  0.90203539  0.06357552  1  -0.045306  0  -0.095197  -0.088941  0  4.02708  0
C  C132  1  0.60217486  0.45089272  0.44363980  1  -0.081388  0  -0.093283  -0.084065  0  4.024987  0
C  C133  1  0.10217880  0.54910672  0.55635938  1  -0.081379  0  -0.093261  -0.084076  0  4.025041  0
C  C134  1  0.60217580  0.04910951  0.94363868  1  -0.081434  0  -0.093268  -0.08399  0  4.02497  0
C  C135  1  0.10217492  0.95089333  0.05635714  1  -0.081441  0  -0.093291  -0.084051  0  4.02501  0
C  C136  1  0.70720229  0.38377206  0.46739362  1  -0.08772  0  -0.090804  -0.110902  0  3.988972  0
C  C137  1  0.20720399  0.61622891  0.53260688  1  -0.087675  0  -0.090751  -0.110821  0  3.988958  0
C  C138  1  0.70720603  0.11622746  0.96738916  1  -0.08772  0  -0.090746  -0.110859  0  3.989024  0
C  C139  1  0.20720221  0.88377181  0.03260519  1  -0.087635  0  -0.090753  -0.110868  0  3.988899  0
C  C140  1  0.68976672  0.26816452  0.48453105  1  -0.025043  0  -0.007285  -0.033819  0  3.927791  0
C  C141  1  0.18976709  0.73183648  0.51546830  1  -0.02489  0  -0.007322  -0.033869  0  3.927849  0
C  C142  1  0.68977120  0.23183503  0.98452941  1  -0.024905  0  -0.007336  -0.033945  0  3.927819  0
C  C143  1  0.18976654  0.76816341  0.01546826  1  -0.024882  0  -0.007321  -0.033888  0  3.927834  0
C  C144  1  0.80415090  0.20424145  0.51689196  1  1.597634  0  0.213952  0.592159  0  4.216344  0
C  C145  1  0.30415094  0.79576022  0.48310760  1  1.597602  0  0.213921  0.59207  0  4.2166  0
C  C146  1  0.80415618  0.29575939  0.01688913  1  1.597505  0  0.213908  0.592078  0  4.216424  0
C  C147  1  0.30415155  0.70424142  0.98310876  1  1.597625  0  0.213912  0.592044  0  4.216589  0
N  N148  1  0.66596521  0.78976142  0.40122648  1  -0.766463  0  -0.266721  -0.255944  0  3.49655  0
N  N149  1  0.16596620  0.21023706  0.59877282  1  -0.76645  0  -0.266759  -0.25602  0  3.496506  0
N  N150  1  0.66596875  0.71023874  0.90122763  1  -0.766399  0  -0.266811  -0.25607  0  3.49658  0
N  N151  1  0.16597051  0.28975974  0.09877223  1  -0.766384  0  -0.266824  -0.256048  0  3.496663  0
N  N152  1  0.79107575  0.82304092  0.38757978  1  -0.853863  0  -0.278474  -0.137744  0  3.664048  0
N  N153  1  0.29107493  0.17695650  0.61242088  1  -0.85381  0  -0.278491  -0.137646  0  3.663997  0
N  N154  1  0.79107936  0.67695989  0.88757981  1  -0.853932  0  -0.278399  -0.137685  0  3.664078  0
N  N155  1  0.29107917  0.32303839  0.11242085  1  -0.854126  0  -0.278438  -0.137722  0  3.664185  0
N  N156  1  0.73644988  0.56395088  0.11733507  1  -0.847536  0  -0.280959  -0.142651  0  3.68678  0
N  N157  1  0.23645209  0.43604919  0.88266380  1  -0.847564  0  -0.280899  -0.142516  0  3.686713  0
N  N158  1  0.73644804  0.93604818  0.61733403  1  -0.847518  0  -0.28092  -0.142571  0  3.687025  0
N  N159  1  0.23644707  0.06395189  0.38266596  1  -0.847528  0  -0.280912  -0.142483  0  3.686982  0
N  N160  1  0.66592618  0.65221252  0.08942499  1  -0.779112  0  -0.261531  -0.24405  0  3.475433  0
N  N161  1  0.16592777  0.34778681  0.91057376  1  -0.779116  0  -0.261501  -0.244012  0  3.475404  0
N  N162  1  0.66592257  0.84778578  0.58942505  1  -0.779214  0  -0.26152  -0.244038  0  3.475516  0
N  N163  1  0.16592256  0.15221440  0.41057537  1  -0.779226  0  -0.261533  -0.244048  0  3.475531  0
O  O164  1  0.62570151  0.02348336  0.46079907  1  -1.158993  0  -0.32248  -0.525697  0  2.280481  0
O  O165  1  0.12569757  0.97651774  0.53920239  1  -1.15898  0  -0.322503  -0.525749  0  2.280434  0
O  O166  1  0.62570056  0.47651969  0.96079804  1  -1.158958  0  -0.322428  -0.525664  0  2.280443  0
O  O167  1  0.12570049  0.52347971  0.03920174  1  -1.158973  0  -0.322441  -0.525677  0  2.280441  0
O  O168  1  0.43822106  0.05906152  0.52039792  1  -1.188758  0  -0.308211  -0.533571  0  2.234605  0
O  O169  1  0.93821629  0.94093738  0.47960415  1  -1.18881  0  -0.308166  -0.533523  0  2.234668  0
O  O170  1  0.43822406  0.44093821  0.02040015  1  -1.188839  0  -0.308215  -0.53359  0  2.234597  0
O  O171  1  0.93822015  0.55906068  0.97960191  1  -1.18888  0  -0.308181  -0.533563  0  2.234602  0
O  O172  1  0.78903742  0.14690651  0.57550899  1  -1.188602  0  -0.320737  -0.569646  0  2.228533  0
O  O173  1  0.28903600  0.85309775  0.42449222  1  -1.188578  0  -0.320724  -0.569608  0  2.228673  0
O  O174  1  0.78904453  0.35309866  0.07550729  1  -1.188506  0  -0.320713  -0.569592  0  2.228601  0
O  O175  1  0.28903968  0.64690730  0.92449617  1  -1.188579  0  -0.320668  -0.569496  0  2.228736  0
O  O176  1  0.91413787  0.22092894  0.48317979  1  -1.167464  0  -0.323777  -0.545755  0  2.371145  0
O  O177  1  0.41413815  0.77907256  0.51682055  1  -1.167447  0  -0.32374  -0.545682  0  2.371189  0
O  O178  1  0.91414224  0.27906855  0.98317816  1  -1.16745  0  -0.323737  -0.545691  0  2.371122  0
O  O179  1  0.41414260  0.72092868  0.01682218  1  -1.16745  0  -0.323783  -0.545766  0  2.37114  0
