# generated using pymatgen
data_AgH13C13S(NO)2
_symmetry_space_group_name_H-M   'P 1'
_cell_length_a   5.16478159
_cell_length_b   8.53054941
_cell_length_c   15.59394554
_cell_angle_alpha   102.46353771
_cell_angle_beta   92.46157369
_cell_angle_gamma   102.49097599
_symmetry_Int_Tables_number   1
_chemical_formula_structural   AgH13C13S(NO)2
_chemical_formula_sum   'Ag2 H26 C26 S2 N4 O4'
_cell_volume   652.07331439
_cell_formula_units_Z   2
loop_
 _symmetry_equiv_pos_site_id
 _symmetry_equiv_pos_as_xyz
  1  'x, y, z'
loop_
 _atom_site_type_symbol
 _atom_site_label
 _atom_site_symmetry_multiplicity
 _atom_site_fract_x
 _atom_site_fract_y
 _atom_site_fract_z
 _atom_site_occupancy
 _atom_site_hle17_bader_spin_density
 _atom_site_hle17_ddec_charge
 _atom_site_hle17_ddec_spin_density
 _atom_site_hle17_ddec_sum_bond_order
 _atom_site_hle17_magmom
 _atom_site_hse06_10hf_bader_spin_density
 _atom_site_hse06_10hf_ddec_charge
 _atom_site_hse06_10hf_ddec_spin_density
 _atom_site_hse06_10hf_ddec_sum_bond_order
 _atom_site_hse06_10hf_magmom
 _atom_site_hse06_bader_spin_density
 _atom_site_hse06_ddec_charge
 _atom_site_hse06_ddec_spin_density
 _atom_site_hse06_ddec_sum_bond_order
 _atom_site_hse06_magmom
 _atom_site_pbe_bader_spin_density
 _atom_site_pbe_cm5_charge
 _atom_site_pbe_ddec_charge
 _atom_site_pbe_ddec_spin_density
 _atom_site_pbe_ddec_sum_bond_order
 _atom_site_pbe_magmom
Ag  Ag0  1  0.77047103  0.48906981  0.05077707  1  0  0.523632  0  1.533553  0  0  0.38813  0  1.993984  0  0  0.41674  0  1.943052  0  0  0.456775  0.368662  0  2.028818  0
Ag  Ag1  1  0.24886262  0.51097539  0.94964704  1  0  0.524575  0  1.532143  0  0  0.389371  0  1.992585  0  0  0.418003  0  1.941601  0  0  0.456684  0.369885  0  2.027476  0
H  H2  1  0.75858425  0.81413155  0.97752294  1  0  0.074911  0  0.949524  0  0  0.083922  0  1.018568  0  0  0.086551  0  1.015294  0  0  0.111197  0.081878  0  1.021138  0
H  H3  1  0.26001713  0.18761155  0.02329005  1  0  0.074959  0  0.949284  0  0  0.083093  0  1.01944  0  0  0.085777  0  1.016101  0  0  0.110988  0.081074  0  1.022003  0
H  H4  1  0.87584725  0.10348954  0.07518799  1  0  0.109358  0  0.967406  0  0  0.121246  0  1.026564  0  0  0.123782  0  1.026247  0  0  0.106022  0.119407  0  1.026973  0
H  H5  1  0.13737194  0.89875976  0.92510115  1  0  0.108899  0  0.966793  0  0  0.120665  0  1.025971  0  0  0.123161  0  1.025731  0  0  0.105984  0.118857  0  1.026316  0
H  H6  1  0.59604232  0.17218860  0.19613906  1  0  0.109471  0  0.930001  0  0  0.123181  0  0.984865  0  0  0.126011  0  0.98263  0  0  0.110509  0.121028  0  0.986641  0
H  H7  1  0.41366113  0.82893327  0.80337432  1  0  0.110716  0  0.929791  0  0  0.124496  0  0.984393  0  0  0.127311  0  0.982173  0  0  0.111134  0.122346  0  0.986159  0
H  H8  1  0.27201760  0.96566793  0.31208448  1  0  0.093574  0  0.981229  0  0  0.113177  0  1.051044  0  0  0.112833  0  1.052895  0  0  0.083897  0.113361  0  1.049779  0
H  H9  1  0.73866659  0.03253634  0.68748148  1  0  0.093074  0  0.98148  0  0  0.112503  0  1.051459  0  0  0.112185  0  1.053248  0  0  0.083754  0.112673  0  1.050242  0
H  H10  1  0.99013281  0.87093106  0.23550057  1  0  0.122316  0  0.945699  0  0  0.141214  0  1.00837  0  0  0.142653  0  1.008807  0  0  0.092151  0.140094  0  1.008157  0
H  H11  1  0.02234521  0.12761133  0.76329731  1  0  0.122327  0  0.945705  0  0  0.141103  0  1.008257  0  0  0.142564  0  1.008671  0  0  0.09207  0.13997  0  1.008064  0
H  H12  1  0.13959205  0.08571743  0.24896060  1  0  0.114201  0  0.952682  0  0  0.137408  0  1.011196  0  0  0.13827  0  1.011568  0  0  0.092876  0.136687  0  1.011007  0
H  H13  1  0.87219123  0.91315283  0.75075625  1  0  0.11354  0  0.951909  0  0  0.136862  0  1.010258  0  0  0.137736  0  1.0106  0  0  0.092735  0.136173  0  1.010035  0
H  H14  1  0.60896543  0.75297214  0.33167364  1  0  0.100616  0  0.953424  0  0  0.11224  0  1.012701  0  0  0.11509  0  1.011622  0  0  0.105198  0.110122  0  1.013624  0
H  H15  1  0.40843529  0.24874960  0.66903772  1  0  0.101511  0  0.953467  0  0  0.11297  0  1.012917  0  0  0.115753  0  1.011964  0  0  0.10556  0.110923  0  1.013733  0
H  H16  1  0.56129278  0.87728908  0.48795972  1  0  0.087247  0  0.974537  0  0  0.098975  0  1.037365  0  0  0.10131  0  1.037401  0  0  0.097011  0.097317  0  1.037423  0
H  H17  1  0.45222931  0.12493399  0.51235200  1  0  0.088701  0  0.971329  0  0  0.100684  0  1.033446  0  0  0.103052  0  1.033433  0  0  0.097984  0.09901  0  1.033534  0
H  H18  1  0.76260470  0.58059932  0.46190637  1  0  0.093372  0  0.94859  0  0  0.108068  0  1.001627  0  0  0.110441  0  1.002005  0  0  0.100693  0.106366  0  1.001513  0
H  H19  1  0.25363603  0.41715797  0.53749606  1  0  0.092615  0  0.950685  0  0  0.106511  0  1.004654  0  0  0.108935  0  1.004977  0  0  0.100205  0.104771  0  1.004583  0
H  H20  1  0.80818546  0.45872038  0.30481768  1  0  0.111048  0  0.949412  0  0  0.120999  0  1.009124  0  0  0.124302  0  1.006869  0  0  0.107796  0.118557  0  1.010868  0
H  H21  1  0.21171743  0.53886245  0.69488156  1  0  0.110805  0  0.950196  0  0  0.120752  0  1.009896  0  0  0.124138  0  1.007546  0  0  0.107667  0.11824  0  1.011704  0
H  H22  1  0.01048404  0.73218094  0.61262954  1  0  0.113091  0  0.958654  0  0  0.133757  0  1.020377  0  0  0.135102  0  1.020594  0  0  0.092289  0.132737  0  1.020279  0
H  H23  1  0.01428377  0.26553040  0.38840361  1  0  0.113693  0  0.955918  0  0  0.133923  0  1.018002  0  0  0.135334  0  1.018121  0  0  0.092755  0.132868  0  1.01796  0
H  H24  1  0.00221938  0.91617677  0.57901840  1  0  0.106921  0  0.950587  0  0  0.130357  0  1.01043  0  0  0.131544  0  1.010645  0  0  0.091617  0.129489  0  1.010281  0
H  H25  1  0.99609100  0.07665875  0.41992171  1  0  0.107944  0  0.94693  0  0  0.131946  0  1.005979  0  0  0.133069  0  1.006286  0  0  0.092551  0.131101  0  1.005794  0
H  H26  1  0.31014128  0.88462873  0.61733519  1  0  0.108879  0  0.951291  0  0  0.132184  0  1.008774  0  0  0.133619  0  1.008745  0  0  0.091366  0.131084  0  1.008866  0
H  H27  1  0.70128657  0.12370605  0.38138678  1  0  0.10977  0  0.948411  0  0  0.133585  0  1.005269  0  0  0.135045  0  1.005197  0  0  0.091822  0.132481  0  1.005363  0
C  C28  1  0.65544365  0.84935848  0.03567013  1  0  0.115794  0  3.745702  0  0  0.083001  0  3.997207  0  0  0.090055  0  4.016775  0  0  0.032536  0.078304  0  3.984227  0
C  C29  1  0.36187258  0.15201615  0.96487201  1  0  0.115086  0  3.744725  0  0  0.082977  0  3.996119  0  0  0.090023  0  4.015593  0  0  0.03173  0.07811  0  3.983458  0
C  C30  1  0.71685852  0.00802728  0.08859138  1  0  -0.111985  0  3.757908  0  0  -0.126685  0  4.010374  0  0  -0.133916  0  4.034066  0  0  -0.090839  -0.122016  0  3.99435  0
C  C31  1  0.29722994  0.99364864  0.91161173  1  0  -0.112184  0  3.75613  0  0  -0.126573  0  4.008213  0  0  -0.133819  0  4.031908  0  0  -0.091019  -0.121882  0  3.992195  0
C  C32  1  0.56036322  0.04552124  0.15725113  1  0  -0.049467  0  3.674111  0  0  -0.073463  0  3.917291  0  0  -0.070085  0  3.935366  0  0  -0.066507  -0.075415  0  3.905007  0
C  C33  1  0.45207574  0.95547058  0.84257715  1  0  -0.049604  0  3.674381  0  0  -0.07385  0  3.91767  0  0  -0.070396  0  3.935679  0  0  -0.06693  -0.075839  0  3.905435  0
C  C34  1  0.35652163  0.92318503  0.17564084  1  0  0.033851  0  3.685892  0  0  0.062012  0  3.923879  0  0  0.055643  0  3.949617  0  0  -0.003056  0.065951  0  3.906623  0
C  C35  1  0.65749104  0.07689377  0.82419571  1  0  0.03243  0  3.688999  0  0  0.060592  0  3.927234  0  0  0.054191  0  3.952975  0  0  -0.003349  0.064552  0  3.909976  0
C  C36  1  0.32005766  0.76146236  0.12308706  1  0  0.355599  0  3.792877  0  0  0.327201  0  4.042166  0  0  0.341945  0  4.062752  0  0  0.20233  0.317103  0  4.028133  0
C  C37  1  0.69747506  0.23848989  0.87716486  1  0  0.355049  0  3.796132  0  0  0.326618  0  4.045876  0  0  0.341368  0  4.066507  0  0  0.201744  0.316542  0  4.031781  0
C  C38  1  0.17932821  0.96376342  0.24695173  1  0  -0.329406  0  3.740551  0  0  -0.413983  0  3.979403  0  0  -0.415883  0  3.992131  0  0  -0.246024  -0.412294  0  3.970723  0
C  C39  1  0.83284120  0.03515994  0.75252307  1  0  -0.327569  0  3.740397  0  0  -0.411665  0  3.979267  0  0  -0.413602  0  3.991957  0  0  -0.245223  -0.409982  0  3.970575  0
C  C40  1  0.21009476  0.59991052  0.30907713  1  0  -0.112199  0  3.737104  0  0  -0.089069  0  3.987094  0  0  -0.096036  0  4.008464  0  0  -0.023684  -0.084741  0  3.972983  0
C  C41  1  0.80868239  0.39959686  0.69118068  1  0  -0.110555  0  3.735805  0  0  -0.087234  0  3.985613  0  0  -0.094246  0  4.007102  0  0  -0.023085  -0.082928  0  3.971518  0
C  C42  1  0.42230124  0.71780167  0.36013106  1  0  -0.065293  0  3.785966  0  0  -0.089896  0  4.037547  0  0  -0.08827  0  4.057197  0  0  -0.088929  -0.090766  0  4.024291  0
C  C43  1  0.59482059  0.28297303  0.64026713  1  0  -0.066846  0  3.788675  0  0  -0.091292  0  4.040059  0  0  -0.08969  0  4.059751  0  0  -0.089168  -0.092156  0  4.026772  0
C  C44  1  0.39390654  0.78712518  0.44782064  1  0  -0.153686  0  3.761251  0  0  -0.17234  0  4.009997  0  0  -0.177339  0  4.031022  0  0  -0.099981  -0.169046  0  3.995789  0
C  C45  1  0.62109564  0.21396033  0.55236557  1  0  -0.153859  0  3.762514  0  0  -0.172067  0  4.011425  0  0  -0.177019  0  4.032396  0  0  -0.100419  -0.168807  0  3.997267  0
C  C46  1  0.15566301  0.74190172  0.48560041  1  0  0.141833  0  3.76821  0  0  0.166419  0  4.005503  0  0  0.169254  0  4.029401  0  0  -0.009863  0.164545  0  3.989195  0
C  C47  1  0.85906418  0.25798778  0.51421392  1  0  0.141933  0  3.770437  0  0  0.165494  0  4.009217  0  0  0.168296  0  4.033163  0  0  -0.009697  0.163646  0  3.992875  0
C  C48  1  0.94767967  0.62033155  0.43336302  1  0  -0.128164  0  3.737227  0  0  -0.145309  0  3.982324  0  0  -0.150698  0  4.004954  0  0  -0.090581  -0.141751  0  3.967016  0
C  C49  1  0.06881993  0.37820321  0.56632449  1  0  -0.12753  0  3.740572  0  0  -0.143541  0  3.985177  0  0  -0.148947  0  4.007764  0  0  -0.090035  -0.139963  0  3.969873  0
C  C50  1  0.97234020  0.54990951  0.34571876  1  0  -0.057309  0  3.750795  0  0  -0.080907  0  4.000319  0  0  -0.078891  0  4.018676  0  0  -0.083808  -0.082081  0  3.987964  0
C  C51  1  0.04620534  0.44846343  0.65418267  1  0  -0.058979  0  3.7517  0  0  -0.082766  0  4.001374  0  0  -0.080766  0  4.019691  0  0  -0.084652  -0.083897  0  3.989101  0
C  C52  1  0.11926578  0.82235559  0.57852388  1  0  -0.33606  0  3.726308  0  0  -0.416005  0  3.958361  0  0  -0.418332  0  3.967099  0  0  -0.239122  -0.414077  0  3.952249  0
C  C53  1  0.89320736  0.17746287  0.42110474  1  0  -0.338222  0  3.723438  0  0  -0.418435  0  3.957637  0  0  -0.420789  0  3.966355  0  0  -0.239979  -0.416488  0  3.951534  0
S  S54  1  0.23873286  0.51479601  0.19614385  1  0  1.195069  0  5.508068  0  0  1.106638  0  6.003087  0  0  1.151427  0  5.989032  0  0  0.526989  1.075735  0  6.011698  0
S  S55  1  0.78175306  0.48503719  0.80421580  1  0  1.198325  0  5.502568  0  0  1.109715  0  5.997762  0  0  1.154519  0  5.983615  0  0  0.528121  1.078824  0  6.006461  0
N  N56  1  0.45943047  0.72982352  0.05182733  1  0  -0.400106  0  3.370199  0  0  -0.307774  0  3.639308  0  0  -0.329843  0  3.655606  0  0  -0.356749  -0.292914  0  3.628075  0
N  N57  1  0.55946539  0.27063172  0.94871947  1  0  -0.39816  0  3.370436  0  0  -0.30556  0  3.639007  0  0  -0.327672  0  3.655403  0  0  -0.356102  -0.290647  0  3.627689  0
N  N58  1  0.13215058  0.62738095  0.13887537  1  0  -0.712366  0  3.191032  0  0  -0.626221  0  3.495853  0  0  -0.655143  0  3.498806  0  0  -0.444858  -0.605808  0  3.492745  0
N  N59  1  0.88707598  0.37188236  0.86143701  1  0  -0.714006  0  3.187433  0  0  -0.629632  0  3.495245  0  0  -0.658566  0  3.498208  0  0  -0.445405  -0.609216  0  3.492102  0
O  O60  1  0.05806930  0.35232750  0.17411452  1  0  -0.624901  0  1.983202  0  0  -0.577952  0  2.245576  0  0  -0.598801  0  2.232506  0  0  -0.326547  -0.563129  0  2.253931  0
O  O61  1  0.96423906  0.64686874  0.82610408  1  0  -0.626322  0  1.983803  0  0  -0.578659  0  2.24605  0  0  -0.599456  0  2.232803  0  0  -0.326573  -0.563873  0  2.254521  0
O  O62  1  0.52368362  0.52234371  0.19058459  1  0  -0.6308  0  2.031027  0  0  -0.571624  0  2.305767  0  0  -0.594452  0  2.292057  0  0  -0.331502  -0.555463  0  2.31454  0
O  O63  1  0.49729575  0.47898333  0.81002440  1  0  -0.631155  0  2.029558  0  0  -0.571486  0  2.303683  0  0  -0.594377  0  2.290042  0  0  -0.331053  -0.55529  0  2.312407  0
