# generated using pymatgen
data_Zn2H22C25N9O2
_symmetry_space_group_name_H-M   'P 1'
_cell_length_a   15.31195323
_cell_length_b   14.68547856
_cell_length_c   23.61015199
_cell_angle_alpha   87.33264278
_cell_angle_beta   86.10162423
_cell_angle_gamma   76.81865959
_symmetry_Int_Tables_number   1
_chemical_formula_structural   Zn2H22C25N9O2
_chemical_formula_sum   'Zn8 H88 C100 N36 O8'
_cell_volume   5154.58856622
_cell_formula_units_Z   4
loop_
 _symmetry_equiv_pos_site_id
 _symmetry_equiv_pos_as_xyz
  1  'x, y, z'
loop_
 _atom_site_type_symbol
 _atom_site_label
 _atom_site_symmetry_multiplicity
 _atom_site_fract_x
 _atom_site_fract_y
 _atom_site_fract_z
 _atom_site_occupancy
 _atom_site_pbe_bader_charge
 _atom_site_pbe_bader_spin_density
 _atom_site_pbe_cm5_charge
 _atom_site_pbe_ddec_charge
 _atom_site_pbe_ddec_spin_density
 _atom_site_pbe_ddec_sum_bond_order
 _atom_site_pbe_magmom
Zn  Zn0  1  0.08133850  0.07515731  0.58052170  1  1.190713  0  0.746563  0.615051  0  2.4803  0
Zn  Zn1  1  0.93543888  0.95146753  0.58410022  1  1.201068  0  0.75653  0.66016  0  2.355752  0
Zn  Zn2  1  0.55757156  0.57495269  0.07048767  1  1.180833  0  0.739364  0.599459  0  2.494604  0
Zn  Zn3  1  0.42604389  0.42548983  0.06648120  1  1.188859  0  0.735366  0.631722  0  2.352326  0
Zn  Zn4  1  0.89259320  0.99753299  0.44256431  1  1.175799  0  0.771166  0.692046  0  2.273042  0
Zn  Zn5  1  0.06427222  0.06963882  0.43545263  1  1.166383  0  0.72759  0.587468  0  2.466567  0
Zn  Zn6  1  0.43454067  0.43817943  0.92946675  1  1.18933  0  0.744431  0.613651  0  2.441354  0
Zn  Zn7  1  0.57921657  0.57088602  0.93296701  1  1.183649  0  0.745627  0.604473  0  2.478871  0
H  H8  1  0.77820417  0.10052774  0.34160954  1  0.112676  0  0.121605  0.119265  0  0.99814  0
H  H9  1  0.18815623  0.86442615  0.46151844  1  0.10061  0  0.111096  0.100013  0  1.030545  0
H  H10  1  0.35538218  0.50483044  0.80390407  1  0.086559  0  0.122238  0.11271  0  0.98475  0
H  H11  1  0.76439611  0.41790563  0.93341093  1  0.098968  0  0.121686  0.112699  0  0.99185  0
H  H12  1  0.73643696  0.92464889  0.62336385  1  0.070955  0  0.117053  0.104424  0  0.995774  0
H  H13  1  0.29301304  0.07797573  0.58172731  1  0.07114  0  0.11998  0.111176  0  0.985368  0
H  H14  1  0.22323862  0.55507028  0.08939042  1  0.079989  0  0.111951  0.09984  0  1.007189  0
H  H15  1  0.74987776  0.64781197  0.09390085  1  0.095543  0  0.116979  0.107055  0  0.994076  0
H  H16  1  0.95415755  0.27540116  0.41575384  1  0.084124  0  0.113609  0.107196  0  1.014506  0
H  H17  1  0.89682683  0.77811659  0.40628661  1  0.091983  0  0.118983  0.108266  0  0.993669  0
H  H18  1  0.43150949  0.76081520  0.90261726  1  0.096344  0  0.113765  0.102489  0  1.013263  0
H  H19  1  0.36879158  0.24308118  0.90236180  1  0.080705  0  0.116659  0.10619  0  0.995657  0
H  H20  1  0.69012929  0.02580624  0.45075388  1  0.081415  0  0.1195  0.11165  0  0.984167  0
H  H21  1  0.27697245  0.98549445  0.41230756  1  0.12591  0  0.123474  0.124266  0  0.988942  0
H  H22  1  0.24958491  0.59236332  0.90639064  1  0.108422  0  0.116349  0.108672  0  1.004726  0
H  H23  1  0.77781519  0.62124157  0.91139500  1  0.099746  0  0.118164  0.107693  0  1.005583  0
H  H24  1  0.97759158  0.28364013  0.59708148  1  0.087898  0  0.115213  0.103542  0  1.006162  0
H  H25  1  0.00419441  0.73378839  0.57275552  1  0.086205  0  0.111834  0.100299  0  1.048855  0
H  H26  1  0.39802154  0.75737146  0.08645329  1  0.082159  0  0.115757  0.10639  0  1.003996  0
H  H27  1  0.36026721  0.22087339  0.08586104  1  0.087528  0  0.114275  0.098121  0  1.012027  0
H  H28  1  0.02835554  0.18409755  0.29710542  1  0.096842  0  0.124244  0.113188  0  0.985093  0
H  H29  1  0.06567139  0.80779781  0.31077849  1  0.046451  0  0.112154  0.100164  0  0.989637  0
H  H30  1  0.55448936  0.67195457  0.80255572  1  0.092425  0  0.121598  0.112055  0  0.985325  0
H  H31  1  0.58226964  0.23636987  0.91160919  1  0.084434  0  0.116731  0.101221  0  1.016464  0
H  H32  1  0.79832403  0.06693238  0.67192977  1  0.108346  0  0.112766  0.104447  0  1.012398  0
H  H33  1  0.25408399  0.90115309  0.57012780  1  0.124855  0  0.115436  0.101662  0  1.042138  0
H  H34  1  0.32374414  0.45801312  0.19530805  1  0.0898  0  0.116687  0.102033  0  0.995744  0
H  H35  1  0.74277179  0.43730779  0.09121312  1  0.0655  0  0.115827  0.101478  0  1.005134  0
H  H36  1  0.82485843  0.60880630  0.55438630  1  0.048355  0  0.089978  0.073775  0  1.003249  0
H  H37  1  0.07488131  0.43080514  0.43580584  1  0.052522  0  0.089527  0.072315  0  1.009306  0
H  H38  1  0.20456358  0.07834439  0.97118603  1  0.040228  0  0.094733  0.082038  0  0.999715  0
H  H39  1  0.51192961  0.91841551  0.01320760  1  0.068889  0  0.090665  0.076792  0  1.000461  0
H  H40  1  0.80761091  0.49579622  0.46311964  1  0.052381  0  0.093437  0.079783  0  1.001058  0
H  H41  1  0.93355626  0.57525899  0.39580192  1  0.026774  0  0.090184  0.075743  0  1.006739  0
H  H42  1  0.32470344  0.95299316  0.89880467  1  0.034698  0  0.093507  0.082138  0  0.999046  0
H  H43  1  0.46328479  0.04565550  0.91925120  1  0.037339  0  0.085447  0.065625  0  1.013911  0
H  H44  1  0.09214396  0.54397757  0.52677473  1  0.04257  0  0.092701  0.078671  0  0.99866  0
H  H45  1  0.96575433  0.46430092  0.59461184  1  0.047308  0  0.089407  0.072211  0  1.008675  0
H  H46  1  0.39112480  0.04519845  0.08585729  1  0.035572  0  0.088536  0.070986  0  1.009775  0
H  H47  1  0.25252085  0.95347776  0.06502506  1  0.057948  0  0.091875  0.077156  0  1.003102  0
H  H48  1  0.38351008  0.75131593  0.60237403  1  0.059391  0  0.10172  0.113239  0  1.006271  0
H  H49  1  0.89769939  0.02683675  0.83480441  1  0.065085  0  0.10304  0.110216  0  0.989476  0
H  H50  1  0.87461151  0.29714176  0.11681233  1  0.047313  0  0.099853  0.107939  0  0.989059  0
H  H51  1  0.26699199  0.51191180  0.29780578  1  0.033357  0  0.096677  0.098953  0  0.997039  0
H  H52  1  0.24092203  0.68115641  0.67967000  1  0.060508  0  0.099165  0.088969  0  1.021428  0
H  H53  1  0.79419731  0.20521787  0.77467263  1  0.057497  0  0.099063  0.095208  0  0.996243  0
H  H54  1  0.73637058  0.17893075  0.15101611  1  0.067549  0  0.099157  0.094569  0  1.012051  0
H  H55  1  0.33976169  0.69008841  0.27573753  1  0.085134  0  0.102956  0.093783  0  1.020313  0
H  H56  1  0.54277725  0.96113860  0.57025115  1  0.067301  0  0.091607  0.093085  0  1.028461  0
H  H57  1  0.46055909  0.03442517  0.49999791  1  0.067949  0  0.092109  0.092512  0  1.030572  0
H  H58  1  0.06144817  0.57295224  0.02446964  1  0.046967  0  0.092342  0.095057  0  1.024841  0
H  H59  1  0.92410882  0.64339308  0.04492716  1  0.064682  0  0.092809  0.096225  0  1.023549  0
H  H60  1  0.11644342  0.14534843  0.71247682  1  0.026535  0  0.093048  0.128037  0  0.998385  0
H  H61  1  0.02911893  0.21465493  0.75655220  1  0.06506  0  0.097664  0.142575  0  0.987399  0
H  H62  1  0.07509212  0.09694993  0.77641053  1  0.065999  0  0.10111  0.145509  0  0.976772  0
H  H63  1  0.98341176  0.77136724  0.68047267  1  0.030306  0  0.096788  0.132583  0  0.99591  0
H  H64  1  0.06725098  0.67163925  0.65866584  1  0.035456  0  0.097325  0.134599  0  0.988425  0
H  H65  1  0.08272149  0.73423520  0.71813598  1  0.056754  0  0.102554  0.149835  0  0.978667  0
H  H66  1  0.52902585  0.71277248  0.16298569  1  0.036051  0  0.092765  0.123343  0  1.011778  0
H  H67  1  0.44750610  0.74615135  0.22005799  1  0.055673  0  0.101502  0.144854  0  0.985006  0
H  H68  1  0.54790815  0.66232779  0.23236374  1  0.054371  0  0.104808  0.149983  0  0.969283  0
H  H69  1  0.52597606  0.20088783  0.11781421  1  0.012909  0  0.093752  0.130257  0  0.993016  0
H  H70  1  0.54973004  0.19249823  0.04348327  1  0.067576  0  0.094975  0.137794  0  1.010347  0
H  H71  1  0.63384740  0.14116882  0.09099893  1  0.042121  0  0.097759  0.13951  0  0.991463  0
H  H72  1  0.00336669  0.11733021  0.13796257  1  0.035476  0  0.096572  0.135637  0  0.983859  0
H  H73  1  0.03199965  0.20693332  0.17548174  1  0.056209  0  0.094773  0.128294  0  0.984345  0
H  H74  1  0.01707615  0.10279074  0.21251953  1  0.034238  0  0.094831  0.132129  0  1.011454  0
H  H75  1  0.13115483  0.53819544  0.36104754  1  -0.000697  0  0.094419  0.130052  0  0.995501  0
H  H76  1  0.07900975  0.65212560  0.38587677  1  0.070747  0  0.0929  0.132188  0  1.028766  0
H  H77  1  0.08576193  0.62815387  0.31205563  1  0.031326  0  0.090363  0.123077  0  0.993904  0
H  H78  1  0.47668996  0.53656270  0.62688496  1  0.047528  0  0.097873  0.13748  0  0.980142  0
H  H79  1  0.53844544  0.62464611  0.62545125  1  0.044526  0  0.099336  0.137769  0  0.97968  0
H  H80  1  0.53716138  0.54963676  0.68704571  1  0.041087  0  0.092976  0.129897  0  1.009232  0
H  H81  1  0.76855853  0.00477543  0.90998757  1  0.069268  0  0.099293  0.138286  0  0.977544  0
H  H82  1  0.69929704  0.10339122  0.94491334  1  0.044688  0  0.095983  0.133555  0  0.999485  0
H  H83  1  0.67591943  0.07355715  0.87587646  1  0.056384  0  0.093531  0.125238  0  0.99082  0
H  H84  1  0.62514663  0.74929131  0.45874882  1  0.051409  0  0.095445  0.133981  0  0.984616  0
H  H85  1  0.62339030  0.84580503  0.41131990  1  0.040626  0  0.090348  0.123859  0  0.991558  0
H  H86  1  0.70461113  0.81953983  0.46424304  1  0.067151  0  0.084715  0.117161  0  1.034939  0
H  H87  1  0.46374761  0.74930866  0.51259450  1  0.018065  0  0.087235  0.117414  0  1.006601  0
H  H88  1  0.36231879  0.82264707  0.48853341  1  0.011946  0  0.087395  0.123352  0  1.017178  0
H  H89  1  0.45356980  0.78038104  0.43984961  1  0.10122  0  0.092413  0.136789  0  1.018937  0
H  H90  1  0.04281784  0.81930791  0.92540361  1  0.056259  0  0.088673  0.120391  0  0.997215  0
H  H91  1  0.15180963  0.74878479  0.93580316  1  0.049932  0  0.091284  0.130167  0  1.01316  0
H  H92  1  0.09022817  0.72791962  0.87877949  1  0.058621  0  0.089971  0.126812  0  0.994157  0
H  H93  1  0.93324975  0.77960690  0.88512479  1  0.02546  0  0.088571  0.120462  0  1.022685  0
H  H94  1  0.91834164  0.66689797  0.87245080  1  0.019883  0  0.090065  0.122722  0  0.987577  0
H  H95  1  0.83202232  0.74782234  0.90993922  1  0.06057  0  0.085286  0.115668  0  1.029809  0
C  C96  1  0.98747671  0.11374065  0.70762706  1  0.421845  0  0.093483  0.215697  0  3.975882  0
C  C97  1  0.10053679  0.80507288  0.63824070  1  0.483551  0  0.099907  0.218119  0  3.974771  0
C  C98  1  0.45237173  0.61039454  0.18789008  1  0.473011  0  0.096108  0.208841  0  3.985639  0
C  C99  1  0.61149113  0.28983115  0.08182033  1  0.442576  0  0.095383  0.216607  0  3.944604  0
C  C100  1  0.84509072  0.11418761  0.33955307  1  0.397312  0  0.009383  -0.046702  0  3.963633  0
C  C101  1  0.14765495  0.86404240  0.42560305  1  0.420629  0  0.002178  -0.030262  0  3.958875  0
C  C102  1  0.41073687  0.53649255  0.81185610  1  0.441465  0  0.012634  -0.043147  0  3.996026  0
C  C103  1  0.70824379  0.38476487  0.93129628  1  0.512333  0  0.016722  -0.024146  0  3.942262  0
C  C104  1  0.73934040  0.95370422  0.58025331  1  0.382248  0  0.006522  -0.063785  0  3.980421  0
C  C105  1  0.27315289  0.06328486  0.54037466  1  0.403319  0  0.003858  -0.071198  0  4.005198  0
C  C106  1  0.24499863  0.55692502  0.04463119  1  0.417899  0  0.00116  -0.061612  0  3.96223  0
C  C107  1  0.74220519  0.63924090  0.04914118  1  0.389672  0  0.001442  -0.071111  0  3.988745  0
C  C108  1  0.96386491  0.26141236  0.46070922  1  0.39845  0  -0.001774  -0.055435  0  3.968353  0
C  C109  1  0.92046086  0.78309588  0.44810880  1  0.412337  0  0.008735  -0.048564  0  3.978622  0
C  C110  1  0.43187630  0.74475354  0.94800348  1  0.355703  0  0.002096  -0.053978  0  3.975543  0
C  C111  1  0.36906896  0.25269084  0.94772061  1  0.377269  0  0.000844  -0.066736  0  4.021046  0
C  C112  1  0.71698241  0.00456179  0.49203671  1  0.360425  0  0.004497  -0.061672  0  3.971755  0
C  C113  1  0.26479075  0.01486200  0.45428974  1  0.36958  0  0.01076  -0.060529  0  3.963386  0
C  C114  1  0.25848651  0.57738381  0.95141159  1  0.376615  0  0.006001  -0.055088  0  3.94233  0
C  C115  1  0.75655601  0.62721196  0.95610614  1  0.388305  0  0.004758  -0.063874  0  3.982557  0
C  C116  1  0.97562597  0.26537851  0.55316743  1  0.379709  0  0.002504  -0.053076  0  3.978965  0
C  C117  1  0.97582207  0.76111334  0.53294350  1  0.387013  0  -0.000824  -0.059691  0  3.989039  0
C  C118  1  0.41451194  0.74293830  0.04179236  1  0.383599  0  0.003549  -0.054815  0  3.971371  0
C  C119  1  0.36429778  0.24185199  0.04121002  1  0.401585  0  -0.00035  -0.066989  0  4.043307  0
C  C120  1  0.97347388  0.15571743  0.31639747  1  0.410354  0  0.019855  -0.037095  0  3.963311  0
C  C121  1  0.08367613  0.83639029  0.34886218  1  0.521165  0  0.004917  -0.031431  0  4.037744  0
C  C122  1  0.51200681  0.62233484  0.81124601  1  0.431528  0  0.010377  -0.051156  0  3.996598  0
C  C123  1  0.61518135  0.29211476  0.91983641  1  0.411957  0  0.016144  -0.031501  0  3.938617  0
C  C124  1  0.86464680  0.07883070  0.67754235  1  0.34072  0  -0.001131  -0.061023  0  4.025636  0
C  C125  1  0.19647014  0.87723998  0.58933719  1  0.385835  0  0.015525  -0.020349  0  3.942349  0
C  C126  1  0.37143808  0.50247061  0.18760772  1  0.409606  0  0.011398  -0.046227  0  4.003775  0
C  C127  1  0.69296833  0.39704548  0.08516712  1  0.428829  0  0.01501  -0.029627  0  3.969191  0
C  C128  1  0.89804409  0.11019432  0.72500905  1  0.055587  0  -0.046178  -0.068392  0  4.080636  0
C  C129  1  0.19320887  0.79594795  0.62267659  1  -0.013353  0  -0.042831  -0.062322  0  4.080051  0
C  C130  1  0.38376788  0.57670273  0.21963139  1  0.016707  0  -0.040406  -0.060452  0  4.104289  0
C  C131  1  0.69643760  0.30134741  0.09658245  1  0.060698  0  -0.042338  -0.059963  0  4.075084  0
C  C132  1  0.88917505  0.15627732  0.29516742  1  0.049363  0  -0.03664  -0.038928  0  4.112292  0
C  C133  1  0.15520743  0.79698205  0.38417300  1  -0.002227  0  -0.048363  -0.058335  0  4.133199  0
C  C134  1  0.44114452  0.60792946  0.78059580  1  0.012198  0  -0.044019  -0.049176  0  4.152687  0
C  C135  1  0.70748691  0.29362596  0.91532123  1  0.022848  0  -0.039279  -0.047061  0  4.108342  0
C  C136  1  0.67954265  0.95803502  0.53738796  1  0.056723  0  -0.038322  0.03914  0  4.130027  0
C  C137  1  0.32616349  0.01505613  0.49566847  1  0.047945  0  -0.038467  0.02872  0  4.130273  0
C  C138  1  0.19364343  0.59121538  0.99750213  1  -0.012983  0  -0.039403  0.019798  0  4.092338  0
C  C139  1  0.80354871  0.64514892  0.00231875  1  -0.029057  0  -0.04112  0.023286  0  4.114147  0
C  C140  1  0.95772331  0.32416357  0.50463813  1  -0.017065  0  -0.038545  -0.040689  0  4.072351  0
C  C141  1  0.95072118  0.71271757  0.48907548  1  0.01184  0  -0.038677  -0.046739  0  4.090776  0
C  C142  1  0.39342605  0.80159322  0.99355325  1  -0.004567  0  -0.038261  -0.044786  0  4.07673  0
C  C143  1  0.35524888  0.19198932  0.99350624  1  -0.004917  0  -0.041953  -0.050378  0  4.104356  0
C  C144  1  0.87096931  0.50662964  0.47733504  1  -0.047613  0  -0.082564  -0.087339  0  3.648016  0
C  C145  1  0.94068407  0.55052349  0.44011631  1  -0.019627  0  -0.086014  -0.091937  0  3.668466  0
C  C146  1  0.34019899  0.97338883  0.94035769  1  -0.012598  0  -0.083334  -0.089028  0  3.656863  0
C  C147  1  0.41694786  0.02362868  0.95167332  1  -0.04369  0  -0.087008  -0.088216  0  3.677887  0
C  C148  1  0.88044957  0.56770215  0.52818158  1  -0.039948  0  -0.083417  -0.083317  0  3.654108  0
C  C149  1  0.01918812  0.47154771  0.46210635  1  -0.050408  0  -0.082996  -0.085218  0  3.657665  0
C  C150  1  0.27318016  0.04240748  0.98059819  1  -0.032599  0  -0.07789  -0.082554  0  3.634124  0
C  C151  1  0.44391768  0.95653562  0.00392757  1  -0.06269  0  -0.084231  -0.085952  0  3.662862  0
C  C152  1  0.95058565  0.61276765  0.49071181  1  0.025372  0  -0.003916  0.076549  0  3.711222  0
C  C153  1  0.94980579  0.42599884  0.49976721  1  0.057814  0  -0.000452  0.08386  0  3.68262  0
C  C154  1  0.35093787  0.09345873  0.99232569  1  0.039964  0  -0.003564  0.083097  0  3.710499  0
C  C155  1  0.36741755  0.90422168  0.99241457  1  0.082027  0  -0.00164  0.082515  0  3.703153  0
C  C156  1  0.02875705  0.53237148  0.51299201  1  -0.040445  0  -0.084383  -0.087231  0  3.65757  0
C  C157  1  0.95888997  0.48887853  0.55025877  1  -0.055507  0  -0.086344  -0.090951  0  3.669768  0
C  C158  1  0.37667785  0.02404451  0.04422876  1  -0.051942  0  -0.088358  -0.092386  0  3.679738  0
C  C159  1  0.30001186  0.97369537  0.03275046  1  -0.046982  0  -0.084038  -0.090052  0  3.656529  0
C  C160  1  0.35421920  0.71478798  0.63756770  1  -0.012026  0  -0.107591  -0.173347  0  3.991758  0
C  C161  1  0.85241356  0.09560718  0.82921674  1  -0.042726  0  -0.096536  -0.156426  0  4.009189  0
C  C162  1  0.84359247  0.24633418  0.14137582  1  -0.057413  0  -0.109686  -0.174956  0  4.017836  0
C  C163  1  0.27566399  0.58249290  0.30458177  1  -0.022389  0  -0.106147  -0.162961  0  4.00962  0
C  C164  1  0.26405848  0.72644968  0.64665627  1  -0.038807  0  -0.09062  -0.086904  0  4.06498  0
C  C165  1  0.84602851  0.14021137  0.77786282  1  -0.032631  0  -0.084806  -0.077387  0  4.002354  0
C  C166  1  0.76102161  0.23646021  0.12930016  1  -0.062598  0  -0.094124  -0.097465  0  4.060687  0
C  C167  1  0.33357014  0.61867082  0.26905542  1  -0.062748  0  -0.082915  -0.072973  0  4.023655  0
C  C168  1  0.89333657  0.19771185  0.18892691  1  0.075934  0  -0.006389  0.121796  0  3.985035  0
C  C169  1  0.21233638  0.63785246  0.34504440  1  0.052279  0  0.000169  0.133141  0  3.963908  0
C  C170  1  0.41504090  0.65629036  0.67666605  1  0.05812  0  -0.000807  0.133107  0  4.009476  0
C  C171  1  0.79081925  0.13594042  0.87669008  1  0.11441  0  -0.005974  0.117351  0  3.967045  0
C  C172  1  0.85268542  0.19649563  0.24184437  1  0.203065  0  0.063976  -0.045576  0  3.906055  0
C  C173  1  0.22547734  0.71502741  0.37097548  1  0.171495  0  0.06141  -0.046854  0  3.887879  0
C  C174  1  0.39762215  0.66441806  0.73345281  1  0.163728  0  0.06148  -0.049257  0  3.890553  0
C  C175  1  0.78242099  0.22718171  0.88919708  1  0.094641  0  0.065512  -0.039755  0  3.900188  0
C  C176  1  0.56954246  0.88144022  0.49691887  1  -0.073023  0  -0.016013  0.1091  0  3.981933  0
C  C177  1  0.47234796  0.89140676  0.49183963  1  0.015604  0  -0.014571  0.113319  0  3.980118  0
C  C178  1  0.04346838  0.68184324  0.96246476  1  -0.008591  0  -0.020992  0.097508  0  3.961332  0
C  C179  1  0.94578921  0.68692705  0.95975789  1  -0.004188  0  -0.018402  0.104635  0  3.943778  0
C  C180  1  0.59414900  0.93101775  0.53773167  1  -0.026018  0  -0.111077  -0.223967  0  4.033978  0
C  C181  1  0.42314184  0.98047165  0.49512077  1  -0.111811  0  -0.10358  -0.202669  0  4.003597  0
C  C182  1  0.09554126  0.61718449  0.99652727  1  -0.06789  0  -0.104432  -0.200414  0  3.985473  0
C  C183  1  0.89431757  0.65931201  0.00378443  1  -0.037522  0  -0.112472  -0.217915  0  4.013922  0
C  C184  1  0.05563215  0.14450962  0.73976853  1  -0.051034  0  -0.230652  -0.420038  0  3.983452  0
C  C185  1  0.05608371  0.74218913  0.67560420  1  -0.026816  0  -0.228363  -0.424865  0  3.982524  0
C  C186  1  0.49640358  0.68680651  0.20138326  1  -0.044585  0  -0.227165  -0.424711  0  3.979991  0
C  C187  1  0.57841686  0.20174070  0.08364263  1  -0.029359  0  -0.234187  -0.426983  0  3.983906  0
C  C188  1  0.99165658  0.15334258  0.17846139  1  -0.077904  0  -0.233338  -0.398152  0  3.962108  0
C  C189  1  0.12156437  0.61389375  0.35156751  1  -0.020683  0  -0.237005  -0.409343  0  3.971194  0
C  C190  1  0.49634880  0.58750314  0.65329151  1  -0.048769  0  -0.231155  -0.401049  0  3.964524  0
C  C191  1  0.72993931  0.07719715  0.90373183  1  -0.09939  0  -0.229617  -0.392824  0  3.964955  0
C  C192  1  0.63463395  0.82157793  0.45565287  1  -0.120601  0  -0.239239  -0.399935  0  3.98062  0
C  C193  1  0.43588818  0.80703378  0.48287275  1  -0.045105  0  -0.243557  -0.404374  0  3.973665  0
C  C194  1  0.08431816  0.74751310  0.92359061  1  -0.118825  0  -0.241661  -0.401179  0  3.983624  0
C  C195  1  0.90506232  0.72213512  0.90409387  1  -0.083457  0  -0.242562  -0.399258  0  3.981596  0
N  N196  1  0.00426989  0.08506782  0.65357643  1  -0.7929  0  -0.27984  -0.242771  0  3.534531  0
N  N197  1  0.05418662  0.88563266  0.61575047  1  -0.813968  0  -0.280072  -0.245013  0  3.522935  0
N  N198  1  0.47783517  0.55935405  0.14133645  1  -0.79731  0  -0.268017  -0.226062  0  3.484691  0
N  N199  1  0.56177205  0.37368457  0.06439851  1  -0.777228  0  -0.271836  -0.241129  0  3.51052  0
N  N200  1  0.89972323  0.09059691  0.38281847  1  -0.78595  0  -0.284752  -0.182544  0  3.666699  0
N  N201  1  0.07863535  0.93704418  0.41400140  1  -0.840721  0  -0.294979  -0.214707  0  3.672399  0
N  N202  1  0.45993910  0.51028228  0.85722070  1  -0.808118  0  -0.273245  -0.172036  0  3.552678  0
N  N203  1  0.62387398  0.43282185  0.94266008  1  -0.801324  0  -0.280882  -0.173682  0  3.635988  0
N  N204  1  0.80817540  0.99200733  0.56108184  1  -0.783079  0  -0.281766  -0.174277  0  3.592656  0
N  N205  1  0.18650763  0.08845453  0.52727955  1  -0.799949  0  -0.288183  -0.19138  0  3.564589  0
N  N206  1  0.33216912  0.52539359  0.02755692  1  -0.775116  0  -0.278545  -0.186556  0  3.605861  0
N  N207  1  0.66587849  0.62074755  0.03213801  1  -0.767388  0  -0.269092  -0.179208  0  3.537637  0
N  N208  1  0.98601834  0.17208480  0.48178185  1  -0.783191  0  -0.286916  -0.202521  0  3.632221  0
N  N209  1  0.92582946  0.86659454  0.46755151  1  -0.796385  0  -0.286203  -0.172737  0  3.662563  0
N  N210  1  0.47436370  0.65974873  0.96822913  1  -0.731952  0  -0.289316  -0.18901  0  3.661926  0
N  N211  1  0.38537451  0.33176656  0.96695717  1  -0.781828  0  -0.276431  -0.176297  0  3.574926  0
N  N212  1  0.79439106  0.02476118  0.50641472  1  -0.796348  0  -0.287537  -0.215071  0  3.530126  0
N  N213  1  0.18139729  0.05902644  0.47338124  1  -0.803127  0  -0.278183  -0.178264  0  3.558791  0
N  N214  1  0.34032905  0.53684535  0.96999723  1  -0.789745  0  -0.282507  -0.190314  0  3.608719  0
N  N215  1  0.67527837  0.61310824  0.97407268  1  -0.822914  0  -0.275158  -0.179912  0  3.56948  0
N  N216  1  0.99318476  0.17475991  0.53872884  1  -0.788325  0  -0.285995  -0.189174  0  3.620394  0
N  N217  1  0.95994639  0.85360608  0.51972727  1  -0.787991  0  -0.274782  -0.205802  0  3.566975  0
N  N218  1  0.46379443  0.65862413  0.02574654  1  -0.835778  0  -0.28698  -0.188496  0  3.649535  0
N  N219  1  0.38293306  0.32495862  0.02520658  1  -0.806909  0  -0.273735  -0.183476  0  3.550175  0
N  N220  1  0.97895219  0.11599284  0.36860202  1  -0.763547  0  -0.256054  -0.154978  0  3.53852  0
N  N221  1  0.03849421  0.91962910  0.36631723  1  -0.755467  0  -0.276019  -0.251827  0  3.347193  0
N  N222  1  0.52332673  0.56335281  0.85686820  1  -0.779045  0  -0.266578  -0.168228  0  3.516389  0
N  N223  1  0.56660104  0.37606271  0.93611594  1  -0.780175  0  -0.273021  -0.180681  0  3.599992  0
N  N224  1  0.92929334  0.06259797  0.63527092  1  -0.790299  0  -0.29103  -0.215178  0  3.638712  0
N  N225  1  0.11288737  0.93060269  0.58556039  1  -0.826762  0  -0.283729  -0.214158  0  3.579558  0
N  N226  1  0.42708588  0.49286416  0.14082965  1  -0.800118  0  -0.26827  -0.175374  0  3.548564  0
N  N227  1  0.61255026  0.43882954  0.06650147  1  -0.811013  0  -0.287878  -0.186241  0  3.682098  0
N  N228  1  0.75647988  0.24698512  0.25082615  1  0.385078  0  0.059411  0.534126  0  4.213214  0
N  N229  1  0.31831744  0.72564529  0.37611797  1  0.354503  0  0.046223  0.520341  0  4.196229  0
N  N230  1  0.32285901  0.74178900  0.75586549  1  0.433193  0  0.053302  0.523751  0  4.215314  0
N  N231  1  0.85865069  0.27048977  0.86745457  1  0.417209  0  0.055382  0.526724  0  4.2003  0
O  O232  1  0.70086100  0.19800794  0.26235981  1  -0.47744  0  -0.153112  -0.360849  0  1.876241  0
O  O233  1  0.73888371  0.33337883  0.24937083  1  -0.40547  0  -0.137223  -0.332157  0  1.868807  0
O  O234  1  0.33533309  0.80351843  0.36278216  1  -0.498562  0  -0.165114  -0.381999  0  1.895586  0
O  O235  1  0.37419385  0.65818319  0.39540590  1  -0.459521  0  -0.153967  -0.358805  0  1.881953  0
O  O236  1  0.25914196  0.71830374  0.78367965  1  -0.487956  0  -0.151907  -0.36564  0  1.897645  0
O  O237  1  0.33187372  0.82325589  0.74896780  1  -0.460816  0  -0.147093  -0.345796  0  1.871594  0
O  O238  1  0.84119404  0.34399264  0.83803074  1  -0.477975  0  -0.156314  -0.365197  0  1.8895  0
O  O239  1  0.93477131  0.23149564  0.88191555  1  -0.46016  0  -0.146743  -0.35031  0  1.882783  0
