# generated using pymatgen
data_ZnH14C26I6NO6
_symmetry_space_group_name_H-M   'P 1'
_cell_length_a   14.21005661
_cell_length_b   14.26533649
_cell_length_c   15.19847637
_cell_angle_alpha   90.93676238
_cell_angle_beta   88.79316301
_cell_angle_gamma   89.53594484
_symmetry_Int_Tables_number   1
_chemical_formula_structural   ZnH14C26I6NO6
_chemical_formula_sum   'Zn2 H28 C52 I12 N2 O12'
_cell_volume   3079.69702199
_cell_formula_units_Z   2
loop_
 _symmetry_equiv_pos_site_id
 _symmetry_equiv_pos_as_xyz
  1  'x, y, z'
loop_
 _atom_site_type_symbol
 _atom_site_label
 _atom_site_symmetry_multiplicity
 _atom_site_fract_x
 _atom_site_fract_y
 _atom_site_fract_z
 _atom_site_occupancy
 _atom_site_pbe_bader_charge
 _atom_site_pbe_bader_spin_density
 _atom_site_pbe_cm5_charge
 _atom_site_pbe_ddec_charge
 _atom_site_pbe_ddec_spin_density
 _atom_site_pbe_ddec_sum_bond_order
 _atom_site_pbe_magmom
Zn  Zn0  1  0.48973819  0.38669541  0.48481350  1  1.326098  0  0.671341  0.924921  0  2.237837  0
Zn  Zn1  1  0.47817578  0.61436351  0.48512260  1  1.329177  0  0.673763  0.932537  0  2.25339  0
H  H2  1  0.51380006  0.18888851  0.76256756  1  0.047715  0  0.087152  0.049982  0  1.018485  0
H  H3  1  0.88739854  0.76489469  0.38246723  1  0.04045  0  0.088718  0.08375  0  0.985853  0
H  H4  1  0.94834739  0.86919938  0.40840790  1  0.034978  0  0.09646  0.094959  0  0.959619  0
H  H5  1  0.98788957  0.80554586  0.55761638  1  0.026412  0  0.083088  0.107316  0  1.006381  0
H  H6  1  0.02859514  0.72747114  0.47263870  1  0.048145  0  0.0879  0.119396  0  1.002222  0
H  H7  1  0.92463764  0.70147392  0.53342324  1  0.04527  0  0.081375  0.108537  0  1.019388  0
H  H8  1  0.82361265  0.11737804  0.53447684  1  0.02453  0  0.095337  0.057454  0  0.973086  0
H  H9  1  0.76283532  0.21767703  0.49374086  1  0.039281  0  0.090186  0.058542  0  1.006604  0
H  H10  1  0.93862380  0.12993290  0.40482443  1  0.040264  0  0.096596  0.093755  0  0.961883  0
H  H11  1  0.88260835  0.23606496  0.37609451  1  0.037533  0  0.092092  0.086605  0  0.972583  0
H  H12  1  0.92097089  0.30495738  0.52721062  1  0.048599  0  0.082448  0.1103  0  1.020847  0
H  H13  1  0.53689604  0.08411209  0.82185310  1  0.02642  0  0.095543  0.059286  0  0.968906  0
H  H14  1  0.02393303  0.27108149  0.46685901  1  0.050673  0  0.088925  0.121841  0  1.001777  0
H  H15  1  0.98053637  0.19894581  0.55230868  1  0.014677  0  0.083317  0.106763  0  1.006659  0
H  H16  1  0.51409612  0.87345366  0.79948043  1  0.03566  0  0.094751  0.056513  0  0.97461  0
H  H17  1  0.47547998  0.77577651  0.73432012  1  0.031091  0  0.08908  0.059488  0  1.010318  0
H  H18  1  0.34188322  0.74989084  0.83470077  1  0.015647  0  0.086304  0.080722  0  0.990691  0
H  H19  1  0.36080248  0.85778105  0.89041541  1  0.042043  0  0.096904  0.095783  0  0.960234  0
H  H20  1  0.50220449  0.69174214  0.88803218  1  0.039295  0  0.077601  0.10819  0  1.038999  0
H  H21  1  0.42207769  0.71867241  0.97599685  1  0.040333  0  0.085994  0.119992  0  1.000574  0
H  H22  1  0.51325541  0.79811268  0.94883901  1  0.018246  0  0.083237  0.107741  0  1.005079  0
H  H23  1  0.37369635  0.22130272  0.86244933  1  0.040769  0  0.072919  0.064941  0  1.05504  0
H  H24  1  0.40358646  0.12297180  0.92569090  1  0.031665  0  0.094482  0.094085  0  0.957887  0
H  H25  1  0.56036352  0.19800456  0.96136593  1  0.028898  0  0.084426  0.109679  0  1.002656  0
H  H26  1  0.46506807  0.27322866  0.99307264  1  0.036398  0  0.087162  0.121747  0  0.99589  0
H  H27  1  0.53094755  0.29511731  0.89529313  1  0.026379  0  0.079484  0.110035  0  1.01896  0
H  H28  1  0.77206721  0.79621248  0.50384978  1  0.040905  0  0.087303  0.050253  0  1.015606  0
H  H29  1  0.83479670  0.89916511  0.53603093  1  0.030245  0  0.095217  0.058149  0  0.970452  0
C  C30  1  0.48155738  0.52297788  0.65183381  1  1.610822  0  0.195169  0.597292  0  4.221389  0
C  C31  1  0.64510837  0.54456359  0.02698511  1  -0.14552  0  -0.056282  -0.011808  0  3.871175  0
C  C32  1  0.57651722  0.18977216  0.46904222  1  0.326333  0  0.08047  0.150773  0  3.868983  0
C  C33  1  0.45461700  0.81167350  0.55651992  1  0.372181  0  0.082651  0.156126  0  3.869327  0
C  C34  1  0.46825362  0.19305000  0.58729804  1  0.341197  0  0.079994  0.153971  0  3.831225  0
C  C35  1  0.58386309  0.80751738  0.45832361  1  0.350735  0  0.081048  0.156793  0  3.829043  0
C  C36  1  0.48637382  0.09785109  0.60676547  1  0.003026  0  -0.013125  -0.077267  0  4.003606  0
C  C37  1  0.60975419  0.90023235  0.48139143  1  0.055987  0  -0.012682  -0.074666  0  4.006312  0
C  C38  1  0.60682009  0.09789246  0.48716219  1  0.009355  0  -0.013494  -0.070873  0  4.034112  0
C  C39  1  0.47797103  0.90076579  0.59040334  1  0.019022  0  -0.012871  -0.070443  0  4.03631  0
C  C40  1  0.55055989  0.04864333  0.54905441  1  0.001658  0  0.00789  0.050058  0  3.950152  0
C  C41  1  0.47222304  0.52272179  0.31754027  1  1.642815  0  0.19132  0.587259  0  4.228813  0
C  C42  1  0.54966182  0.94883981  0.54325597  1  -0.008574  0  0.007614  0.048244  0  3.948598  0
C  C43  1  0.44369596  0.04361318  0.67714934  1  0.615428  0  0.077977  0.117443  0  4.045741  0
C  C44  1  0.68982241  0.95180580  0.44689876  1  0.489925  0  0.076053  0.115468  0  4.048469  0
C  C45  1  0.68669986  0.04878196  0.44727418  1  0.674809  0  0.073093  0.106299  0  4.065578  0
C  C46  1  0.43565006  0.94749672  0.66657693  1  0.543074  0  0.07218  0.105463  0  4.07118  0
C  C47  1  0.66145372  0.49374857  0.48471001  1  1.667921  0  0.208397  0.640294  0  4.294902  0
C  C48  1  0.31007653  0.46514677  0.47929198  1  1.682059  0  0.202315  0.628662  0  4.308617  0
C  C49  1  0.76264584  0.50006242  0.48036258  1  0.039751  0  -0.018801  -0.134204  0  3.882178  0
C  C50  1  0.20882765  0.46779344  0.47328816  1  0.055916  0  -0.016915  -0.116657  0  3.868337  0
C  C51  1  0.84892704  0.50086822  0.47549383  1  -0.159118  0  -0.025958  0.001376  0  4.279961  0
C  C52  1  0.47409185  0.51499846  0.03109213  1  -0.009338  0  0.005926  0.020192  0  3.857329  0
C  C53  1  0.12309100  0.47861959  0.47159483  1  -0.190143  0  -0.028887  -0.003273  0  4.269198  0
C  C54  1  0.94304125  0.49742097  0.47208259  1  -0.115714  0  -0.008276  -0.010843  0  4.22249  0
C  C55  1  0.02952881  0.48933137  0.47082280  1  0.06926  0  -0.007103  -0.006764  0  4.221466  0
C  C56  1  0.55670426  0.52551952  0.17065275  1  -0.182632  0  -0.048363  -0.015013  0  3.829543  0
C  C57  1  0.39649849  0.49693866  0.79674300  1  -0.22256  0  -0.04926  -0.018174  0  3.836488  0
C  C58  1  0.47116045  0.52339901  0.21732420  1  -0.008098  0  -0.023136  -0.053816  0  3.965691  0
C  C59  1  0.48108887  0.51334103  0.75115652  1  0.093305  0  -0.02514  -0.064143  0  3.991524  0
C  C60  1  0.38588590  0.52052422  0.17233948  1  -0.137107  0  -0.044312  -0.008938  0  3.795957  0
C  C61  1  0.56583826  0.51751456  0.79627328  1  -0.221745  0  -0.048084  -0.018299  0  3.825932  0
C  C62  1  0.38420725  0.51483109  0.07869790  1  -0.021687  0  -0.014321  0.018834  0  3.973905  0
C  C63  1  0.47871066  0.50391935  0.93686436  1  0.027113  0  0.006917  0.018861  0  3.882998  0
C  C64  1  0.56775877  0.50846114  0.88914656  1  0.028073  0  -0.016143  0.012759  0  4.012279  0
C  C65  1  0.48138513  0.13447367  0.80377107  1  0.383066  0  -0.07096  0.035771  0  3.879993  0
C  C66  1  0.43326270  0.17847466  0.88427761  1  -0.0054  0  -0.172392  -0.128964  0  3.981112  0
C  C67  1  0.50129726  0.23933741  0.93632939  1  -0.077345  0  -0.245321  -0.346414  0  3.956413  0
C  C68  1  0.81824498  0.85253976  0.47978953  1  0.38259  0  -0.070151  0.035121  0  3.883652  0
C  C69  1  0.90710060  0.81187619  0.43708261  1  0.005902  0  -0.166919  -0.125093  0  3.973815  0
C  C70  1  0.96521503  0.75875582  0.50396624  1  -0.104194  0  -0.243808  -0.352113  0  3.97199  0
C  C71  1  0.80896683  0.15778519  0.47484945  1  0.409925  0  -0.068912  0.034726  0  3.871038  0
C  C72  1  0.89960574  0.19115991  0.43190276  1  -0.007291  0  -0.165722  -0.122408  0  3.972683  0
C  C73  1  0.95944828  0.24443394  0.49825166  1  -0.099553  0  -0.243334  -0.353503  0  3.969228  0
C  C74  1  0.55975104  0.53169182  0.07771059  1  0.082775  0  -0.017478  0.023135  0  4.006859  0
C  C75  1  0.45172976  0.83401115  0.77828517  1  0.402817  0  -0.068268  0.03878  0  3.856727  0
C  C76  1  0.39686060  0.79803692  0.85726186  1  0.00049  0  -0.167222  -0.123198  0  3.965617  0
C  C77  1  0.46215760  0.74892383  0.92096985  1  -0.077255  0  -0.246017  -0.347213  0  3.952341  0
C  C78  1  0.39403047  0.48637134  0.88929316  1  0.04172  0  -0.016153  0.023447  0  4.01028  0
C  C79  1  0.30149155  0.49960509  0.02681337  1  -0.132146  0  -0.053106  -0.012142  0  3.850973  0
C  C80  1  0.65161947  0.51525842  0.94020059  1  -0.196493  0  -0.054768  -0.010175  0  3.873946  0
C  C81  1  0.31028421  0.46797272  0.94059850  1  -0.19997  0  -0.057524  -0.015971  0  3.87271  0
I  I82  1  0.67803087  0.48740341  0.24133752  1  0.153486  0  0.108618  0.046096  0  1.820108  0
I  I83  1  0.31862335  0.75989788  0.57951323  1  0.220953  0  0.146081  0.049551  0  1.630471  0
I  I84  1  0.35730603  0.26570190  0.65265783  1  0.238155  0  0.142934  0.043641  0  1.778003  0
I  I85  1  0.64741641  0.74002713  0.34800163  1  0.233039  0  0.133536  0.033505  0  1.739217  0
I  I86  1  0.27378426  0.52054291  0.72335352  1  0.149997  0  0.108318  0.037706  0  1.776555  0
I  I87  1  0.26964429  0.49824572  0.25872845  1  0.181026  0  0.11379  0.048114  0  1.776183  0
I  I88  1  0.68047903  0.56875437  0.71999178  1  0.149574  0  0.096918  0.036752  0  1.674228  0
I  I89  1  0.16276844  0.54322535  0.06373594  1  0.143256  0  0.062187  -0.023731  0  1.639243  0
I  I90  1  0.78346857  0.45970209  0.89674967  1  0.145485  0  0.061265  -0.026316  0  1.60702  0
I  I91  1  0.20891866  0.37189971  0.89430423  1  0.144351  0  0.08121  -0.007001  0  1.676434  0
I  I92  1  0.75411383  0.63238390  0.07262081  1  0.136718  0  0.0613  -0.022346  0  1.607263  0
I  I93  1  0.61177818  0.24765450  0.34653078  1  0.228059  0  0.143204  0.040084  0  1.703504  0
N  N94  1  0.50995957  0.23581221  0.51787114  1  -1.208275  0  -0.311308  -0.27393  0  3.476284  0
N  N95  1  0.50725182  0.76594877  0.49441024  1  -1.19141  0  -0.314881  -0.277113  0  3.493281  0
O  O96  1  0.48822954  0.44543068  0.61094405  1  -1.175015  0  -0.313146  -0.552764  0  2.429665  0
O  O97  1  0.76925201  0.90794025  0.41513753  1  -1.066542  0  -0.193681  -0.209831  0  2.584282  0
O  O98  1  0.76143444  0.09605436  0.41290833  1  -1.058373  0  -0.19312  -0.209267  0  2.573265  0
O  O99  1  0.39118868  0.89812665  0.73095624  1  -1.05622  0  -0.196384  -0.215057  0  2.574591  0
O  O100  1  0.46413580  0.60378183  0.35355064  1  -1.147274  0  -0.317646  -0.540918  0  2.378564  0
O  O101  1  0.48451323  0.44502044  0.35389698  1  -1.177279  0  -0.316223  -0.569237  0  2.424876  0
O  O102  1  0.47648640  0.60467147  0.62030893  1  -1.154383  0  -0.31664  -0.555051  0  2.418087  0
O  O103  1  0.62981025  0.41052621  0.48741165  1  -1.128457  0  -0.309488  -0.535212  0  2.37324  0
O  O104  1  0.34783632  0.54404147  0.49166408  1  -1.152855  0  -0.308951  -0.563736  0  2.421  0
O  O105  1  0.34960993  0.38462896  0.47300858  1  -1.127162  0  -0.312525  -0.531146  0  2.346166  0
O  O106  1  0.61603942  0.57045734  0.48501723  1  -1.165321  0  -0.310179  -0.556036  0  2.422021  0
O  O107  1  0.41112336  0.08374904  0.75377968  1  -1.060501  0  -0.192101  -0.204791  0  2.583665  0
