# generated using pymatgen
data_MgH8C4O7
_symmetry_space_group_name_H-M   'P 1'
_cell_length_a   7.92268888
_cell_length_b   7.92268939
_cell_length_c   12.74361955
_cell_angle_alpha   89.99995070
_cell_angle_beta   89.99995765
_cell_angle_gamma   90.00003379
_symmetry_Int_Tables_number   1
_chemical_formula_structural   MgH8C4O7
_chemical_formula_sum   'Mg4 H32 C16 O28'
_cell_volume   799.90429550
_cell_formula_units_Z   4
loop_
 _symmetry_equiv_pos_site_id
 _symmetry_equiv_pos_as_xyz
  1  'x, y, z'
loop_
 _atom_site_type_symbol
 _atom_site_label
 _atom_site_symmetry_multiplicity
 _atom_site_fract_x
 _atom_site_fract_y
 _atom_site_fract_z
 _atom_site_occupancy
 _atom_site_hle17_bader_spin_density
 _atom_site_hle17_ddec_charge
 _atom_site_hle17_ddec_spin_density
 _atom_site_hle17_ddec_sum_bond_order
 _atom_site_hle17_magmom
 _atom_site_hse06_10hf_bader_spin_density
 _atom_site_hse06_10hf_ddec_charge
 _atom_site_hse06_10hf_ddec_spin_density
 _atom_site_hse06_10hf_ddec_sum_bond_order
 _atom_site_hse06_10hf_magmom
 _atom_site_hse06_bader_spin_density
 _atom_site_hse06_ddec_charge
 _atom_site_hse06_ddec_spin_density
 _atom_site_hse06_ddec_sum_bond_order
 _atom_site_hse06_magmom
 _atom_site_pbe_bader_spin_density
 _atom_site_pbe_cm5_charge
 _atom_site_pbe_ddec_charge
 _atom_site_pbe_ddec_spin_density
 _atom_site_pbe_ddec_sum_bond_order
 _atom_site_pbe_magmom
Mg  Mg0  1  0.53118343  0.88075396  0.21305920  1  0  1.501055  0  1.138054  0  0  1.389219  0  1.398678  0  0  1.412229  0  1.362714  0  0  0.815767  1.372956  0  1.423836  0
Mg  Mg1  1  0.46881645  0.11924451  0.71305944  1  0  1.501088  0  1.13802  0  0  1.389263  0  1.398653  0  0  1.412266  0  1.362698  0  0  0.815772  1.373004  0  1.423811  0
Mg  Mg2  1  0.11924445  0.53118389  0.96305903  1  0  1.501081  0  1.138023  0  0  1.389281  0  1.398621  0  0  1.412282  0  1.362673  0  0  0.815777  1.373026  0  1.423774  0
Mg  Mg3  1  0.88075513  0.46881549  0.46305885  1  0  1.501084  0  1.138026  0  0  1.389275  0  1.398634  0  0  1.412277  0  1.362683  0  0  0.815771  1.373019  0  1.423789  0
H  H4  1  0.30244893  0.07649284  0.30412308  1  0  0.4271  0  0.883095  0  0  0.388284  0  0.960304  0  0  0.399509  0  0.943909  0  0  0.292224  0.380434  0  0.971751  0
H  H5  1  0.69755085  0.92350676  0.80412278  1  0  0.427097  0  0.883099  0  0  0.388283  0  0.960303  0  0  0.39951  0  0.943907  0  0  0.29222  0.380433  0  0.97175  0
H  H6  1  0.92350723  0.30244804  0.05412326  1  0  0.427101  0  0.883088  0  0  0.388279  0  0.9603  0  0  0.3995  0  0.943911  0  0  0.292226  0.380429  0  0.971747  0
H  H7  1  0.07649285  0.69755191  0.55412337  1  0  0.427078  0  0.883125  0  0  0.38826  0  0.960335  0  0  0.399484  0  0.943942  0  0  0.292209  0.38041  0  0.971783  0
H  H8  1  0.22273362  0.03901573  0.18959364  1  0  0.436359  0  0.813295  0  0  0.420858  0  0.862348  0  0  0.428366  0  0.852395  0  0  0.329907  0.415445  0  0.868853  0
H  H9  1  0.77726629  0.96098277  0.68959328  1  0  0.436327  0  0.813285  0  0  0.420831  0  0.862332  0  0  0.428337  0  0.852429  0  0  0.329916  0.415421  0  0.868831  0
H  H10  1  0.96098259  0.22273461  0.93959463  1  0  0.436349  0  0.813284  0  0  0.42085  0  0.862336  0  0  0.428356  0  0.852404  0  0  0.32991  0.415437  0  0.868841  0
H  H11  1  0.03901702  0.77726481  0.43959389  1  0  0.436385  0  0.813308  0  0  0.420883  0  0.862359  0  0  0.428391  0  0.852372  0  0  0.329919  0.415471  0  0.868864  0
H  H12  1  0.77388125  0.67312375  0.25184803  1  0  0.440197  0  0.844152  0  0  0.405937  0  0.913431  0  0  0.417046  0  0.896713  0  0  0.307731  0.398022  0  0.925344  0
H  H13  1  0.22611859  0.32687592  0.75184826  1  0  0.440202  0  0.844145  0  0  0.405943  0  0.913422  0  0  0.417051  0  0.896705  0  0  0.307733  0.398029  0  0.925333  0
H  H14  1  0.32687662  0.77387999  0.00184849  1  0  0.440195  0  0.844087  0  0  0.405946  0  0.913397  0  0  0.417054  0  0.89668  0  0  0.307735  0.398031  0  0.925309  0
H  H15  1  0.67312351  0.22611878  0.50184779  1  0  0.44022  0  0.844118  0  0  0.405963  0  0.913393  0  0  0.417071  0  0.896676  0  0  0.307737  0.398049  0  0.925304  0
H  H16  1  0.80916355  0.70956097  0.12888608  1  0  0.451411  0  0.831734  0  0  0.417517  0  0.897444  0  0  0.428759  0  0.880797  0  0  0.301563  0.409535  0  0.909274  0
H  H17  1  0.19083644  0.29043888  0.62888636  1  0  0.451427  0  0.831712  0  0  0.417529  0  0.897428  0  0  0.428772  0  0.880781  0  0  0.301565  0.409549  0  0.909256  0
H  H18  1  0.29043899  0.80916284  0.87888738  1  0  0.451463  0  0.831681  0  0  0.417559  0  0.897402  0  0  0.428802  0  0.880754  0  0  0.301592  0.409579  0  0.90923  0
H  H19  1  0.70956070  0.19083666  0.37888665  1  0  0.451413  0  0.831737  0  0  0.417508  0  0.897463  0  0  0.428751  0  0.880816  0  0  0.301555  0.409527  0  0.909292  0
H  H20  1  0.60346205  0.91646927  0.00781215  1  0  0.401934  0  0.891829  0  0  0.369298  0  0.971897  0  0  0.381386  0  0.957164  0  0  0.30474  0.360816  0  0.981566  0
H  H21  1  0.39653808  0.08353074  0.50781166  1  0  0.401935  0  0.891829  0  0  0.369296  0  0.971901  0  0  0.381382  0  0.95717  0  0  0.304741  0.360814  0  0.981569  0
H  H22  1  0.08353197  0.60346251  0.75781199  1  0  0.401941  0  0.891815  0  0  0.369311  0  0.971879  0  0  0.381396  0  0.957148  0  0  0.304739  0.360829  0  0.981545  0
H  H23  1  0.91646912  0.39653716  0.25781184  1  0  0.401948  0  0.8918  0  0  0.369306  0  0.971878  0  0  0.381388  0  0.957157  0  0  0.304747  0.360825  0  0.981544  0
H  H24  1  0.71108758  0.15722265  0.99781285  1  0  0.047438  0  0.942602  0  0  0.056262  0  1.007986  0  0  0.058274  0  1.005528  0  0  0.113663  0.054681  0  1.010002  0
H  H25  1  0.28891197  0.84277795  0.49781353  1  0  0.04744  0  0.942604  0  0  0.056266  0  1.007977  0  0  0.058276  0  1.005519  0  0  0.113663  0.054682  0  1.009997  0
H  H26  1  0.84277803  0.71108781  0.74781149  1  0  0.047474  0  0.942611  0  0  0.056292  0  1.007968  0  0  0.0583  0  1.005515  0  0  0.113673  0.05469  0  1.010008  0
H  H27  1  0.15722307  0.28891187  0.24781174  1  0  0.047472  0  0.942634  0  0  0.056299  0  1.007981  0  0  0.058304  0  1.005529  0  0  0.113677  0.054697  0  1.01002  0
H  H28  1  0.37393620  0.26863989  0.09181599  1  0  0.120985  0  0.932508  0  0  0.133283  0  0.99618  0  0  0.136067  0  0.994474  0  0  0.110345  0.131286  0  0.99754  0
H  H29  1  0.62606383  0.73136001  0.59181504  1  0  0.120979  0  0.932489  0  0  0.133285  0  0.996168  0  0  0.136069  0  0.994461  0  0  0.110346  0.13129  0  0.997528  0
H  H30  1  0.73136242  0.37393579  0.84181551  1  0  0.120972  0  0.932496  0  0  0.133283  0  0.996171  0  0  0.136067  0  0.994464  0  0  0.110339  0.131287  0  0.997531  0
H  H31  1  0.26863857  0.62606377  0.34181553  1  0  0.12097  0  0.932492  0  0  0.133279  0  0.996164  0  0  0.136063  0  0.994459  0  0  0.110337  0.131283  0  0.997525  0
H  H32  1  0.53136893  0.41329160  0.05411391  1  0  0.132043  0  0.916488  0  0  0.144857  0  0.974747  0  0  0.147743  0  0.973721  0  0  0.112959  0.142841  0  0.975522  0
H  H33  1  0.46863114  0.58670835  0.55411389  1  0  0.132007  0  0.91649  0  0  0.144833  0  0.974754  0  0  0.147719  0  0.973728  0  0  0.112955  0.142819  0  0.975529  0
H  H34  1  0.58670832  0.53136716  0.80411428  1  0  0.13202  0  0.916508  0  0  0.144846  0  0.974777  0  0  0.14773  0  0.973748  0  0  0.112954  0.142829  0  0.97555  0
H  H35  1  0.41329272  0.46863244  0.30411432  1  0  0.132021  0  0.916479  0  0  0.144844  0  0.974746  0  0  0.147731  0  0.97372  0  0  0.112957  0.142829  0  0.975521  0
C  C36  1  0.70412202  0.19505759  0.16589378  1  0  0.644  0  3.839905  0  0  0.587364  0  4.148119  0  0  0.619399  0  4.141284  0  0  0.2224  0.565646  0  4.15213  0
C  C37  1  0.29587792  0.80494220  0.66589295  1  0  0.643951  0  3.839967  0  0  0.587343  0  4.148151  0  0  0.619382  0  4.141311  0  0  0.222397  0.565624  0  4.152162  0
C  C38  1  0.80494481  0.70412035  0.91589404  1  0  0.643946  0  3.839981  0  0  0.587387  0  4.148082  0  0  0.619431  0  4.141241  0  0  0.222436  0.565669  0  4.152087  0
C  C39  1  0.19505609  0.29587910  0.41589428  1  0  0.643951  0  3.839971  0  0  0.587374  0  4.148095  0  0  0.619415  0  4.141255  0  0  0.222415  0.565658  0  4.152103  0
C  C40  1  0.61730684  0.15346823  0.06116611  1  0  0.144597  0  3.64647  0  0  0.115951  0  3.90433  0  0  0.119047  0  3.911395  0  0  -0.001797  0.113798  0  3.899501  0
C  C41  1  0.38269196  0.84653171  0.56116678  1  0  0.14456  0  3.646441  0  0  0.115941  0  3.904275  0  0  0.119038  0  3.911337  0  0  -0.001792  0.113791  0  3.899448  0
C  C42  1  0.84653300  0.61730775  0.81116557  1  0  0.144541  0  3.646485  0  0  0.115937  0  3.904276  0  0  0.119037  0  3.911334  0  0  -0.001824  0.113799  0  3.899445  0
C  C43  1  0.15346803  0.38269185  0.31116577  1  0  0.144482  0  3.646415  0  0  0.115877  0  3.904225  0  0  0.118978  0  3.911287  0  0  -0.001846  0.113738  0  3.899396  0
C  C44  1  0.48157394  0.28600779  0.03852105  1  0  -0.329318  0  3.630719  0  0  -0.373464  0  3.882855  0  0  -0.379907  0  3.889007  0  0  -0.162732  -0.369015  0  3.878552  0
C  C45  1  0.51842615  0.71399092  0.53852095  1  0  -0.329174  0  3.630609  0  0  -0.373373  0  3.882808  0  0  -0.379816  0  3.888958  0  0  -0.162699  -0.368927  0  3.87851  0
C  C46  1  0.71399212  0.48157351  0.78852058  1  0  -0.329205  0  3.630638  0  0  -0.373422  0  3.882823  0  0  -0.379866  0  3.888976  0  0  -0.162703  -0.368968  0  3.878509  0
C  C47  1  0.28600894  0.51842738  0.28852065  1  0  -0.329143  0  3.630505  0  0  -0.373365  0  3.88269  0  0  -0.379807  0  3.888824  0  0  -0.162674  -0.368916  0  3.878385  0
C  C48  1  0.41671285  0.28185958  0.92610249  1  0  0.769838  0  3.812239  0  0  0.716874  0  4.115572  0  0  0.750626  0  4.106321  0  0  0.2339  0.694018  0  4.121153  0
C  C49  1  0.58328425  0.71814112  0.42610153  1  0  0.769747  0  3.812206  0  0  0.716771  0  4.115582  0  0  0.750523  0  4.106337  0  0  0.233874  0.693915  0  4.121164  0
C  C50  1  0.71813975  0.41671178  0.67610199  1  0  0.769797  0  3.812237  0  0  0.716858  0  4.115547  0  0  0.750612  0  4.106293  0  0  0.233916  0.694002  0  4.121129  0
C  C51  1  0.28186144  0.58328927  0.17610202  1  0  0.769751  0  3.812274  0  0  0.716842  0  4.115551  0  0  0.750606  0  4.106282  0  0  0.233919  0.693984  0  4.121132  0
O  O52  1  0.65758976  0.11444601  0.24674133  1  0  -0.667451  0  2.009374  0  0  -0.604705  0  2.236079  0  0  -0.628271  0  2.22416  0  0  -0.319531  -0.58842  0  2.243936  0
O  O53  1  0.34241134  0.88555367  0.74674122  1  0  -0.66745  0  2.009371  0  0  -0.604694  0  2.236045  0  0  -0.62826  0  2.224125  0  0  -0.319518  -0.588412  0  2.243906  0
O  O54  1  0.88555122  0.65759193  0.99673920  1  0  -0.667347  0  2.009527  0  0  -0.604674  0  2.236224  0  0  -0.628236  0  2.224301  0  0  -0.31952  -0.588395  0  2.244088  0
O  O55  1  0.11444832  0.34240867  0.49673866  1  0  -0.667358  0  2.009517  0  0  -0.604665  0  2.236211  0  0  -0.628228  0  2.22429  0  0  -0.319498  -0.588386  0  2.244077  0
O  O56  1  0.29715936  0.99513675  0.24345562  1  0  -0.887388  0  1.853277  0  0  -0.840895  0  2.040353  0  0  -0.85688  0  2.010383  0  0  -0.603689  -0.829687  0  2.060428  0
O  O57  1  0.70284049  0.00486294  0.74345580  1  0  -0.887367  0  1.853252  0  0  -0.840881  0  2.040342  0  0  -0.856863  0  2.010414  0  0  -0.603705  -0.829676  0  2.060419  0
O  O58  1  0.00486401  0.29715977  0.99345550  1  0  -0.887392  0  1.853265  0  0  -0.840903  0  2.040343  0  0  -0.856885  0  2.010401  0  0  -0.603703  -0.829698  0  2.060423  0
O  O59  1  0.99513554  0.70284083  0.49345515  1  0  -0.887419  0  1.853318  0  0  -0.840919  0  2.040378  0  0  -0.856903  0  2.010378  0  0  -0.603689  -0.829713  0  2.060457  0
O  O60  1  0.75955915  0.75475769  0.19450559  1  0  -0.910851  0  1.819195  0  0  -0.858733  0  1.997215  0  0  -0.87443  0  1.961202  0  0  -0.611921  -0.847768  0  2.022557  0
O  O61  1  0.24044075  0.24524333  0.69450586  1  0  -0.910869  0  1.819164  0  0  -0.858753  0  1.997185  0  0  -0.874449  0  1.961175  0  0  -0.611913  -0.847791  0  2.022525  0
O  O62  1  0.24524090  0.75956094  0.94450534  1  0  -0.910901  0  1.819101  0  0  -0.858799  0  1.997172  0  0  -0.874494  0  1.961162  0  0  -0.611957  -0.847838  0  2.022514  0
O  O63  1  0.75475619  0.24044226  0.44450456  1  0  -0.91088  0  1.819181  0  0  -0.858768  0  1.997206  0  0  -0.874464  0  1.961195  0  0  -0.61192  -0.847806  0  2.022545  0
O  O64  1  0.81469184  0.31193713  0.16333088  1  0  -0.611958  0  2.017485  0  0  -0.54762  0  2.238275  0  0  -0.573293  0  2.227468  0  0  -0.300558  -0.529832  0  2.245141  0
O  O65  1  0.18530937  0.68806267  0.66333094  1  0  -0.611907  0  2.017497  0  0  -0.547633  0  2.238326  0  0  -0.573317  0  2.22752  0  0  -0.30058  -0.529843  0  2.245189  0
O  O66  1  0.68806155  0.81469388  0.91332962  1  0  -0.611975  0  2.017352  0  0  -0.547687  0  2.238132  0  0  -0.573384  0  2.227333  0  0  -0.300606  -0.529898  0  2.244996  0
O  O67  1  0.31193810  0.18530557  0.41332986  1  0  -0.611983  0  2.017365  0  0  -0.547686  0  2.238154  0  0  -0.573376  0  2.227352  0  0  -0.30061  -0.529897  0  2.245019  0
O  O68  1  0.30796195  0.39064586  0.89699616  1  0  -0.74697  0  2.005883  0  0  -0.685524  0  2.247393  0  0  -0.710289  0  2.233798  0  0  -0.357117  -0.668232  0  2.256267  0
O  O69  1  0.69203898  0.60935362  0.39699521  1  0  -0.746984  0  2.005779  0  0  -0.68553  0  2.247297  0  0  -0.710296  0  2.233705  0  0  -0.357131  -0.668236  0  2.256171  0
O  O70  1  0.60935469  0.30796208  0.64699571  1  0  -0.747013  0  2.006001  0  0  -0.685567  0  2.247502  0  0  -0.710332  0  2.233905  0  0  -0.357156  -0.668274  0  2.256378  0
O  O71  1  0.39064653  0.69203522  0.14699564  1  0  -0.746975  0  2.006091  0  0  -0.685567  0  2.24762  0  0  -0.710339  0  2.234019  0  0  -0.35716  -0.668271  0  2.256493  0
O  O72  1  0.47980634  0.17197776  0.86601047  1  0  -0.706926  0  2.010136  0  0  -0.63981  0  2.244948  0  0  -0.663995  0  2.233602  0  0  -0.360517  -0.62314  0  2.252402  0
O  O73  1  0.52019084  0.82801924  0.36600949  1  0  -0.706884  0  2.010196  0  0  -0.639735  0  2.244995  0  0  -0.663925  0  2.233654  0  0  -0.360496  -0.623069  0  2.252461  0
O  O74  1  0.82802295  0.47980785  0.61600913  1  0  -0.706917  0  2.010069  0  0  -0.639785  0  2.244839  0  0  -0.663971  0  2.233493  0  0  -0.360502  -0.62312  0  2.252301  0
O  O75  1  0.17197705  0.52019202  0.11600925  1  0  -0.706917  0  2.01004  0  0  -0.639792  0  2.244797  0  0  -0.663984  0  2.233449  0  0  -0.360508  -0.623127  0  2.252265  0
O  O76  1  0.54759338  0.98689984  0.06461704  1  0  -0.65611  0  2.154808  0  0  -0.594959  0  2.389621  0  0  -0.611378  0  2.374703  0  0  -0.427344  -0.583388  0  2.399233  0
O  O77  1  0.45240668  0.01310009  0.56461734  1  0  -0.656102  0  2.15479  0  0  -0.594961  0  2.389604  0  0  -0.611379  0  2.374687  0  0  -0.42734  -0.58339  0  2.399216  0
O  O78  1  0.01310003  0.54759380  0.81461770  1  0  -0.656129  0  2.154809  0  0  -0.594984  0  2.389581  0  0  -0.611399  0  2.374663  0  0  -0.427327  -0.583413  0  2.399186  0
O  O79  1  0.98689974  0.45240706  0.31461749  1  0  -0.65611  0  2.154777  0  0  -0.594972  0  2.389577  0  0  -0.611389  0  2.374668  0  0  -0.427341  -0.583401  0  2.399182  0
