# generated using pymatgen
data_AlH12(C4O)6
_symmetry_space_group_name_H-M   'P 1'
_cell_length_a   3.96437567
_cell_length_b   29.02130199
_cell_length_c   29.02074575
_cell_angle_alpha   119.99573137
_cell_angle_beta   90.00274524
_cell_angle_gamma   89.99261324
_symmetry_Int_Tables_number   1
_chemical_formula_structural   AlH12(C4O)6
_chemical_formula_sum   'Al2 H24 C48 O12'
_cell_volume   2891.67559488
_cell_formula_units_Z   2
loop_
 _symmetry_equiv_pos_site_id
 _symmetry_equiv_pos_as_xyz
  1  'x, y, z'
loop_
 _atom_site_type_symbol
 _atom_site_label
 _atom_site_symmetry_multiplicity
 _atom_site_fract_x
 _atom_site_fract_y
 _atom_site_fract_z
 _atom_site_occupancy
 _atom_site_pbe_bader_charge
 _atom_site_pbe_bader_spin_density
 _atom_site_pbe_cm5_charge
 _atom_site_pbe_ddec_charge
 _atom_site_pbe_ddec_spin_density
 _atom_site_pbe_ddec_sum_bond_order
 _atom_site_pbe_magmom
Al  Al0  1  0.00421419  0.50002876  0.50000442  1  2.502881  0  0.424943  1.594963  0  2.573112  0
Al  Al1  1  0.99512236  0.16664636  0.83334167  1  2.503184  0  0.424799  1.593627  0  2.575078  0
H  H2  1  0.28994447  0.17173576  0.69159923  1  0.081629  0  0.109423  0.112791  0  0.985545  0
H  H3  1  0.30920894  0.22022154  0.64066997  1  0.060883  0  0.104875  0.106765  0  0.98922  0
H  H4  1  0.68973614  0.35929403  0.77982460  1  0.056626  0  0.104808  0.106931  0  0.989751  0
H  H5  1  0.70465187  0.30848745  0.82845936  1  0.079545  0  0.109242  0.112895  0  0.985176  0
H  H6  1  0.69053055  0.30730490  0.55352589  1  0.060805  0  0.1049  0.106809  0  0.988956  0
H  H7  1  0.70940069  0.35822114  0.50502372  1  0.081092  0  0.109416  0.113011  0  0.98544  0
H  H8  1  0.29520825  0.49511846  0.64182040  1  0.079365  0  0.109345  0.112884  0  0.984876  0
H  H9  1  0.31050161  0.44648755  0.69263468  1  0.063419  0  0.104842  0.106998  0  0.989754  0
H  H10  1  0.29013056  0.01984187  0.82826176  1  0.087999  0  0.109582  0.113145  0  0.985495  0
H  H11  1  0.30930248  0.92042736  0.77977398  1  0.045443  0  0.104862  0.106778  0  0.989129  0
H  H12  1  0.68960488  0.92049780  0.64067689  1  0.047515  0  0.104693  0.106712  0  0.989666  0
H  H13  1  0.70459001  0.01993984  0.69148484  1  0.08809  0  0.109259  0.112871  0  0.985071  0
H  H14  1  0.69047218  0.74623416  0.69270119  1  0.043429  0  0.104862  0.106674  0  0.988969  0
H  H15  1  0.70929852  0.64682034  0.64179081  1  0.079662  0  0.109493  0.113121  0  0.985372  0
H  H16  1  0.29507018  0.64673035  0.50490100  1  0.124954  0  0.109387  0.112794  0  0.98521  0
H  H17  1  0.31036486  0.74616931  0.55352332  1  0.04892  0  0.10473  0.106754  0  0.989874  0
H  H18  1  0.29024525  0.30839369  0.98012902  1  0.080072  0  0.109599  0.113177  0  0.985487  0
H  H19  1  0.30937998  0.35934719  0.07954405  1  0.043817  0  0.104909  0.106793  0  0.989137  0
H  H20  1  0.68965063  0.22019234  0.07951661  1  0.048793  0  0.104757  0.106692  0  0.989698  0
H  H21  1  0.70469415  0.17153077  0.98007420  1  0.124735  0  0.109225  0.112792  0  0.985424  0
H  H22  1  0.69053659  0.44644812  0.25375626  1  0.045444  0  0.104891  0.10671  0  0.989224  0
H  H23  1  0.70947702  0.49497133  0.35316743  1  0.086967  0  0.109461  0.112955  0  0.985645  0
H  H24  1  0.29525318  0.35820896  0.35331281  1  0.083097  0  0.109399  0.113004  0  0.985095  0
H  H25  1  0.31047061  0.30736748  0.25387340  1  0.054295  0  0.104906  0.107161  0  0.98956  0
C  C26  1  0.50401782  0.45896779  0.41808626  1  1.566083  0  0.274038  0.648463  0  4.06774  0
C  C27  1  0.50399958  0.45916029  0.54106280  1  1.552467  0  0.274217  0.648673  0  4.0685  0
C  C28  1  0.50392305  0.58193719  0.54086139  1  1.531297  0  0.27426  0.648636  0  4.068251  0
C  C29  1  0.49534698  0.20775885  0.79252924  1  1.553635  0  0.274634  0.649117  0  4.067107  0
C  C30  1  0.49540590  0.08472945  0.79222916  1  1.566145  0  0.274482  0.649037  0  4.066813  0
C  C31  1  0.49541471  0.20745449  0.91525848  1  1.530935  0  0.274849  0.64947  0  4.066942  0
C  C32  1  0.49703521  0.23723696  0.76292071  1  -0.002928  0  -0.00829  -0.034687  0  3.96161  0
C  C33  1  0.38154046  0.21256097  0.71022356  1  0.012965  0  -0.078258  -0.085935  0  3.985874  0
C  C34  1  0.39036115  0.23961056  0.68206375  1  -0.054655  0  -0.082137  -0.12769  0  3.955253  0
C  C35  1  0.49948803  0.29303885  0.70697566  1  0.069033  0  0.004332  0.142859  0  4.11146  0
C  C36  1  0.60767268  0.31794742  0.76045629  1  -0.056377  0  -0.082004  -0.127731  0  3.955067  0
C  C37  1  0.61404516  0.28984800  0.78757778  1  0.050515  0  -0.078668  -0.087138  0  3.985731  0
C  C38  1  0.50001683  0.32118770  0.67880916  1  -0.069586  0  -0.041676  -0.104045  0  4.104336  0
C  C39  1  0.50011179  0.34546458  0.65451290  1  -0.287436  0  -0.041521  -0.103659  0  4.104001  0
C  C40  1  0.50050184  0.37362712  0.62635890  1  0.06787  0  0.004501  0.143223  0  4.110862  0
C  C41  1  0.60939805  0.34869809  0.57291324  1  -0.054191  0  -0.082149  -0.127565  0  3.954539  0
C  C42  1  0.61800395  0.37685906  0.54586374  1  0.010681  0  -0.078304  -0.08662  0  3.986401  0
C  C43  1  0.50252076  0.42955857  0.57054615  1  0.00135  0  -0.008288  -0.034336  0  3.961518  0
C  C44  1  0.38576455  0.45422964  0.62317529  1  0.048495  0  -0.07858  -0.086762  0  3.98495  0
C  C45  1  0.39236624  0.42710853  0.65127486  1  -0.061739  0  -0.08234  -0.128399  0  3.95577  0
C  C46  1  0.49710310  0.02564951  0.76274599  1  0.001408  0  -0.008446  -0.034137  0  3.961206  0
C  C47  1  0.38163717  0.99763461  0.78742989  1  0.006628  0  -0.078427  -0.086841  0  3.987117  0
C  C48  1  0.39039825  0.94243220  0.76038357  1  -0.02718  0  -0.081962  -0.12856  0  3.954286  0
C  C49  1  0.49943498  0.91392349  0.70694806  1  0.038256  0  0.004372  0.146633  0  4.105861  0
C  C50  1  0.60760525  0.94248487  0.68203108  1  0.08959  0  -0.082194  -0.128969  0  3.954328  0
C  C51  1  0.61404471  0.99769853  0.71012833  1  -0.07953  0  -0.078386  -0.087152  0  3.985746  0
C  C52  1  0.49995302  0.85761584  0.67880466  1  -0.487011  0  -0.04163  -0.105133  0  4.103815  0
C  C53  1  0.50006422  0.80904865  0.65452803  1  0.123629  0  -0.041559  -0.105015  0  4.103691  0
C  C54  1  0.50046622  0.75274303  0.62637433  1  0.033583  0  0.004312  0.146581  0  4.106185  0
C  C55  1  0.60935911  0.72422907  0.65130660  1  0.085067  0  -0.08204  -0.128418  0  3.954006  0
C  C56  1  0.61795353  0.66902554  0.62315356  1  -0.131753  0  -0.07834  -0.086725  0  3.986775  0
C  C57  1  0.50246046  0.64101504  0.57045625  1  0.040661  0  -0.008358  -0.034583  0  3.961631  0
C  C58  1  0.38566500  0.66897129  0.54578509  1  0.023939  0  -0.078706  -0.086726  0  3.986035  0
C  C59  1  0.39227331  0.72418388  0.57289621  1  -0.024232  0  -0.08205  -0.129051  0  3.954969  0
C  C60  1  0.49716500  0.23707101  0.97434024  1  0.040469  0  -0.008374  -0.034354  0  3.961561  0
C  C61  1  0.38173913  0.28977316  0.00234194  1  -0.131813  0  -0.078534  -0.086841  0  3.986476  0
C  C62  1  0.39049188  0.31795256  0.05755018  1  0.085126  0  -0.081905  -0.128502  0  3.953387  0
C  C63  1  0.49950211  0.29303522  0.08607464  1  0.033841  0  0.004317  0.146504  0  4.105639  0
C  C64  1  0.60767749  0.23955720  0.05752497  1  -0.024656  0  -0.082312  -0.12895  0  3.954403  0
C  C65  1  0.61413468  0.21241554  0.00230522  1  0.025504  0  -0.07835  -0.086944  0  3.986317  0
C  C66  1  0.49997884  0.32120385  0.14238641  1  -0.286547  0  -0.041704  -0.105116  0  4.103032  0
C  C67  1  0.50008547  0.34547542  0.19095807  1  -0.076294  0  -0.041555  -0.105097  0  4.103245  0
C  C68  1  0.50050419  0.37362931  0.24726943  1  0.037222  0  0.004404  0.146824  0  4.105808  0
C  C69  1  0.60941723  0.42706784  0.27576900  1  -0.026486  0  -0.082242  -0.128727  0  3.954071  0
C  C70  1  0.61806460  0.45413612  0.33097796  1  0.007426  0  -0.078307  -0.086558  0  3.987103  0
C  C71  1  0.50257269  0.42946772  0.35900516  1  0.055418  0  -0.008344  -0.034449  0  3.962116  0
C  C72  1  0.38579681  0.37684233  0.33106305  1  -0.129585  0  -0.07859  -0.086904  0  3.985616  0
C  C73  1  0.39235791  0.34872320  0.27584398  1  0.084875  0  -0.082168  -0.129504  0  3.954302  0
O  O74  1  0.73925722  0.55853050  0.55137647  1  -1.248771  0  -0.238879  -0.597455  0  2.362955  0
O  O75  1  0.73928000  0.49289086  0.44149357  1  -1.256583  0  -0.238668  -0.597197  0  2.362331  0
O  O76  1  0.73932776  0.44864820  0.50714391  1  -1.24878  0  -0.23874  -0.597245  0  2.362594  0
O  O77  1  0.26967308  0.55833440  0.50678637  1  -1.259655  0  -0.238636  -0.59817  0  2.363751  0
O  O78  1  0.26974558  0.49324092  0.55152806  1  -1.256723  0  -0.238915  -0.598513  0  2.363959  0
O  O79  1  0.26975287  0.44850787  0.44169645  1  -1.260882  0  -0.238812  -0.59825  0  2.363731  0
O  O80  1  0.72955058  0.17335852  0.89161718  1  -1.260603  0  -0.239242  -0.598627  0  2.363764  0
O  O81  1  0.72949505  0.21820527  0.82661971  1  -1.257996  0  -0.23945  -0.598681  0  2.363385  0
O  O82  1  0.72955539  0.10836533  0.78178221  1  -1.260705  0  -0.239223  -0.598525  0  2.363525  0
O  O83  1  0.25994618  0.21797958  0.89188120  1  -1.249404  0  -0.238866  -0.597368  0  2.362922  0
O  O84  1  0.25999057  0.10810866  0.82614219  1  -1.256132  0  -0.238656  -0.597103  0  2.362392  0
O  O85  1  0.25995064  0.17385336  0.78200343  1  -1.248542  0  -0.238541  -0.596872  0  2.362331  0
