# generated using pymatgen
data_ZnH4C6(N2O)2
_symmetry_space_group_name_H-M   'P 1'
_cell_length_a   5.88681978
_cell_length_b   10.37134752
_cell_length_c   12.62747595
_cell_angle_alpha   89.99978307
_cell_angle_beta   89.99989523
_cell_angle_gamma   90.00005668
_symmetry_Int_Tables_number   1
_chemical_formula_structural   ZnH4C6(N2O)2
_chemical_formula_sum   'Zn4 H16 C24 N16 O8'
_cell_volume   770.96112136
_cell_formula_units_Z   4
loop_
 _symmetry_equiv_pos_site_id
 _symmetry_equiv_pos_as_xyz
  1  'x, y, z'
loop_
 _atom_site_type_symbol
 _atom_site_label
 _atom_site_symmetry_multiplicity
 _atom_site_fract_x
 _atom_site_fract_y
 _atom_site_fract_z
 _atom_site_occupancy
 _atom_site_hle17_bader_spin_density
 _atom_site_hle17_ddec_charge
 _atom_site_hle17_ddec_spin_density
 _atom_site_hle17_ddec_sum_bond_order
 _atom_site_hle17_magmom
 _atom_site_hse06_10hf_bader_spin_density
 _atom_site_hse06_10hf_ddec_charge
 _atom_site_hse06_10hf_ddec_spin_density
 _atom_site_hse06_10hf_ddec_sum_bond_order
 _atom_site_hse06_10hf_magmom
 _atom_site_hse06_bader_spin_density
 _atom_site_hse06_ddec_charge
 _atom_site_hse06_ddec_spin_density
 _atom_site_hse06_ddec_sum_bond_order
 _atom_site_hse06_magmom
 _atom_site_pbe_bader_spin_density
 _atom_site_pbe_cm5_charge
 _atom_site_pbe_ddec_charge
 _atom_site_pbe_ddec_spin_density
 _atom_site_pbe_ddec_sum_bond_order
 _atom_site_pbe_magmom
Zn  Zn0  1  0.20619047  0.32879998  0.49039511  1  0  1.015574  0  1.918303  0  0  0.842842  0  2.392435  0  0  0.884333  0  2.34269  0  0  0.715755  0.813933  0  2.426732  0
Zn  Zn1  1  0.29381098  0.67119698  0.99039470  1  0  1.015573  0  1.918337  0  0  0.842866  0  2.392463  0  0  0.884356  0  2.342714  0  0  0.715753  0.813962  0  2.426761  0
Zn  Zn2  1  0.79381135  0.82880377  0.00960441  1  0  1.015561  0  1.918368  0  0  0.842871  0  2.392474  0  0  0.884362  0  2.342724  0  0  0.715746  0.813969  0  2.426767  0
Zn  Zn3  1  0.70618691  0.17119374  0.50960563  1  0  1.015546  0  1.918361  0  0  0.842804  0  2.392525  0  0  0.884295  0  2.342777  0  0  0.715732  0.813892  0  2.426817  0
H  H4  1  0.29168537  0.46811023  0.28876865  1  0  0.096893  0  0.938634  0  0  0.102447  0  1.006299  0  0  0.105616  0  1.00285  0  0  0.12156  0.100032  0  1.008955  0
H  H5  1  0.20832026  0.53189151  0.78876796  1  0  0.096876  0  0.938656  0  0  0.102418  0  1.006344  0  0  0.105589  0  1.002894  0  0  0.121542  0.099997  0  1.008993  0
H  H6  1  0.70832180  0.96811209  0.21123043  1  0  0.096873  0  0.938707  0  0  0.102416  0  1.00638  0  0  0.105587  0  1.002931  0  0  0.121526  0.099998  0  1.009033  0
H  H7  1  0.79167398  0.03188932  0.71123042  1  0  0.096858  0  0.93868  0  0  0.102399  0  1.006357  0  0  0.10557  0  1.002908  0  0  0.121527  0.099978  0  1.009006  0
H  H8  1  0.82003020  0.74460372  0.34795480  1  0  0.105265  0  0.956103  0  0  0.110537  0  1.025448  0  0  0.113364  0  1.022887  0  0  0.108435  0.108425  0  1.027369  0
H  H9  1  0.67997863  0.25539416  0.84795579  1  0  0.105281  0  0.956043  0  0  0.110558  0  1.02538  0  0  0.113384  0  1.022818  0  0  0.108443  0.108442  0  1.027297  0
H  H10  1  0.17997316  0.24460244  0.15204497  1  0  0.105234  0  0.956155  0  0  0.110504  0  1.025509  0  0  0.11333  0  1.022948  0  0  0.108422  0.108396  0  1.02743  0
H  H11  1  0.32002621  0.75539898  0.65204744  1  0  0.105269  0  0.956092  0  0  0.110533  0  1.025452  0  0  0.11336  0  1.022891  0  0  0.108422  0.108419  0  1.027372  0
H  H12  1  0.80283882  0.68060194  0.54208001  1  0  0.109807  0  0.960252  0  0  0.117318  0  1.022662  0  0  0.119729  0  1.023789  0  0  0.107566  0.115515  0  1.022223  0
H  H13  1  0.69716611  0.31939639  0.04208046  1  0  0.109823  0  0.960274  0  0  0.117298  0  1.022714  0  0  0.119708  0  1.023843  0  0  0.107568  0.115505  0  1.022282  0
H  H14  1  0.19716418  0.18060408  0.95791949  1  0  0.109814  0  0.96025  0  0  0.117325  0  1.022664  0  0  0.119735  0  1.023793  0  0  0.107573  0.115522  0  1.022223  0
H  H15  1  0.30284079  0.81939978  0.45792225  1  0  0.109793  0  0.960138  0  0  0.117298  0  1.022571  0  0  0.119712  0  1.023695  0  0  0.107569  0.1155  0  1.022138  0
H  H16  1  0.52590465  0.51210098  0.59712148  1  0  0.089483  0  0.937547  0  0  0.095964  0  1.004101  0  0  0.098867  0  1.00066  0  0  0.120376  0.093817  0  1.006581  0
H  H17  1  0.97409836  0.48789999  0.09712195  1  0  0.08945  0  0.937554  0  0  0.095991  0  1.004046  0  0  0.098896  0  1.000601  0  0  0.120399  0.093855  0  1.006533  0
H  H18  1  0.47409974  0.01210448  0.90287776  1  0  0.089486  0  0.93753  0  0  0.095965  0  1.004088  0  0  0.098869  0  1.000645  0  0  0.120372  0.093818  0  1.006566  0
H  H19  1  0.02590205  0.98789771  0.40287786  1  0  0.089461  0  0.9376  0  0  0.095962  0  1.004117  0  0  0.098865  0  1.000675  0  0  0.120374  0.09382  0  1.006607  0
C  C20  1  0.40462405  0.51861274  0.34286564  1  0  0.13682  0  3.65344  0  0  0.091206  0  3.904469  0  0  0.100649  0  3.921168  0  0  0.054408  0.085177  0  3.893288  0
C  C21  1  0.09537798  0.48138587  0.84286520  1  0  0.136809  0  3.65349  0  0  0.091213  0  3.904501  0  0  0.100657  0  3.921198  0  0  0.054402  0.085188  0  3.893303  0
C  C22  1  0.59538060  0.01861358  0.15713325  1  0  0.136828  0  3.653416  0  0  0.091234  0  3.904418  0  0  0.100679  0  3.921117  0  0  0.054434  0.085209  0  3.893232  0
C  C23  1  0.90461709  0.98138615  0.65713416  1  0  0.136848  0  3.653391  0  0  0.091268  0  3.904376  0  0  0.10071  0  3.921078  0  0  0.054423  0.085244  0  3.893175  0
C  C24  1  0.55214019  0.61305961  0.30501384  1  0  -0.112173  0  3.740015  0  0  -0.088181  0  3.980668  0  0  -0.102036  0  4.005155  0  0  -0.012299  -0.079597  0  3.964586  0
C  C25  1  0.94786202  0.38694040  0.80501498  1  0  -0.11209  0  3.740086  0  0  -0.088128  0  3.980739  0  0  -0.101983  0  4.005228  0  0  -0.012315  -0.079535  0  3.964633  0
C  C26  1  0.44786123  0.11306020  0.19498713  1  0  -0.112196  0  3.739999  0  0  -0.088205  0  3.980619  0  0  -0.102065  0  4.005114  0  0  -0.012298  -0.079615  0  3.964538  0
C  C27  1  0.05213627  0.88694006  0.69498784  1  0  -0.112208  0  3.740204  0  0  -0.088222  0  3.980815  0  0  -0.102081  0  4.005306  0  0  -0.012277  -0.079638  0  3.964719  0
C  C28  1  0.70038993  0.67237386  0.37667805  1  0  0.003439  0  3.655118  0  0  -0.024703  0  3.89807  0  0  -0.017995  0  3.91452  0  0  -0.054992  -0.028832  0  3.887064  0
C  C29  1  0.79961540  0.32762679  0.87667870  1  0  0.003338  0  3.655236  0  0  -0.024797  0  3.898177  0  0  -0.01809  0  3.91463  0  0  -0.055049  -0.028923  0  3.887163  0
C  C30  1  0.29961160  0.17237373  0.12332195  1  0  0.003502  0  3.655055  0  0  -0.024627  0  3.897998  0  0  -0.017918  0  3.91445  0  0  -0.054984  -0.02876  0  3.887  0
C  C31  1  0.20038448  0.82763071  0.62332272  1  0  0.003428  0  3.655413  0  0  -0.024708  0  3.898352  0  0  -0.018  0  3.914809  0  0  -0.055007  -0.028838  0  3.887342  0
C  C32  1  0.69162095  0.63717761  0.48320929  1  0  -0.11564  0  3.711542  0  0  -0.12471  0  3.961047  0  0  -0.133575  0  3.983289  0  0  -0.079361  -0.119047  0  3.946109  0
C  C33  1  0.80837887  0.36282159  0.98320904  1  0  -0.115616  0  3.711674  0  0  -0.124662  0  3.961188  0  0  -0.133526  0  3.98343  0  0  -0.079344  -0.119009  0  3.946274  0
C  C34  1  0.30838392  0.13717894  0.01678844  1  0  -0.115679  0  3.711564  0  0  -0.124771  0  3.961088  0  0  -0.133634  0  3.983327  0  0  -0.079388  -0.119103  0  3.946149  0
C  C35  1  0.19161768  0.86282599  0.51679386  1  0  -0.115549  0  3.711612  0  0  -0.124631  0  3.961104  0  0  -0.133497  0  3.983347  0  0  -0.079349  -0.118976  0  3.946184  0
C  C36  1  0.53805062  0.54285609  0.51490230  1  0  0.148707  0  3.660764  0  0  0.1112  0  3.916582  0  0  0.120177  0  3.932728  0  0  0.05465  0.1055  0  3.905452  0
C  C37  1  0.96194932  0.45714236  0.01490051  1  0  0.148756  0  3.660704  0  0  0.111215  0  3.916505  0  0  0.120191  0  3.932651  0  0  0.054659  0.105501  0  3.905405  0
C  C38  1  0.46195214  0.04286017  0.98509763  1  0  0.148737  0  3.660871  0  0  0.111249  0  3.916685  0  0  0.120226  0  3.932831  0  0  0.054693  0.105553  0  3.905549  0
C  C39  1  0.03805274  0.95714356  0.48509861  1  0  0.148647  0  3.660874  0  0  0.111152  0  3.916661  0  0  0.120127  0  3.932809  0  0  0.054638  0.105438  0  3.905556  0
C  C40  1  0.54788178  0.64885946  0.18950694  1  0  0.663712  0  3.913447  0  0  0.609798  0  4.209914  0  0  0.644596  0  4.203593  0  0  0.210417  0.586253  0  4.213223  0
C  C41  1  0.95211918  0.35113819  0.68950818  1  0  0.663385  0  3.913607  0  0  0.609501  0  4.210047  0  0  0.644299  0  4.203727  0  0  0.210307  0.585949  0  4.213348  0
C  C42  1  0.45211801  0.14885663  0.31049155  1  0  0.663704  0  3.913498  0  0  0.609821  0  4.209914  0  0  0.644618  0  4.203593  0  0  0.210461  0.586271  0  4.213222  0
C  C43  1  0.04787735  0.85114213  0.81049238  1  0  0.663699  0  3.913418  0  0  0.609828  0  4.209834  0  0  0.644627  0  4.20351  0  0  0.210469  0.586281  0  4.213137  0
N  N44  1  0.39855773  0.48359776  0.44543251  1  0  -0.335722  0  3.307933  0  0  -0.248057  0  3.583845  0  0  -0.26739  0  3.597743  0  0  -0.332276  -0.23511  0  3.574337  0
N  N45  1  0.10144560  0.51640230  0.94543275  1  0  -0.335711  0  3.307904  0  0  -0.24807  0  3.583843  0  0  -0.267402  0  3.597736  0  0  -0.332266  -0.235128  0  3.574343  0
N  N46  1  0.60144777  0.98359932  0.05456493  1  0  -0.335729  0  3.30797  0  0  -0.248089  0  3.583884  0  0  -0.267423  0  3.597778  0  0  -0.332293  -0.235142  0  3.574375  0
N  N47  1  0.89855371  0.01640185  0.55456568  1  0  -0.335661  0  3.307915  0  0  -0.248026  0  3.583828  0  0  -0.267359  0  3.597724  0  0  -0.332269  -0.235081  0  3.57432  0
N  N48  1  0.38807957  0.19134037  0.57153972  1  0  -0.633086  0  2.886483  0  0  -0.579411  0  3.231188  0  0  -0.605531  0  3.229528  0  0  -0.340204  -0.561717  0  3.232432  0
N  N49  1  0.11192181  0.80865756  0.07153872  1  0  -0.633027  0  2.88637  0  0  -0.579406  0  3.231097  0  0  -0.605534  0  3.229452  0  0  -0.340195  -0.561708  0  3.23235  0
N  N50  1  0.61192006  0.69134213  0.92846054  1  0  -0.63305  0  2.886412  0  0  -0.579418  0  3.231124  0  0  -0.605548  0  3.229479  0  0  -0.340188  -0.561715  0  3.23234  0
N  N51  1  0.88807488  0.30865731  0.42846085  1  0  -0.632944  0  2.886381  0  0  -0.57934  0  3.23111  0  0  -0.605457  0  3.229441  0  0  -0.340145  -0.561615  0  3.23231  0
N  N52  1  0.36200757  0.17522555  0.66612874  1  0  0.429464  0  4.170102  0  0  0.459425  0  4.447182  0  0  0.475288  0  4.475318  0  0  0.101754  0.448681  0  4.428347  0
N  N53  1  0.13799344  0.82477290  0.16612924  1  0  0.429369  0  4.169975  0  0  0.459368  0  4.447045  0  0  0.475231  0  4.475183  0  0  0.101756  0.448625  0  4.428219  0
N  N54  1  0.63799203  0.67522584  0.83387158  1  0  0.429415  0  4.169978  0  0  0.459414  0  4.447032  0  0  0.475276  0  4.475168  0  0  0.101742  0.448675  0  4.428204  0
N  N55  1  0.86200497  0.32477307  0.33387266  1  0  0.429386  0  4.169968  0  0  0.459416  0  4.44699  0  0  0.475281  0  4.47513  0  0  0.101773  0.448676  0  4.428168  0
N  N56  1  0.33337392  0.15792768  0.75558054  1  0  -0.316186  0  2.400833  0  0  -0.315471  0  2.626166  0  0  -0.319763  0  2.636096  0  0  -0.138506  -0.312629  0  2.619836  0
N  N57  1  0.16662334  0.84207229  0.25558176  1  0  -0.31614  0  2.400771  0  0  -0.315432  0  2.62608  0  0  -0.319725  0  2.636012  0  0  -0.138495  -0.312576  0  2.619747  0
N  N58  1  0.66662564  0.65792647  0.74441983  1  0  -0.316177  0  2.400777  0  0  -0.315476  0  2.626089  0  0  -0.319766  0  2.636019  0  0  -0.138511  -0.312627  0  2.619758  0
N  N59  1  0.83337510  0.34207189  0.24442088  1  0  -0.316222  0  2.400722  0  0  -0.315536  0  2.626028  0  0  -0.319829  0  2.635958  0  0  -0.138566  -0.312689  0  2.619714  0
O  O60  1  0.40252322  0.59004656  0.13190650  1  0  -0.640283  0  2.040257  0  0  -0.574314  0  2.299536  0  0  -0.602714  0  2.288739  0  0  -0.322955  -0.554305  0  2.306278  0
O  O61  1  0.09747623  0.40995012  0.63190628  1  0  -0.640169  0  2.040406  0  0  -0.574186  0  2.299639  0  0  -0.602599  0  2.288873  0  0  -0.322929  -0.554185  0  2.30638  0
O  O62  1  0.59747477  0.09004451  0.36809217  1  0  -0.640242  0  2.040241  0  0  -0.574286  0  2.299518  0  0  -0.602696  0  2.288749  0  0  -0.322965  -0.554276  0  2.306256  0
O  O63  1  0.90252210  0.90995232  0.86809409  1  0  -0.640215  0  2.040263  0  0  -0.574276  0  2.299532  0  0  -0.602677  0  2.288742  0  0  -0.322958  -0.554273  0  2.306272  0
O  O64  1  0.68480814  0.73541149  0.15944214  1  0  -0.646083  0  2.068118  0  0  -0.585899  0  2.331057  0  0  -0.613613  0  2.322247  0  0  -0.314319  -0.566116  0  2.336274  0
O  O65  1  0.81518784  0.26458438  0.65944377  1  0  -0.645907  0  2.068022  0  0  -0.585721  0  2.33094  0  0  -0.613435  0  2.322133  0  0  -0.314223  -0.565941  0  2.336151  0
O  O66  1  0.31519181  0.23540940  0.34055608  1  0  -0.646098  0  2.068065  0  0  -0.585927  0  2.331002  0  0  -0.613641  0  2.322192  0  0  -0.314337  -0.566143  0  2.336219  0
O  O67  1  0.18480853  0.76458921  0.84055784  1  0  -0.646113  0  2.067966  0  0  -0.585943  0  2.330894  0  0  -0.613656  0  2.32208  0  0  -0.314383  -0.566165  0  2.336111  0
