# generated using pymatgen
data_Zn4H36C48N6O13
_symmetry_space_group_name_H-M   'P 1'
_cell_length_a   27.12436071
_cell_length_b   27.68403184
_cell_length_c   27.58542589
_cell_angle_alpha   89.91026697
_cell_angle_beta   61.09378761
_cell_angle_gamma   60.20046385
_symmetry_Int_Tables_number   1
_chemical_formula_structural   Zn4H36C48N6O13
_chemical_formula_sum   'Zn8 H72 C96 N12 O26'
_cell_volume   14938.96192256
_cell_formula_units_Z   2
loop_
 _symmetry_equiv_pos_site_id
 _symmetry_equiv_pos_as_xyz
  1  'x, y, z'
loop_
 _atom_site_type_symbol
 _atom_site_label
 _atom_site_symmetry_multiplicity
 _atom_site_fract_x
 _atom_site_fract_y
 _atom_site_fract_z
 _atom_site_occupancy
 _atom_site_pbe_bader_charge
 _atom_site_pbe_bader_spin_density
 _atom_site_pbe_cm5_charge
 _atom_site_pbe_ddec_charge
 _atom_site_pbe_ddec_spin_density
 _atom_site_pbe_ddec_sum_bond_order
 _atom_site_pbe_magmom
Zn  Zn0  1  0.94607614  0.02289642  0.96658010  1  1.300067  0  0.666673  0.952669  0  2.424737  0
Zn  Zn1  1  0.05796321  0.90825949  0.96574673  1  1.310326  0  0.668797  0.958246  0  2.410219  0
Zn  Zn2  1  0.94768920  0.01927044  0.08055917  1  1.318368  0  0.670674  0.967446  0  2.367879  0
Zn  Zn3  1  0.06603191  0.02083410  0.96571294  1  1.312087  0  0.67246  0.976531  0  2.318634  0
Zn  Zn4  1  0.06513953  0.46324253  0.52210704  1  1.299007  0  0.667615  0.955853  0  2.416341  0
Zn  Zn5  1  0.94810459  0.57775398  0.52623153  1  1.313833  0  0.668281  0.957595  0  2.40969  0
Zn  Zn6  1  0.94738086  0.46201441  0.52094296  1  1.331595  0  0.671949  0.976314  0  2.31329  0
Zn  Zn7  1  0.06310349  0.46980919  0.40922837  1  1.313335  0  0.670442  0.96555  0  2.378638  0
H  H8  1  0.05564047  0.55675035  0.74227106  1  0.432051  0  0.307785  0.301458  0  0.939896  0
H  H9  1  0.02766365  0.62196546  0.78107235  1  0.426133  0  0.301902  0.291876  0  0.963445  0
H  H10  1  0.04629858  0.54391863  0.66319631  1  0.07435  0  0.104894  0.119684  0  1.002616  0
H  H11  1  0.96275780  0.69381879  0.60937339  1  0.080751  0  0.103655  0.114009  0  1.003284  0
H  H12  1  0.96533538  0.75127162  0.67642340  1  0.076837  0  0.10023  0.101127  0  1.001857  0
H  H13  1  0.04317036  0.68904191  0.76077742  1  0.044695  0  0.098824  0.092312  0  1.021155  0
H  H14  1  0.92885907  0.79964316  0.76246801  1  0.051209  0  0.0992  0.09268  0  1.020714  0
H  H15  1  0.08046309  0.74069957  0.77106050  1  0.071009  0  0.100186  0.100842  0  1.001924  0
H  H16  1  0.09081612  0.79720321  0.83153394  1  0.108538  0  0.103389  0.113589  0  1.003022  0
H  H17  1  0.88215470  0.94059678  0.90696807  1  0.098205  0  0.105262  0.120263  0  1.00197  0
H  H18  1  0.84349635  0.86089150  0.84545411  1  0.415938  0  0.301985  0.292585  0  0.963393  0
H  H19  1  0.81512086  0.92567848  0.88561493  1  0.428484  0  0.307971  0.301379  0  0.941702  0
H  H20  1  0.36988505  0.38497986  0.42819395  1  0.438669  0  0.307787  0.301534  0  0.940353  0
H  H21  1  0.44662193  0.34707078  0.36397618  1  0.435538  0  0.302193  0.292109  0  0.961769  0
H  H22  1  0.26781783  0.40746980  0.44038129  1  0.113404  0  0.105246  0.120203  0  1.002942  0
H  H23  1  0.27893636  0.34305155  0.29142198  1  0.079429  0  0.1038  0.113431  0  1.00221  0
H  H24  1  0.40598115  0.28256132  0.23577971  1  0.089514  0  0.100294  0.10107  0  1.00239  0
H  H25  1  0.50537174  0.26523616  0.30023036  1  0.064331  0  0.098518  0.092078  0  1.020752  0
H  H26  1  0.50790058  0.26812314  0.18787625  1  0.044951  0  0.098807  0.092558  0  1.020548  0
H  H27  1  0.60313670  0.17860358  0.25230183  1  0.058366  0  0.099663  0.10031  0  1.002857  0
H  H28  1  0.72963934  0.10925530  0.19713131  1  0.080809  0  0.102898  0.112783  0  1.001722  0
H  H29  1  0.74794198  0.16713434  0.04837564  1  0.087948  0  0.105225  0.120358  0  1.003135  0
H  H30  1  0.57278954  0.28831143  0.12387075  1  0.432008  0  0.302564  0.292587  0  0.961971  0
H  H31  1  0.64975616  0.24882940  0.05998651  1  0.423296  0  0.307754  0.301438  0  0.939261  0
H  H32  1  0.19045200  0.24582982  0.60455951  1  0.414974  0  0.307094  0.300074  0  0.941529  0
H  H33  1  0.16396107  0.20779267  0.64493234  1  0.42534  0  0.301967  0.292043  0  0.963909  0
H  H34  1  0.12327891  0.32258595  0.58080881  1  0.085246  0  0.104566  0.119686  0  1.003336  0
H  H35  1  0.91732429  0.37553107  0.65323631  1  0.086519  0  0.103349  0.112984  0  1.001586  0
H  H36  1  0.92806990  0.31137480  0.71607679  1  0.075054  0  0.099993  0.100779  0  1.002476  0
H  H37  1  0.07889823  0.22885128  0.72734665  1  0.047681  0  0.098966  0.092894  0  1.021058  0
H  H38  1  0.96681366  0.22480552  0.72966194  1  0.040032  0  0.099042  0.092263  0  1.021426  0
H  H39  1  0.04528160  0.21410917  0.81299505  1  0.044012  0  0.099353  0.09917  0  1.003743  0
H  H40  1  0.05282840  0.15207767  0.87810523  1  0.088497  0  0.102894  0.112418  0  1.001362  0
H  H41  1  0.97290633  0.07920694  0.82431383  1  0.086906  0  0.104664  0.120054  0  1.003687  0
H  H42  1  0.98557007  0.14196648  0.70852344  1  0.411151  0  0.302659  0.293822  0  0.960483  0
H  H43  1  0.96067688  0.10188606  0.74653248  1  0.42458  0  0.307788  0.301458  0  0.939963  0
H  H44  1  0.81998073  0.78883853  0.43204521  1  0.425833  0  0.308136  0.301659  0  0.940153  0
H  H45  1  0.84524482  0.80144830  0.36712801  1  0.424564  0  0.302644  0.292903  0  0.963871  0
H  H46  1  0.88795489  0.70127639  0.44537182  1  0.089265  0  0.105036  0.120496  0  1.002235  0
H  H47  1  0.09096286  0.57258193  0.29832778  1  0.089007  0  0.10282  0.112574  0  1.004167  0
H  H48  1  0.07919347  0.64324537  0.24181524  1  0.052411  0  0.099818  0.100472  0  1.00363  0
H  H49  1  0.93131098  0.79966087  0.30258677  1  0.059181  0  0.099073  0.092517  0  1.019447  0
H  H50  1  0.03876121  0.69208976  0.19262378  1  0.066137  0  0.098557  0.091993  0  1.021424  0
H  H51  1  0.97070128  0.84804273  0.25200534  1  0.058109  0  0.10033  0.101111  0  1.001621  0
H  H52  1  0.96500445  0.91868074  0.19543377  1  0.102869  0  0.10407  0.113994  0  1.001725  0
H  H53  1  0.03247604  0.79037574  0.05055956  1  0.093283  0  0.1044  0.119316  0  1.003083  0
H  H54  1  0.01527195  0.69088777  0.13010943  1  0.423624  0  0.301524  0.29152  0  0.963486  0
H  H55  1  0.03919883  0.70341803  0.06527408  1  0.424916  0  0.306575  0.299731  0  0.942435  0
H  H56  1  0.65317973  0.77344760  0.73845099  1  0.421166  0  0.307009  0.299909  0  0.942298  0
H  H57  1  0.57415630  0.78759761  0.77548875  1  0.430069  0  0.301894  0.292482  0  0.962973  0
H  H58  1  0.75066387  0.68721248  0.66208917  1  0.096129  0  0.104514  0.119696  0  1.004818  0
H  H59  1  0.72636796  0.56043251  0.60604204  1  0.087849  0  0.103148  0.112332  0  1.001833  0
H  H60  1  0.59998976  0.63146636  0.66961431  1  0.069298  0  0.099541  0.1  0  1.002583  0
H  H61  1  0.51123516  0.78784166  0.75330512  1  0.037793  0  0.098627  0.091392  0  1.024097  0
H  H62  1  0.49734106  0.68439348  0.75536359  1  0.03445  0  0.099043  0.092939  0  1.020656  0
H  H63  1  0.40972693  0.84495289  0.77084088  1  0.036054  0  0.099197  0.099334  0  1.004618  0
H  H64  1  0.28400580  0.91908352  0.83433280  1  0.091706  0  0.103515  0.11319  0  1.001066  0
H  H65  1  0.25823779  0.78695736  0.90012916  1  0.06658  0  0.105303  0.12032  0  1.003942  0
H  H66  1  0.43583558  0.67874848  0.83546003  1  0.408594  0  0.301858  0.291513  0  0.963784  0
H  H67  1  0.35563512  0.69558947  0.87516941  1  0.428594  0  0.307564  0.300376  0  0.941148  0
H  H68  1  0.06161782  0.38229452  0.19815968  1  0.431766  0  0.306744  0.299723  0  0.94215  0
H  H69  1  0.03722360  0.34252335  0.18246271  1  0.430116  0  0.301702  0.291699  0  0.964115  0
H  H70  1  0.04768484  0.40455683  0.28793637  1  0.074886  0  0.104284  0.119671  0  1.003596  0
H  H71  1  0.96444785  0.33246601  0.41711718  1  0.114918  0  0.103183  0.113046  0  1.001889  0
H  H72  1  0.97354777  0.27055728  0.34380797  1  0.044421  0  0.100028  0.101333  0  1.00302  0
H  H73  1  0.05438839  0.25974208  0.18568197  1  0.064376  0  0.098368  0.092719  0  1.019585  0
H  H74  1  0.94223237  0.25566194  0.28978540  1  0.052153  0  0.098475  0.090283  0  1.024936  0
H  H75  1  0.09114579  0.17371028  0.13353129  1  0.045422  0  0.099782  0.100251  0  1.001629  0
H  H76  1  0.10102293  0.10669962  0.06425987  1  0.092815  0  0.10298  0.112402  0  1.002399  0
H  H77  1  0.89794097  0.15624265  0.19322045  1  0.083655  0  0.10477  0.119262  0  1.003884  0
H  H78  1  0.85700883  0.27548607  0.29034371  1  0.427907  0  0.302343  0.292638  0  0.962373  0
H  H79  1  0.83106350  0.23536887  0.27825699  1  0.421297  0  0.307591  0.301452  0  0.940977  0
C  C80  1  0.02723681  0.62207454  0.70683135  1  0.441067  0  0.092175  0.250053  0  4.072667  0
C  C81  1  0.02817871  0.58970515  0.66705976  1  -0.064133  0  -0.099442  -0.215035  0  3.953509  0
C  C82  1  0.00485343  0.61535333  0.63247632  1  -0.004259  0  -0.024034  -0.022559  0  4.025296  0
C  C83  1  0.98037999  0.67444891  0.63685364  1  0.012635  0  -0.102237  -0.131284  0  4.036853  0
C  C84  1  0.98115288  0.70624430  0.67489301  1  -0.08813  0  -0.094869  -0.121864  0  4.01856  0
C  C85  1  0.00435026  0.68154392  0.71043784  1  -0.040514  0  -0.022598  0.008263  0  4.010642  0
C  C86  1  0.00660313  0.71467417  0.74913976  1  -0.083943  0  -0.098381  -0.131409  0  4.026859  0
C  C87  1  0.96802739  0.77396384  0.77143023  1  -0.049591  0  -0.098568  -0.132025  0  4.026754  0
C  C88  1  0.97435509  0.80687221  0.80637615  1  0.000399  0  -0.022686  0.007868  0  4.012491  0
C  C89  1  0.03619629  0.78389398  0.80230920  1  -0.048993  0  -0.094646  -0.120838  0  4.018475  0
C  C90  1  0.04280326  0.81527617  0.83511423  1  -0.038574  0  -0.102919  -0.131649  0  4.036364  0
C  C91  1  0.98678388  0.87234336  0.87260599  1  -0.022734  0  -0.023838  -0.023707  0  4.024203  0
C  C92  1  0.92505662  0.89639423  0.87721519  1  -0.009988  0  -0.100336  -0.217203  0  3.953034  0
C  C93  1  0.91744699  0.86426914  0.84544714  1  0.38363  0  0.091997  0.251807  0  4.075162  0
C  C94  1  0.99267221  0.90738553  0.90779539  1  1.540358  0  0.223241  0.602156  0  4.157878  0
C  C95  1  0.00597644  0.57964833  0.59121370  1  1.547647  0  0.223682  0.600281  0  4.163041  0
C  C96  1  0.37026461  0.34874496  0.36361141  1  0.375729  0  0.092592  0.250492  0  4.073649  0
C  C97  1  0.29890549  0.38036214  0.39512047  1  -0.037803  0  -0.100971  -0.217193  0  3.956514  0
C  C98  1  0.26611623  0.37860149  0.36940403  1  -0.076698  0  -0.023083  -0.022481  0  4.021334  0
C  C99  1  0.30494935  0.34444186  0.31097086  1  0.038005  0  -0.101294  -0.129116  0  4.033261  0
C  C100  1  0.37568968  0.31151187  0.28011288  1  -0.087449  0  -0.094549  -0.121833  0  4.016594  0
C  C101  1  0.41021813  0.31224108  0.30503960  1  -0.000881  0  -0.022484  0.009147  0  4.00825  0
C  C102  1  0.48428914  0.27613735  0.27349115  1  -0.077485  0  -0.098172  -0.131135  0  4.024055  0
C  C103  1  0.52880456  0.25476624  0.21462463  1  -0.073092  0  -0.098204  -0.132186  0  4.025869  0
C  C104  1  0.60266888  0.21488100  0.18313572  1  -0.007129  0  -0.022563  0.010414  0  4.006096  0
C  C105  1  0.63503559  0.17749632  0.20807045  1  -0.055634  0  -0.094579  -0.122474  0  4.014319  0
C  C106  1  0.70544031  0.13813954  0.17746712  1  -0.025946  0  -0.103127  -0.131981  0  4.035985  0
C  C107  1  0.74600649  0.13417845  0.11922854  1  -0.05337  0  -0.024848  -0.025335  0  4.027938  0
C  C108  1  0.71539639  0.17069152  0.09348657  1  0.018519  0  -0.100376  -0.216241  0  3.957073  0
C  C109  1  0.64457736  0.21184115  0.12470882  1  0.397078  0  0.092095  0.250155  0  4.072242  0
C  C110  1  0.82164288  0.09128078  0.08391646  1  1.552744  0  0.224091  0.604149  0  4.156121  0
C  C111  1  0.19006059  0.41252227  0.40475625  1  1.579073  0  0.224866  0.603435  0  4.16037  0
C  C112  1  0.08907021  0.28088850  0.64350324  1  0.346032  0  0.092041  0.251418  0  4.072375  0
C  C113  1  0.08111463  0.31914489  0.61046903  1  -0.048561  0  -0.101538  -0.217956  0  3.954429  0
C  C114  1  0.02000698  0.35277216  0.61356888  1  -0.005768  0  -0.023347  -0.024167  0  4.023472  0
C  C115  1  0.96490516  0.34892555  0.65080545  1  -0.017522  0  -0.102209  -0.130189  0  4.034714  0
C  C116  1  0.97172493  0.31245536  0.68501427  1  -0.051806  0  -0.094975  -0.12285  0  4.016831  0
C  C117  1  0.03295781  0.27778040  0.68255516  1  -0.003602  0  -0.022589  0.00827  0  4.012481  0
C  C118  1  0.04000394  0.23969300  0.71847414  1  -0.031115  0  -0.09853  -0.132268  0  4.025061  0
C  C119  1  0.00320632  0.21633760  0.74104666  1  -0.068346  0  -0.097727  -0.130037  0  4.023652  0
C  C120  1  0.00785536  0.18034856  0.77907671  1  -0.021522  0  -0.022855  0.008279  0  4.008644  0
C  C121  1  0.03135931  0.18310370  0.81411766  1  -0.017761  0  -0.094806  -0.120997  0  4.017347  0
C  C122  1  0.03489202  0.14936971  0.85107243  1  -0.038282  0  -0.101419  -0.129902  0  4.036467  0
C  C123  1  0.01271702  0.11234232  0.85499062  1  -0.06465  0  -0.023835  -0.023867  0  4.02561  0
C  C124  1  0.98920191  0.10872195  0.82080330  1  -0.017081  0  -0.100719  -0.216838  0  3.956323  0
C  C125  1  0.98756608  0.14122682  0.78202995  1  0.414486  0  0.092345  0.250302  0  4.072931  0
C  C126  1  0.01269405  0.07705832  0.89585700  1  1.545792  0  0.225084  0.606203  0  4.15555  0
C  C127  1  0.01468941  0.39272181  0.57729660  1  1.55667  0  0.225971  0.607693  0  4.152809  0
C  C128  1  0.92050597  0.72847669  0.36836660  1  0.389664  0  0.093773  0.253869  0  4.071151  0
C  C129  1  0.92917866  0.68918201  0.40038359  1  -0.078623  0  -0.100372  -0.217647  0  3.951886  0
C  C130  1  0.98985080  0.63340042  0.37529831  1  0.06624  0  -0.023235  -0.022956  0  4.025293  0
C  C131  1  0.04377131  0.61604694  0.31723556  1  -0.05735  0  -0.10331  -0.131886  0  4.038742  0
C  C132  1  0.03631798  0.65536352  0.28590651  1  -0.030683  0  -0.094993  -0.121641  0  4.02131  0
C  C133  1  0.97552252  0.71188532  0.30996556  1  0.007715  0  -0.022919  0.00709  0  4.012609  0
C  C134  1  0.96854110  0.75309848  0.27710089  1  -0.012273  0  -0.097198  -0.129772  0  4.02356  0
C  C135  1  0.00433068  0.73861669  0.21807427  1  -0.149094  0  -0.098466  -0.132448  0  4.026466  0
C  C136  1  0.00127010  0.77975922  0.18510241  1  0.063624  0  -0.022881  0.008395  0  4.011828  0
C  C137  1  0.98210107  0.83607255  0.20842758  1  -0.071241  0  -0.093714  -0.12071  0  4.016873  0
C  C138  1  0.97974641  0.87538047  0.17701559  1  -0.04623  0  -0.102031  -0.129444  0  4.03479  0
C  C139  1  0.99886515  0.85813350  0.11951161  1  -0.012922  0  -0.023296  -0.023896  0  4.025121  0
C  C140  1  0.01845272  0.80248959  0.09512444  1  -0.046966  0  -0.101024  -0.217027  0  3.954077  0
C  C141  1  0.01880194  0.76327979  0.12730725  1  0.380375  0  0.091426  0.249922  0  4.070202  0
C  C142  1  0.99884224  0.89866822  0.08393331  1  1.547489  0  0.224596  0.603976  0  4.160047  0
C  C143  1  0.99666948  0.59251165  0.41043534  1  1.541486  0  0.2256  0.606074  0  4.157247  0
C  C144  1  0.64595298  0.71501027  0.70243393  1  0.347087  0  0.092046  0.251612  0  4.071973  0
C  C145  1  0.71683477  0.67540092  0.66465726  1  0.073196  0  -0.101114  -0.217079  0  3.958205  0
C  C146  1  0.74591608  0.62002332  0.63031471  1  -0.100078  0  -0.023757  -0.02407  0  4.019478  0
C  C147  1  0.70346863  0.60350932  0.63317384  1  -0.026442  0  -0.102068  -0.130596  0  4.032226  0
C  C148  1  0.63302264  0.64323187  0.66931042  1  -0.059154  0  -0.094256  -0.121465  0  4.013179  0
C  C149  1  0.60229804  0.69947602  0.70447973  1  0.018071  0  -0.022313  0.008187  0  4.008493  0
C  C150  1  0.52871593  0.74192508  0.74192161  1  -0.094891  0  -0.097923  -0.13023  0  4.024432  0
C  C151  1  0.48035742  0.73028834  0.76447311  1  0.015912  0  -0.097783  -0.130327  0  4.021945  0
C  C152  1  0.40690391  0.77384631  0.80089999  1  0.000661  0  -0.022031  0.008694  0  4.004964  0
C  C153  1  0.37662572  0.83253283  0.80058665  1  -0.028809  0  -0.094241  -0.121184  0  4.012903  0
C  C154  1  0.30652172  0.87406580  0.83528659  1  -0.049229  0  -0.102023  -0.130927  0  4.031829  0
C  C155  1  0.26378530  0.85698868  0.87094623  1  0.038485  0  -0.023641  -0.023947  0  4.02234  0
C  C156  1  0.29230702  0.79920246  0.87192624  1  -0.03624  0  -0.100383  -0.216309  0  3.957662  0
C  C157  1  0.36309052  0.75755937  0.83849482  1  0.362891  0  0.092036  0.250878  0  4.072486  0
C  C158  1  0.18793214  0.89906167  0.90772327  1  1.546884  0  0.225677  0.607119  0  4.154616  0
C  C159  1  0.82195697  0.58010457  0.59084259  1  1.547387  0  0.224975  0.606118  0  4.155006  0
C  C160  1  0.03334833  0.34288737  0.25870088  1  0.385393  0  0.091912  0.250265  0  4.068948  0
C  C161  1  0.03091770  0.37529998  0.29970112  1  -0.057077  0  -0.100965  -0.21764  0  3.954633  0
C  C162  1  0.00599369  0.37198576  0.35641156  1  0.031323  0  -0.023  -0.022867  0  4.019219  0
C  C163  1  0.98338708  0.33512025  0.37296375  1  -0.076992  0  -0.102313  -0.131151  0  4.034164  0
C  C164  1  0.98779319  0.30142013  0.33199555  1  -0.063315  0  -0.095266  -0.12323  0  4.013752  0
C  C165  1  0.01250050  0.30402874  0.27444661  1  0.057051  0  -0.021772  0.009719  0  4.004571  0
C  C166  1  0.01768568  0.26813738  0.23150633  1  -0.083939  0  -0.097859  -0.132335  0  4.019769  0
C  C167  1  0.98096028  0.24469154  0.24386983  1  -0.063149  0  -0.098212  -0.128294  0  4.022391  0
C  C168  1  0.98753940  0.20597258  0.20234285  1  0.002804  0  -0.022711  0.006705  0  4.010342  0
C  C169  1  0.04774311  0.17137842  0.14611790  1  0.003547  0  -0.094724  -0.120665  0  4.014548  0
C  C170  1  0.05413954  0.13324644  0.10743286  1  -0.05574  0  -0.102467  -0.132475  0  4.033697  0
C  C171  1  0.99985831  0.12734195  0.12518453  1  -0.017308  0  -0.022789  -0.02147  0  4.018531  0
C  C172  1  0.93964394  0.16112073  0.18052747  1  -0.029345  0  -0.101  -0.217597  0  3.957507  0
C  C173  1  0.93182111  0.20137867  0.21890641  1  0.36043  0  0.092561  0.252356  0  4.071007  0
C  C174  1  0.00500481  0.08551188  0.08596382  1  1.55459  0  0.22616  0.607847  0  4.152849  0
C  C175  1  0.00431204  0.40767366  0.39836156  1  1.53589  0  0.226369  0.608232  0  4.155381  0
N  N176  1  0.05033525  0.59558697  0.74110872  1  -1.207828  0  -0.602973  -0.626961  0  3.315776  0
N  N177  1  0.85532155  0.88898070  0.85102995  1  -1.21248  0  -0.60257  -0.627319  0  3.319537  0
N  N178  1  0.40147741  0.35171726  0.39028890  1  -1.225357  0  -0.603464  -0.627607  0  3.315895  0
N  N179  1  0.61592281  0.24786812  0.09776789  1  -1.219065  0  -0.602095  -0.626152  0  3.314143  0
N  N180  1  0.15076793  0.24754152  0.63915267  1  -1.177769  0  -0.603274  -0.626743  0  3.315442  0
N  N181  1  0.96435274  0.13647625  0.74816059  1  -1.187824  0  -0.603046  -0.627958  0  3.312589  0
N  N182  1  0.85939929  0.78364749  0.39402449  1  -1.214863  0  -0.60202  -0.626424  0  3.31891  0
N  N183  1  0.03788641  0.70819860  0.10239745  1  -1.207891  0  -0.603678  -0.627535  0  3.313981  0
N  N184  1  0.61897034  0.76966781  0.73620502  1  -1.212681  0  -0.604207  -0.628086  0  3.315753  0
N  N185  1  0.38937995  0.70056989  0.84127039  1  -1.193504  0  -0.602943  -0.625749  0  3.314815  0
N  N186  1  0.05785269  0.34769120  0.20270803  1  -1.225568  0  -0.603823  -0.627414  0  3.314476  0
N  N187  1  0.87071648  0.23510412  0.27339873  1  -1.192985  0  -0.602894  -0.627692  0  3.3182  0
O  O188  1  0.00556587  0.99361749  0.99525176  1  -1.206261  0  -0.576436  -1.030436  0  2.552164  0
O  O189  1  0.04675209  0.88101114  0.90821536  1  -1.171598  0  -0.317587  -0.547363  0  2.319493  0
O  O190  1  0.94301331  0.96139156  0.93525878  1  -1.184045  0  -0.320845  -0.55225  0  2.32683  0
O  O191  1  0.97773082  0.60637178  0.56485340  1  -1.173129  0  -0.318272  -0.547239  0  2.323828  0
O  O192  1  0.03504532  0.52483329  0.58528541  1  -1.174338  0  -0.320798  -0.551165  0  2.32994  0
O  O193  1  0.84948928  0.06325172  0.11006585  1  -1.169297  0  -0.317622  -0.549937  0  2.310422  0
O  O194  1  0.85304794  0.08591714  0.02949958  1  -1.186766  0  -0.32204  -0.552637  0  2.340178  0
O  O195  1  0.16127806  0.41692444  0.37792067  1  -1.163395  0  -0.316162  -0.545794  0  2.316397  0
O  O196  1  0.15922666  0.43468477  0.45968767  1  -1.192233  0  -0.321564  -0.554651  0  2.337135  0
O  O197  1  0.04316041  0.07412754  0.92062317  1  -1.168767  0  -0.316656  -0.549744  0  2.303432  0
O  O198  1  0.98153790  0.05228480  0.90287472  1  -1.174359  0  -0.323795  -0.556065  0  2.346416  0
O  O199  1  0.96285776  0.41652880  0.57368954  1  -1.17147  0  -0.316359  -0.549574  0  2.303422  0
O  O200  1  0.06342832  0.39985599  0.55231813  1  -1.175478  0  -0.324816  -0.557162  0  2.34585  0
O  O201  1  0.97086916  0.95193886  0.11032072  1  -1.172519  0  -0.316956  -0.547002  0  2.318561  0
O  O202  1  0.02693281  0.87683178  0.02954156  1  -1.183195  0  -0.321486  -0.554443  0  2.339127  0
O  O203  1  0.04901712  0.53948573  0.38365942  1  -1.183805  0  -0.318862  -0.551902  0  2.324144  0
O  O204  1  0.94927014  0.61377212  0.46488180  1  -1.181586  0  -0.320798  -0.55147  0  2.334995  0
O  O205  1  0.16261860  0.95347567  0.91318695  1  -1.167984  0  -0.315714  -0.548627  0  2.304635  0
O  O206  1  0.15409210  0.87660807  0.93114627  1  -1.180543  0  -0.322483  -0.555181  0  2.352145  0
O  O207  1  0.84883718  0.52680401  0.56561552  1  -1.173611  0  -0.315914  -0.547355  0  2.296431  0
O  O208  1  0.85452619  0.60304979  0.58558186  1  -1.183842  0  -0.323465  -0.558295  0  2.352467  0
O  O209  1  0.05308734  0.06497118  0.03183803  1  -1.180754  0  -0.317024  -0.54942  0  2.308351  0
O  O210  1  0.96011542  0.07385186  0.11024521  1  -1.169517  0  -0.321175  -0.555626  0  2.341559  0
O  O211  1  0.97160793  0.41111154  0.45207584  1  -1.175476  0  -0.317171  -0.550602  0  2.311226  0
O  O212  1  0.03607062  0.43211543  0.37669461  1  -1.169852  0  -0.322431  -0.55614  0  2.344547  0
O  O213  1  0.00487004  0.49228681  0.49426117  1  -1.22326  0  -0.576197  -1.030182  0  2.551708  0
