# generated using pymatgen
data_CdH21C25(NO2)3
_symmetry_space_group_name_H-M   'P 1'
_cell_length_a   5.59090941
_cell_length_b   17.44681901
_cell_length_c   31.74682863
_cell_angle_alpha   83.63710812
_cell_angle_beta   84.92830840
_cell_angle_gamma   80.73659564
_symmetry_Int_Tables_number   1
_chemical_formula_structural   CdH21C25(NO2)3
_chemical_formula_sum   'Cd4 H84 C100 N12 O24'
_cell_volume   3029.61763774
_cell_formula_units_Z   4
loop_
 _symmetry_equiv_pos_site_id
 _symmetry_equiv_pos_as_xyz
  1  'x, y, z'
loop_
 _atom_site_type_symbol
 _atom_site_label
 _atom_site_symmetry_multiplicity
 _atom_site_fract_x
 _atom_site_fract_y
 _atom_site_fract_z
 _atom_site_occupancy
 _atom_site_pbe_bader_charge
 _atom_site_pbe_bader_spin_density
 _atom_site_pbe_cm5_charge
 _atom_site_pbe_ddec_charge
 _atom_site_pbe_ddec_spin_density
 _atom_site_pbe_ddec_sum_bond_order
 _atom_site_pbe_magmom
Cd  Cd0  1  0.43749582  0.00654761  0.25047670  1  1.258056  0  0.760935  0.859456  0  2.159513  0
Cd  Cd1  1  0.69426589  0.49356410  0.24953459  1  1.26032  0  0.760844  0.859573  0  2.156329  0
Cd  Cd2  1  0.56249792  0.99344117  0.74952694  1  1.258418  0  0.76094  0.859357  0  2.159487  0
Cd  Cd3  1  0.30570781  0.50643284  0.75046886  1  1.260433  0  0.760905  0.859573  0  2.156406  0
H  H4  1  0.68080337  0.24809230  0.98687683  1  0.487662  0  0.32249  0.2898  0  0.932608  0
H  H5  1  0.91669226  0.25131442  0.51303363  1  0.486823  0  0.322091  0.288277  0  0.93435  0
H  H6  1  0.31916646  0.75190523  0.01312665  1  0.487737  0  0.32254  0.289798  0  0.932812  0
H  H7  1  0.08339750  0.74869470  0.48696199  1  0.487056  0  0.322169  0.288368  0  0.934699  0
H  H8  1  0.79044392  0.85185233  0.23979543  1  0.100198  0  0.115223  0.089595  0  1.014912  0
H  H9  1  0.88176589  0.64790627  0.26019631  1  0.126986  0  0.115022  0.089251  0  1.015472  0
H  H10  1  0.20955027  0.14814284  0.76020589  1  0.100182  0  0.115294  0.089753  0  1.014909  0
H  H11  1  0.11821575  0.35208132  0.73980604  1  0.127291  0  0.114986  0.08925  0  1.015316  0
H  H12  1  0.89360010  0.74283356  0.19217194  1  0.063167  0  0.106891  0.110498  0  1.016807  0
H  H13  1  0.82970198  0.75681070  0.30784011  1  0.067112  0  0.107148  0.110709  0  1.015976  0
H  H14  1  0.10638177  0.25716102  0.80782901  1  0.062895  0  0.106919  0.110498  0  1.016776  0
H  H15  1  0.17030557  0.24318205  0.69215484  1  0.067102  0  0.107142  0.110715  0  1.015893  0
H  H16  1  0.60004535  0.72999400  0.13944418  1  0.080603  0  0.104692  0.099532  0  1.03231  0
H  H17  1  0.47122404  0.76993054  0.36075637  1  0.075638  0  0.104378  0.099358  0  1.031646  0
H  H18  1  0.39994259  0.27000291  0.86055651  1  0.08084  0  0.104745  0.099599  0  1.032253  0
H  H19  1  0.52878795  0.23007976  0.63924052  1  0.075788  0  0.104398  0.099399  0  1.031644  0
H  H20  1  0.20767630  0.82501418  0.13711604  1  0.066487  0  0.10616  0.108939  0  1.011033  0
H  H21  1  0.17081313  0.67525155  0.36325045  1  0.077177  0  0.105934  0.108323  0  1.009563  0
H  H22  1  0.79231614  0.17498100  0.86288626  1  0.066282  0  0.106101  0.108934  0  1.010993  0
H  H23  1  0.82917018  0.32476289  0.63675044  1  0.077201  0  0.105922  0.108386  0  1.009599  0
H  H24  1  0.13321930  0.92937877  0.18675792  1  0.151026  0  0.114526  0.092236  0  1.043947  0
H  H25  1  0.24902363  0.57092389  0.31357946  1  0.127034  0  0.115193  0.092718  0  1.042884  0
H  H26  1  0.86673995  0.07060364  0.81325051  1  0.151241  0  0.114578  0.092354  0  1.043764  0
H  H27  1  0.75093624  0.42908359  0.68642607  1  0.126999  0  0.115196  0.092753  0  1.042813  0
H  H28  1  0.75011290  0.35614145  0.84504026  1  0.106419  0  0.103597  0.110115  0  1.02145  0
H  H29  1  0.95180358  0.14366126  0.65490268  1  0.116418  0  0.10365  0.110002  0  1.022438  0
H  H30  1  0.24982792  0.64384085  0.15495904  1  0.105888  0  0.103557  0.110067  0  1.021476  0
H  H31  1  0.04823618  0.85632799  0.34509226  1  0.116062  0  0.103649  0.109951  0  1.022427  0
H  H32  1  0.63153573  0.27920772  0.91288199  1  0.056701  0  0.102244  0.107291  0  1.026001  0
H  H33  1  0.82401418  0.22014661  0.58693843  1  0.0656  0  0.102177  0.106863  0  1.026307  0
H  H34  1  0.36844095  0.72077520  0.08712107  1  0.05702  0  0.102275  0.107253  0  1.025887  0
H  H35  1  0.17606436  0.77986370  0.41305951  1  0.06509  0  0.102274  0.107008  0  1.026219  0
H  H36  1  0.20901622  0.35067461  0.97295648  1  0.088535  0  0.105011  0.120636  0  1.005063  0
H  H37  1  0.53423344  0.14888687  0.52705947  1  0.094922  0  0.104902  0.120747  0  1.004552  0
H  H38  1  0.79093297  0.64933160  0.02704017  1  0.088371  0  0.104963  0.12072  0  1.004878  0
H  H39  1  0.46585131  0.85112234  0.47294378  1  0.09501  0  0.104952  0.120842  0  1.004428  0
H  H40  1  0.33208387  0.42410336  0.90466865  1  0.100257  0  0.104845  0.11166  0  1.004198  0
H  H41  1  0.66230427  0.07566626  0.59541158  1  0.103988  0  0.105146  0.112824  0  1.003093  0
H  H42  1  0.66784453  0.57590108  0.09532691  1  0.099656  0  0.104825  0.111677  0  1.004257  0
H  H43  1  0.33775452  0.92434058  0.40458976  1  0.104455  0  0.105158  0.112908  0  1.002874  0
H  H44  1  0.54647613  0.24947877  0.05142824  1  0.088875  0  0.104075  0.105257  0  1.019147  0
H  H45  1  0.84814127  0.25029243  0.44844700  1  0.064608  0  0.104287  0.105346  0  1.020437  0
H  H46  1  0.45349824  0.75052115  0.94858005  1  0.089408  0  0.104046  0.105233  0  1.01909  0
H  H47  1  0.15197319  0.74970270  0.55155130  1  0.064131  0  0.104331  0.105499  0  1.020372  0
H  H48  1  0.39369808  0.17984761  0.11799653  1  0.092552  0  0.104688  0.10467  0  1.022623  0
H  H49  1  0.69272458  0.32021837  0.38190301  1  0.096113  0  0.104383  0.103276  0  1.022893  0
H  H50  1  0.60627641  0.82015581  0.88201121  1  0.09249  0  0.104623  0.104515  0  1.022653  0
H  H51  1  0.30737790  0.67977908  0.61809346  1  0.095549  0  0.1044  0.103417  0  1.02299  0
H  H52  1  0.07954112  0.02939868  0.12569371  1  0.11055  0  0.10431  0.108278  0  1.01451  0
H  H53  1  0.23570852  0.47041332  0.37449024  1  0.103376  0  0.10484  0.108651  0  1.014472  0
H  H54  1  0.92043333  0.97060126  0.87431615  1  0.110375  0  0.104347  0.108361  0  1.014571  0
H  H55  1  0.76434404  0.52960698  0.62551285  1  0.101667  0  0.104981  0.108829  0  1.014287  0
H  H56  1  0.23611749  0.09831467  0.05786622  1  0.101866  0  0.106918  0.111514  0  0.999934  0
H  H57  1  0.39334551  0.40105578  0.44223938  1  0.092359  0  0.106835  0.111611  0  0.999427  0
H  H58  1  0.76386455  0.90169230  0.94214589  1  0.101881  0  0.106907  0.111501  0  1.0  0
H  H59  1  0.60674401  0.59895046  0.55775989  1  0.092417  0  0.106816  0.111515  0  0.999635  0
H  H60  1  0.12103114  0.09549502  0.31818286  1  0.124453  0  0.120541  0.101904  0  0.991231  0
H  H61  1  0.53395496  0.40489552  0.18162747  1  0.119735  0  0.120397  0.102251  0  0.98934  0
H  H62  1  0.87898586  0.90449785  0.68182138  1  0.124219  0  0.120514  0.101936  0  0.991082  0
H  H63  1  0.46603780  0.59510602  0.81836968  1  0.119869  0  0.120345  0.102147  0  0.989254  0
H  H64  1  0.04703137  0.21854124  0.35438831  1  0.079241  0  0.102633  0.106298  0  1.027196  0
H  H65  1  0.61945286  0.28189992  0.14538174  1  0.076216  0  0.10283  0.106936  0  1.026857  0
H  H66  1  0.95291642  0.78147416  0.64559612  1  0.080219  0  0.102562  0.10624  0  1.027203  0
H  H67  1  0.38054540  0.71810511  0.85461447  1  0.075963  0  0.102835  0.106926  0  1.026968  0
H  H68  1  0.34573045  0.31397878  0.33790005  1  0.109348  0  0.105848  0.105691  0  1.024436  0
H  H69  1  0.99730857  0.18634655  0.16181271  1  0.109789  0  0.105771  0.105757  0  1.024387  0
H  H70  1  0.65418123  0.68604700  0.66207203  1  0.108954  0  0.105802  0.105799  0  1.024332  0
H  H71  1  0.00268698  0.81365329  0.83818797  1  0.109766  0  0.105752  0.105749  0  1.02438  0
H  H72  1  0.70138660  0.28153605  0.28658558  1  0.12963  0  0.103201  0.109824  0  1.038412  0
H  H73  1  0.26949591  0.21872475  0.21305007  1  0.096029  0  0.1039  0.110983  0  1.038746  0
H  H74  1  0.29854296  0.71847929  0.71339350  1  0.129703  0  0.103272  0.109807  0  1.038256  0
H  H75  1  0.73049284  0.78127800  0.78694991  1  0.096012  0  0.103962  0.111055  0  1.038778  0
H  H76  1  0.74949501  0.15529090  0.25307577  1  0.112089  0  0.111237  0.082738  0  1.033878  0
H  H77  1  0.15751469  0.34491790  0.24661836  1  0.102585  0  0.110551  0.082148  0  1.032418  0
H  H78  1  0.25047885  0.84470826  0.74691682  1  0.112081  0  0.11122  0.082748  0  1.033832  0
H  H79  1  0.84248120  0.65508483  0.75338055  1  0.102559  0  0.110548  0.082109  0  1.032561  0
H  H80  1  0.94808817  0.02976962  0.22932658  1  0.649837  0  0.289031  0.383661  0  0.963135  0
H  H81  1  0.20678903  0.47062312  0.27074694  1  0.649628  0  0.288063  0.382499  0  0.964825  0
H  H82  1  0.05191040  0.97022379  0.77067415  1  0.649872  0  0.288992  0.383638  0  0.963179  0
H  H83  1  0.79315837  0.52939132  0.72925457  1  0.650202  0  0.288068  0.382517  0  0.964751  0
H  H84  1  0.94736709  0.99232252  0.27656480  1  0.628093  0  0.291179  0.392643  0  0.943953  0
H  H85  1  0.21621142  0.50771886  0.22344166  1  0.656583  0  0.291335  0.392727  0  0.943719  0
H  H86  1  0.05263106  0.00767556  0.72343532  1  0.628202  0  0.291217  0.392762  0  0.943762  0
H  H87  1  0.78377918  0.49226808  0.77655459  1  0.656515  0  0.291318  0.3927  0  0.943746  0
C  C88  1  0.66770293  0.84286136  0.21652925  1  0.489501  0  0.045267  0.090064  0  3.950327  0
C  C89  1  0.72712207  0.65701256  0.28353748  1  0.465618  0  0.0454  0.090658  0  3.952226  0
C  C90  1  0.33227729  0.15712914  0.78347230  1  0.489653  0  0.04524  0.089706  0  3.950718  0
C  C91  1  0.27287013  0.34297909  0.71646285  1  0.465452  0  0.045338  0.090484  0  3.952293  0
C  C92  1  0.72364555  0.78309540  0.18999975  1  0.040867  0  -0.084686  -0.130217  0  3.973214  0
C  C93  1  0.69752634  0.71671311  0.31007329  1  0.0158  0  -0.085329  -0.130499  0  3.976114  0
C  C94  1  0.27633188  0.21689681  0.80999828  1  0.041186  0  -0.084795  -0.130176  0  3.973164  0
C  C95  1  0.30248350  0.28328258  0.68992300  1  0.015792  0  -0.085252  -0.13039  0  3.97612  0
C  C96  1  0.55856430  0.77605578  0.16071609  1  -0.058593  0  -0.067177  -0.024582  0  3.950794  0
C  C97  1  0.49648768  0.72391330  0.33946332  1  -0.025449  0  -0.066916  -0.025369  0  3.952741  0
C  C98  1  0.44141370  0.22393939  0.83928488  1  -0.059506  0  -0.067227  -0.024736  0  3.950472  0
C  C99  1  0.50352073  0.27608941  0.66053443  1  -0.026208  0  -0.066975  -0.025365  0  3.952698  0
C  C100  1  0.34243095  0.82860603  0.15932541  1  0.013569  0  -0.087928  -0.13598  0  3.983285  0
C  C101  1  0.33113469  0.67153258  0.34094483  1  -0.024575  0  -0.087766  -0.135062  0  3.981639  0
C  C102  1  0.65755114  0.17138795  0.84067463  1  0.015246  0  -0.087837  -0.135912  0  3.983232  0
C  C103  1  0.66886059  0.32847543  0.65905533  1  -0.023965  0  -0.087834  -0.135324  0  3.981596  0
C  C104  1  0.29934568  0.88671881  0.18706143  1  0.399807  0  0.04441  0.085159  0  3.936016  0
C  C105  1  0.37314549  0.61344353  0.31318865  1  0.441955  0  0.043667  0.085504  0  3.932228  0
C  C106  1  0.70061719  0.11326707  0.81294451  1  0.398655  0  0.044261  0.084847  0  3.935906  0
C  C107  1  0.62682671  0.38656043  0.68681469  1  0.441086  0  0.043604  0.085428  0  3.932172  0
C  C108  1  0.14995071  0.42924015  0.82865184  1  1.55056  0  0.191759  0.559174  0  4.230216  0
C  C109  1  0.40834867  0.07060884  0.67138352  1  1.560336  0  0.191383  0.558007  0  4.232397  0
C  C110  1  0.84998675  0.57076084  0.17134819  1  1.549765  0  0.191842  0.559439  0  4.229498  0
C  C111  1  0.59165786  0.92938692  0.32861850  1  1.560694  0  0.191395  0.557866  0  4.232369  0
C  C112  1  0.05560769  0.39188715  0.87018201  1  -0.011459  0  -0.026629  -0.053208  0  3.98819  0
C  C113  1  0.31857843  0.10791937  0.62981933  1  -0.040067  0  -0.026446  -0.052246  0  3.987429  0
C  C114  1  0.94432640  0.60810566  0.12981736  1  -0.01159  0  -0.026459  -0.053059  0  3.987933  0
C  C115  1  0.68145568  0.89208218  0.37017805  1  -0.040024  0  -0.026519  -0.052322  0  3.987254  0
C  C116  1  0.85311903  0.35296593  0.87294114  1  -0.065032  0  -0.083071  -0.077029  0  3.983435  0
C  C117  1  0.07967957  0.14673536  0.62700673  1  -0.067308  0  -0.083163  -0.077147  0  3.985031  0
C  C118  1  0.14681702  0.64702280  0.12705909  1  -0.064636  0  -0.083001  -0.076848  0  3.983401  0
C  C119  1  0.92037820  0.85326149  0.37298866  1  -0.068624  0  -0.083025  -0.076924  0  3.984481  0
C  C120  1  0.78637504  0.31067893  0.91076344  1  0.003949  0  -0.099901  -0.199025  0  3.98472  0
C  C121  1  0.00847205  0.18882438  0.58913538  1  -0.007269  0  -0.100301  -0.198635  0  3.986665  0
C  C122  1  0.21357877  0.68930694  0.08924108  1  0.004912  0  -0.100033  -0.199133  0  3.984777  0
C  C123  1  0.99160284  0.81118591  0.41086136  1  -0.005426  0  -0.100489  -0.198803  0  3.986901  0
C  C124  1  0.91883989  0.30740396  0.94664281  1  0.315783  0  0.095705  0.251715  0  4.031102  0
C  C125  1  0.17377077  0.19203487  0.55327748  1  0.313978  0  0.095842  0.25129  0  4.033259  0
C  C126  1  0.08112288  0.69258949  0.05336075  1  0.315147  0  0.095842  0.251807  0  4.030734  0
C  C127  1  0.82633973  0.80797252  0.44672104  1  0.312952  0  0.095963  0.25136  0  4.033145  0
C  C128  1  0.11191407  0.35059560  0.94480439  1  -0.06006  0  -0.099778  -0.18471  0  3.984203  0
C  C129  1  0.40856184  0.14899446  0.55517908  1  -0.045681  0  -0.099742  -0.185261  0  3.984933  0
C  C130  1  0.88802614  0.64940714  0.05519517  1  -0.059823  0  -0.099714  -0.184836  0  3.983938  0
C  C131  1  0.59152725  0.85101297  0.44482264  1  -0.045568  0  -0.100073  -0.1856  0  3.984575  0
C  C132  1  0.17901870  0.39191935  0.90680616  1  -0.01665  0  -0.086095  -0.088087  0  4.009314  0
C  C133  1  0.47901009  0.10779034  0.59321663  1  -0.014847  0  -0.086476  -0.089678  0  4.00795  0
C  C134  1  0.82091233  0.60807988  0.09319253  1  -0.016343  0  -0.08627  -0.088314  0  4.009532  0
C  C135  1  0.52107642  0.89221127  0.40678647  1  -0.014864  0  -0.0863  -0.08964  0  4.007936  0
C  C136  1  0.01410829  0.22152583  0.01205468  1  1.334109  0  0.240755  0.48387  0  4.11272  0
C  C137  1  0.24869438  0.27778432  0.48784899  1  1.338238  0  0.241667  0.484488  0  4.10975  0
C  C138  1  0.98585870  0.77847404  0.98794964  1  1.334168  0  0.240803  0.484009  0  4.112806  0
C  C139  1  0.75141526  0.72222482  0.51214880  1  1.338837  0  0.241248  0.484082  0  4.110375  0
C  C140  1  0.90342735  0.17814950  0.05016371  1  -0.126448  0  -0.015506  -0.03461  0  3.996056  0
C  C141  1  0.13264289  0.32140060  0.44980398  1  -0.084957  0  -0.01631  -0.035114  0  3.993608  0
C  C142  1  0.09653936  0.82185508  0.94984315  1  -0.128029  0  -0.015464  -0.034511  0  3.996065  0
C  C143  1  0.86746592  0.67859512  0.55019470  1  -0.084752  0  -0.016488  -0.035386  0  3.993383  0
C  C144  1  0.66486889  0.20078689  0.06691880  1  0.002263  0  -0.085852  -0.109167  0  3.986184  0
C  C145  1  0.93342689  0.29898808  0.43301736  1  0.016884  0  -0.085537  -0.10848  0  3.986021  0
C  C146  1  0.33510542  0.79921714  0.93309080  1  0.003435  0  -0.08587  -0.109202  0  3.985682  0
C  C147  1  0.06670151  0.70100760  0.56697784  1  0.016358  0  -0.085453  -0.10846  0  3.986163  0
C  C148  1  0.57741380  0.16199021  0.10441017  1  -0.041531  0  -0.081741  -0.091583  0  3.97732  0
C  C149  1  0.84486264  0.33795354  0.39554757  1  -0.052233  0  -0.081668  -0.08929  0  3.976525  0
C  C150  1  0.42254967  0.83800969  0.89559578  1  -0.040993  0  -0.081721  -0.091504  0  3.97736  0
C  C151  1  0.15523548  0.66204567  0.60444981  1  -0.053581  0  -0.081707  -0.089663  0  3.976953  0
C  C152  1  0.72663360  0.10061849  0.12596813  1  0.015789  0  -0.014268  -0.02776  0  3.959015  0
C  C153  1  0.95431331  0.39935300  0.37407226  1  -0.010931  0  -0.014055  -0.029692  0  3.959286  0
C  C154  1  0.27333326  0.89938201  0.87403930  1  0.016369  0  -0.014359  -0.02791  0  3.958925  0
C  C155  1  0.04578147  0.60065321  0.62592440  1  -0.010063  0  -0.014062  -0.029255  0  3.959053  0
C  C156  1  0.96341709  0.07670360  0.10863172  1  -0.067032  0  -0.081763  -0.09249  0  3.968161  0
C  C157  1  0.14980477  0.42308504  0.39147544  1  -0.004268  0  -0.082068  -0.091858  0  3.967312  0
C  C158  1  0.03655299  0.92330158  0.89137630  1  -0.066377  0  -0.081816  -0.092547  0  3.968116  0
C  C159  1  0.85029504  0.57692238  0.60852484  1  -0.004593  0  -0.082021  -0.092041  0  3.967098  0
C  C160  1  0.05088614  0.11509578  0.07109684  1  -0.033111  0  -0.081564  -0.095515  0  3.970969  0
C  C161  1  0.23802392  0.38446678  0.42897267  1  -0.078446  0  -0.081355  -0.095846  0  3.970186  0
C  C162  1  0.94909083  0.88490650  0.92891345  1  -0.033867  0  -0.081575  -0.095586  0  3.971286  0
C  C163  1  0.76206661  0.61553364  0.57102791  1  -0.075214  0  -0.081347  -0.095656  0  3.970158  0
C  C164  1  0.63903966  0.06497234  0.16869437  1  1.572391  0  0.196386  0.557376  0  4.227739  0
C  C165  1  0.87431887  0.43513755  0.33133518  1  1.563368  0  0.196607  0.5575  0  4.229676  0
C  C166  1  0.36089644  0.93502811  0.83130887  1  1.570977  0  0.196697  0.557998  0  4.227511  0
C  C167  1  0.12572791  0.56487160  0.66866338  1  1.563486  0  0.196495  0.557363  0  4.230462  0
C  C168  1  0.24440098  0.13847611  0.31208771  1  0.483524  0  0.046165  0.092491  0  3.940482  0
C  C169  1  0.69431581  0.36188250  0.18770081  1  0.475064  0  0.04705  0.093652  0  3.939624  0
C  C170  1  0.75558253  0.86152602  0.68790956  1  0.483949  0  0.046051  0.092271  0  3.940385  0
C  C171  1  0.30567938  0.63812137  0.81229489  1  0.475031  0  0.047081  0.093726  0  3.939731  0
C  C172  1  0.20521207  0.20686881  0.33216321  1  -0.034696  0  -0.087465  -0.135078  0  3.984862  0
C  C173  1  0.74374733  0.29352482  0.16759671  1  -0.031539  0  -0.08819  -0.137147  0  3.987479  0
C  C174  1  0.79475140  0.79314019  0.66782294  1  -0.035431  0  -0.087432  -0.135002  0  3.984383  0
C  C175  1  0.25625058  0.70647385  0.83240401  1  -0.031259  0  -0.088147  -0.13703  0  3.987396  0
C  C176  1  0.37038607  0.25950941  0.32309652  1  -0.028636  0  -0.068097  -0.027887  0  3.948943  0
C  C177  1  0.95260975  0.24081238  0.17661991  1  -0.067218  0  -0.067057  -0.025923  0  3.949491  0
C  C178  1  0.62954566  0.74050538  0.67688476  1  -0.056131  0  -0.06781  -0.027891  0  3.948317  0
C  C179  1  0.04738669  0.75918919  0.82337907  1  -0.067209  0  -0.067054  -0.025944  0  3.949471  0
C  C180  1  0.56943719  0.24162441  0.29425908  1  -0.122172  0  -0.084544  -0.125722  0  3.960661  0
C  C181  1  0.10512427  0.25865601  0.20541596  1  0.068956  0  -0.085837  -0.12885  0  3.963462  0
C  C182  1  0.43050285  0.75838805  0.70572252  1  -0.095898  0  -0.084721  -0.125621  0  3.96003  0
C  C183  1  0.89486177  0.74134500  0.79458512  1  0.068991  0  -0.08589  -0.128955  0  3.963397  0
C  C184  1  0.59531625  0.17209342  0.27537124  1  0.505126  0  0.041703  0.081339  0  3.960901  0
C  C185  1  0.04239040  0.32815275  0.22434150  1  0.39571  0  0.042908  0.083883  0  3.956875  0
C  C186  1  0.40466344  0.82790866  0.72462169  1  0.50625  0  0.041815  0.081312  0  3.960666  0
C  C187  1  0.95760600  0.67184880  0.77565654  1  0.395748  0  0.042899  0.083894  0  3.956819  0
N  N188  1  0.85287200  0.26149305  0.98383101  1  -1.247848  0  -0.395594  -0.386358  0  3.541684  0
N  N189  1  0.09918696  0.23784443  0.51605805  1  -1.248125  0  -0.395593  -0.384348  0  3.54273  0
N  N190  1  0.14708654  0.73850566  0.01617322  1  -1.247668  0  -0.395763  -0.386412  0  3.541833  0
N  N191  1  0.90090220  0.76216650  0.48394218  1  -1.248127  0  -0.395428  -0.384298  0  3.543987  0
N  N192  1  0.43545581  0.12144400  0.28400000  1  -1.251221  0  -0.32637  -0.237865  0  3.496656  0
N  N193  1  0.84034219  0.37884456  0.21576888  1  -1.239374  0  -0.327474  -0.240299  0  3.4961  0
N  N194  1  0.56454073  0.87855347  0.71599830  1  -1.25124  0  -0.326431  -0.237806  0  3.496807  0
N  N195  1  0.15964802  0.62115528  0.78423283  1  -1.239506  0  -0.32748  -0.240305  0  3.496403  0
N  N196  1  0.45975718  0.89368757  0.21508588  1  -1.243662  0  -0.328279  -0.235379  0  3.501907  0
N  N197  1  0.56823935  0.60634771  0.28505373  1  -1.245155  0  -0.327636  -0.235746  0  3.501419  0
N  N198  1  0.54021549  0.10630003  0.78491694  1  -1.243734  0  -0.328134  -0.234854  0  3.501637  0
N  N199  1  0.43173799  0.39364925  0.71495060  1  -1.244431  0  -0.327458  -0.235461  0  3.501367  0
O  O200  1  0.23678982  0.22152978  0.00670338  1  -1.139599  0  -0.301027  -0.49975  0  2.122346  0
O  O201  1  0.46614762  0.27760237  0.49315997  1  -1.137972  0  -0.301016  -0.50018  0  2.121936  0
O  O202  1  0.76316982  0.77847830  0.99330306  1  -1.140081  0  -0.300975  -0.499809  0  2.122273  0
O  O203  1  0.53397073  0.72241146  0.50684019  1  -1.137764  0  -0.30085  -0.499928  0  2.122045  0
O  O204  1  0.02229780  0.03138652  0.25656577  1  -1.245109  0  -0.590632  -0.757736  0  2.116573  0
O  O205  1  0.31004943  0.46871871  0.24351327  1  -1.27288  0  -0.59007  -0.7566  0  2.11711  0
O  O206  1  0.97769844  0.96860806  0.74343525  1  -1.245236  0  -0.590641  -0.757849  0  2.116459  0
O  O207  1  0.68992123  0.53127708  0.75649031  1  -1.273323  0  -0.59009  -0.756575  0  2.117247  0
O  O208  1  0.79169875  0.01644300  0.18984152  1  -1.204421  0  -0.329024  -0.585465  0  2.261453  0
O  O209  1  0.99883534  0.48402490  0.31038728  1  -1.204178  0  -0.328467  -0.584694  0  2.260407  0
O  O210  1  0.20822019  0.98354876  0.81016762  1  -1.204575  0  -0.329082  -0.585746  0  2.261602  0
O  O211  1  0.00119035  0.51599542  0.68961754  1  -1.204478  0  -0.328557  -0.584927  0  2.260722  0
O  O212  1  0.42016380  0.08540153  0.18250933  1  -1.161944  0  -0.323011  -0.539904  0  2.178613  0
O  O213  1  0.69083830  0.41440366  0.31731408  1  -1.159337  0  -0.323783  -0.540519  0  2.179947  0
O  O214  1  0.57978278  0.91459191  0.81749387  1  -1.161128  0  -0.323109  -0.540045  0  2.178522  0
O  O215  1  0.30923658  0.58558041  0.68268689  1  -1.159059  0  -0.323692  -0.540405  0  2.1804  0
O  O216  1  0.02580729  0.43221708  0.79592274  1  -1.193207  0  -0.336477  -0.591015  0  2.252579  0
O  O217  1  0.25413333  0.06774539  0.70407760  1  -1.196412  0  -0.336164  -0.590205  0  2.253437  0
O  O218  1  0.97414193  0.56776985  0.20407265  1  -1.193011  0  -0.336353  -0.590915  0  2.252537  0
O  O219  1  0.74587907  0.93224854  0.29591750  1  -1.196501  0  -0.336142  -0.59016  0  2.25288  0
O  O220  1  0.35161412  0.45408829  0.82648631  1  -1.161212  0  -0.325852  -0.547439  0  2.170252  0
O  O221  1  0.63274165  0.04566169  0.67359017  1  -1.166266  0  -0.325903  -0.547027  0  2.171593  0
O  O222  1  0.64831273  0.54590863  0.17351481  1  -1.160805  0  -0.326085  -0.547822  0  2.169741  0
O  O223  1  0.36725789  0.95433065  0.32641881  1  -1.166265  0  -0.325875  -0.546855  0  2.171794  0
