# generated using pymatgen
data_CuH6C6(NO3)2
_symmetry_space_group_name_H-M   'P 1'
_cell_length_a   6.66900690
_cell_length_b   6.76744608
_cell_length_c   18.56397506
_cell_angle_alpha   90.00004789
_cell_angle_beta   89.99990821
_cell_angle_gamma   110.58861361
_symmetry_Int_Tables_number   1
_chemical_formula_structural   CuH6C6(NO3)2
_chemical_formula_sum   'Cu4 H24 C24 N8 O24'
_cell_volume   784.31920647
_cell_formula_units_Z   4
loop_
 _symmetry_equiv_pos_site_id
 _symmetry_equiv_pos_as_xyz
  1  'x, y, z'
loop_
 _atom_site_type_symbol
 _atom_site_label
 _atom_site_symmetry_multiplicity
 _atom_site_fract_x
 _atom_site_fract_y
 _atom_site_fract_z
 _atom_site_occupancy
 _atom_site_hle17_ddec_charge
 _atom_site_hle17_ddec_spin_density
 _atom_site_hle17_ddec_sum_bond_order
 _atom_site_hle17_magmom
 _atom_site_hse06_10hf_ddec_charge
 _atom_site_hse06_10hf_ddec_spin_density
 _atom_site_hse06_10hf_ddec_sum_bond_order
 _atom_site_hse06_10hf_magmom
 _atom_site_hse06_ddec_charge
 _atom_site_hse06_ddec_spin_density
 _atom_site_hse06_ddec_sum_bond_order
 _atom_site_hse06_magmom
 _atom_site_pbe_cm5_charge
 _atom_site_pbe_ddec_charge
 _atom_site_pbe_ddec_spin_density
 _atom_site_pbe_ddec_sum_bond_order
 _atom_site_pbe_magmom
Cu  Cu0  1  0.15837470  0.99111941  0.37315672  1  0.918827  0.751598  1.783737  0.557  0.891068  0.829239  2.163655  0.667  0.96915  0.894599  2.107543  0.745  0.755833  0.838802  0.772809  2.205102  0.607
Cu  Cu1  1  0.34162961  0.00889052  0.87315880  1  0.918838  0.751602  1.783728  0.557  0.891092  0.829238  2.163657  0.667  0.969163  0.894601  2.107546  0.745  0.755804  0.838808  0.772813  2.20515  0.607
Cu  Cu2  1  0.84162351  0.00887978  0.62684287  1  0.918874  -0.751598  1.783688  -0.557  0.891133  -0.829244  2.163616  -0.667  0.969191  -0.894593  2.107483  -0.745  0.755853  0.838856  -0.77281  2.205089  -0.607
Cu  Cu3  1  0.65837533  0.99111501  0.12684295  1  0.918795  -0.7516  1.783802  -0.557  0.891069  -0.829234  2.163718  -0.667  0.969121  -0.894598  2.107603  -0.745  0.755823  0.838786  -0.772811  2.205214  -0.607
H  H4  1  0.24515901  0.33525770  0.48220166  1  0.123135  0.001359  0.935796  0.002  0.125053  0.001025  1.004924  0.002  0.128446  0.000724  1.000959  0.001  0.133394  0.122506  0.001341  1.008136  0.002
H  H5  1  0.25483607  0.66474439  0.98220400  1  0.123113  0.001361  0.935874  0.002  0.12501  0.001025  1.005036  0.002  0.128404  0.000723  1.001071  0.001  0.133372  0.122465  0.001341  1.008248  0.002
H  H6  1  0.75483865  0.66473991  0.51779793  1  0.123122  -0.001359  0.935757  -0.002  0.125023  -0.001025  1.004893  -0.002  0.128418  -0.000724  1.000925  -0.001  0.133369  0.12247  -0.001341  1.008113  -0.002
H  H7  1  0.74516119  0.33525637  0.01779721  1  0.12312  -0.001365  0.935893  -0.002  0.125019  -0.001025  1.005036  -0.002  0.128414  -0.000724  1.001071  -0.001  0.133379  0.122473  -0.001342  1.008241  -0.002
H  H8  1  0.06838005  0.27731928  0.26414065  1  0.125577  0.001197  0.946749  0.002  0.129511  0.000895  1.012178  0.002  0.13293  0.00064  1.00867  0.001  0.13234  0.126914  0.001174  1.015083  0.002
H  H9  1  0.43162471  0.72269057  0.76414236  1  0.12557  0.001204  0.946627  0.002  0.12953  0.000895  1.012085  0.002  0.132944  0.00064  1.008584  0.001  0.132316  0.126924  0.001175  1.014985  0.002
H  H10  1  0.93161405  0.72267673  0.73585948  1  0.125544  -0.001202  0.946665  -0.002  0.129476  -0.000895  1.01211  -0.002  0.132896  -0.00064  1.008598  -0.001  0.132323  0.126875  -0.001175  1.015017  -0.002
H  H11  1  0.56837912  0.27731180  0.23585831  1  0.125589  -0.001199  0.946703  -0.002  0.129543  -0.000895  1.012135  -0.002  0.132959  -0.00064  1.008639  -0.001  0.132331  0.126969  -0.001175  1.015005  -0.002
H  H12  1  0.74831723  0.76642877  0.37388103  1  0.429541  0.000429  0.875299  0.0  0.399027  0.000882  0.939221  0.001  0.412138  0.000656  0.920443  0.001  0.288237  0.389597  0.001025  0.952709  0.001
H  H13  1  0.75168621  0.23356939  0.87388216  1  0.429615  0.000429  0.875201  0.0  0.399095  0.000882  0.93913  0.001  0.412205  0.000656  0.920355  0.001  0.28827  0.389664  0.001025  0.952621  0.001
H  H14  1  0.25167987  0.23356727  0.62611802  1  0.42953  -0.000429  0.875308  0.0  0.398973  -0.000882  0.939278  -0.001  0.412083  -0.000656  0.920503  -0.001  0.288225  0.389539  -0.001025  0.952768  -0.001
H  H15  1  0.24831445  0.76642824  0.12611744  1  0.429536  -0.000429  0.875298  0.0  0.398977  -0.000882  0.939273  -0.001  0.412088  -0.000656  0.920497  -0.001  0.28823  0.389544  -0.001025  0.952763  -0.001
H  H16  1  0.79720898  0.94890290  0.43912570  1  0.425625  0.000219  0.881674  0.0  0.397831  0.000717  0.941045  0.001  0.410729  0.000518  0.922556  0.001  0.288051  0.388545  0.000836  0.954354  0.001
H  H17  1  0.70279420  0.05109531  0.93912733  1  0.425583  0.000219  0.881715  0.0  0.397806  0.000717  0.941059  0.001  0.410702  0.000518  0.922575  0.001  0.288055  0.388524  0.000837  0.954362  0.001
H  H18  1  0.20279074  0.05109630  0.56087282  1  0.425641  -0.000219  0.881645  0.0  0.39785  -0.000717  0.941011  -0.001  0.410746  -0.000518  0.922527  -0.001  0.288059  0.388566  -0.000836  0.954314  -0.001
H  H19  1  0.29720702  0.94890390  0.06087388  1  0.4256  -0.000219  0.8817  0.0  0.39781  -0.000717  0.941064  -0.001  0.410706  -0.000518  0.92258  -0.001  0.288055  0.388524  -0.000837  0.954372  -0.001
H  H20  1  0.56383513  0.19246714  0.37855726  1  0.42686  1.5e-05  0.877634  -0.001  0.394506  0.000575  0.944635  0.0  0.408007  0.000368  0.925362  0.0  0.286384  0.3848  0.000717  0.958492  0.0
H  H21  1  0.93616679  0.80753101  0.87855953  1  0.42696  1.6e-05  0.877503  -0.001  0.394611  0.000575  0.944488  0.0  0.408111  0.000369  0.925216  0.0  0.286417  0.384923  0.000717  0.958316  0.0
H  H22  1  0.43616213  0.80753362  0.62144234  1  0.426946  -1.6e-05  0.877518  0.001  0.394601  -0.000575  0.9445  0.0  0.4081  -0.000368  0.92523  0.0  0.286433  0.384907  -0.000717  0.958334  0.0
H  H23  1  0.06383537  0.19246663  0.12144275  1  0.426841  -1.6e-05  0.877657  0.001  0.394488  -0.000575  0.944657  0.0  0.407986  -0.000368  0.925389  0.0  0.286394  0.384791  -0.000717  0.958499  0.0
H  H24  1  0.51554510  0.00991313  0.31367728  1  0.422275  -0.000127  0.880727  -0.001  0.393118  0.000582  0.943821  0.0  0.405985  0.000405  0.925341  0.0  0.288707  0.383796  0.000692  0.957187  0.001
H  H25  1  0.98446009  0.99008499  0.81367851  1  0.422288  -0.000127  0.880696  -0.001  0.39316  0.000582  0.943756  0.0  0.406017  0.000405  0.925282  0.0  0.288736  0.38384  0.000692  0.957118  0.001
H  H26  1  0.48445556  0.99008450  0.68632285  1  0.42223  0.000127  0.880765  0.001  0.39311  -0.000582  0.943822  0.0  0.405967  -0.000405  0.925349  0.0  0.288716  0.383789  -0.000693  0.957186  -0.001
H  H27  1  0.01554207  0.00991265  0.18632324  1  0.42225  0.000127  0.880717  0.001  0.393136  -0.000582  0.943781  0.0  0.405994  -0.000405  0.925303  0.0  0.288724  0.383815  -0.000692  0.957144  -0.001
C  C28  1  0.26843837  0.74921956  0.50054855  1  0.61893  0.002273  3.950129  0.003  0.563885  0.001586  4.256607  0.002  0.596557  0.001183  4.251594  0.002  0.211185  0.54199  0.002029  4.258692  0.003
C  C29  1  0.23156074  0.25078376  0.00055050  1  0.619046  0.002272  3.950161  0.003  0.563982  0.001585  4.256635  0.002  0.596654  0.001183  4.25162  0.002  0.211212  0.542103  0.002029  4.258686  0.003
C  C30  1  0.73155984  0.25077964  0.49944997  1  0.619075  -0.002266  3.949995  -0.003  0.564038  -0.001586  4.256468  -0.002  0.596711  -0.001183  4.251451  -0.002  0.21124  0.542156  -0.002029  4.258528  -0.003
C  C31  1  0.76844159  0.74921861  0.99945071  1  0.619059  -0.002263  3.950016  -0.003  0.564028  -0.001586  4.256475  -0.002  0.596698  -0.001184  4.251458  -0.002  0.211245  0.542142  -0.002029  4.258542  -0.003
C  C32  1  0.21599791  0.61367080  0.43311579  1  0.0846  0.001857  3.653663  0.002  0.088238  0.00246  3.902902  0.002  0.087126  0.001211  3.919278  0.001  0.133977  0.088088  0.003745  3.892973  0.004
C  C33  1  0.28400093  0.38633285  0.93311694  1  0.084508  0.001885  3.653924  0.002  0.088225  0.00246  3.903046  0.002  0.087111  0.001212  3.919429  0.001  0.133978  0.088082  0.003745  3.893098  0.004
C  C34  1  0.78400180  0.38632840  0.56688327  1  0.084641  -0.001873  3.653775  -0.002  0.088264  -0.002461  3.903019  -0.002  0.087142  -0.00121  3.919413  -0.001  0.134012  0.088119  -0.003746  3.893065  -0.004
C  C35  1  0.71599934  0.61366793  0.06688265  1  0.084582  -0.001879  3.653772  -0.002  0.088242  -0.002462  3.902955  -0.002  0.08713  -0.001209  3.919338  -0.001  0.133989  0.088103  -0.003746  3.893005  -0.004
C  C36  1  0.20955828  0.40507428  0.43320356  1  0.119728  0.00145  3.558811  0.002  0.078763  0.002246  3.817976  0.002  0.088132  0.000978  3.82938  0.001  0.081309  0.072354  0.003525  3.811312  0.004
C  C37  1  0.29043945  0.59492621  0.93320531  1  0.119696  0.001425  3.559027  0.002  0.078761  0.002247  3.818119  0.002  0.08811  0.000978  3.829517  0.001  0.081274  0.072351  0.003525  3.811455  0.004
C  C38  1  0.79043938  0.59492333  0.56679657  1  0.119652  -0.001446  3.55897  -0.002  0.07874  -0.002246  3.818076  -0.002  0.088114  -0.000978  3.829482  -0.001  0.0813  0.07234  -0.003525  3.811393  -0.004
C  C39  1  0.70956327  0.40507300  0.06679536  1  0.11971  -0.001413  3.558986  -0.002  0.07882  -0.002247  3.818092  -0.002  0.088164  -0.000978  3.829474  -0.001  0.081288  0.072406  -0.003525  3.811424  -0.004
C  C40  1  0.11118913  0.37260040  0.31304882  1  0.117718  0.001355  3.540513  0.002  0.07909  0.002221  3.793759  0.002  0.088267  0.000961  3.804811  0.001  0.081678  0.072888  0.003482  3.787323  0.003
C  C41  1  0.38881321  0.62740318  0.81305053  1  0.117895  0.001307  3.540301  0.002  0.079152  0.002221  3.79369  0.002  0.088313  0.000961  3.80474  0.001  0.081744  0.072971  0.003482  3.787239  0.003
C  C42  1  0.88880947  0.62739565  0.68695023  1  0.117831  -0.001328  3.54049  -0.002  0.079174  -0.002221  3.793728  -0.002  0.088354  -0.000961  3.804785  -0.001  0.081733  0.072976  -0.003482  3.787284  -0.003
C  C43  1  0.61118896  0.37259446  0.18694960  1  0.11782  -0.001331  3.540328  -0.002  0.079174  -0.002222  3.793645  -0.002  0.088323  -0.00096  3.804695  -0.001  0.081751  0.072961  -0.003482  3.787188  -0.003
C  C44  1  0.12333796  0.58318275  0.31233995  1  0.088185  0.001523  3.658676  0.002  0.091419  0.002253  3.908019  0.002  0.09071  0.001003  3.924265  0.001  0.134368  0.090985  0.003543  3.898143  0.003
C  C45  1  0.37666494  0.41682240  0.81234268  1  0.088194  0.001545  3.658694  0.002  0.091466  0.002254  3.908051  0.002  0.090755  0.001002  3.924301  0.001  0.134382  0.091021  0.003543  3.898193  0.003
C  C46  1  0.87665970  0.41681486  0.68765749  1  0.088041  -0.001534  3.658803  -0.002  0.091329  -0.002254  3.908099  -0.002  0.090618  -0.001002  3.924347  -0.001  0.134267  0.090892  -0.003543  3.898225  -0.003
C  C47  1  0.62333683  0.58317838  0.18765853  1  0.088197  -0.001543  3.658596  -0.002  0.091406  -0.002252  3.907982  -0.002  0.090694  -0.001002  3.924236  -0.001  0.134356  0.090971  -0.003543  3.898108  -0.003
C  C48  1  0.09882871  0.69475476  0.24367580  1  0.614347  0.002343  3.959206  0.003  0.556181  0.001571  4.270908  0.002  0.58877  0.001167  4.265934  0.002  0.208374  0.5343  0.002007  4.272888  0.003
C  C49  1  0.40117202  0.30525191  0.74367740  1  0.614259  0.002345  3.959317  0.003  0.556147  0.00157  4.270933  0.002  0.588738  0.001168  4.265957  0.002  0.208366  0.534254  0.002007  4.272944  0.003
C  C50  1  0.90117195  0.30524287  0.75632325  1  0.614377  -0.002344  3.959154  -0.003  0.556206  -0.001571  4.270842  -0.002  0.588796  -0.001168  4.265868  -0.002  0.208365  0.534322  -0.002007  4.272838  -0.003
C  C51  1  0.59882992  0.69475361  0.25632435  1  0.614262  -0.002347  3.95922  -0.003  0.556182  -0.001571  4.270827  -0.002  0.588772  -0.001167  4.265849  -0.002  0.208378  0.534297  -0.002007  4.272816  -0.003
N  N52  1  0.17037490  0.69750102  0.37280222  1  -0.245033  0.068263  3.325817  0.087  -0.211744  0.047409  3.59439  0.064  -0.231228  0.037971  3.615217  0.054  -0.310119  -0.199391  0.053158  3.58189  0.069
N  N53  1  0.32962569  0.30250259  0.87280440  1  -0.245002  0.068242  3.325973  0.087  -0.21176  0.047408  3.594553  0.064  -0.231245  0.037971  3.615382  0.054  -0.310105  -0.199406  0.053156  3.582057  0.069
N  N54  1  0.82962220  0.30249501  0.62719522  1  -0.244992  -0.068253  3.326002  -0.087  -0.211749  -0.047408  3.594603  -0.064  -0.231226  -0.037973  3.615424  -0.054  -0.310063  -0.199402  -0.053157  3.582107  -0.069
N  N55  1  0.67037553  0.69749662  0.12719627  1  -0.245012  -0.068244  3.325904  -0.087  -0.211735  -0.047409  3.594496  -0.064  -0.231221  -0.037971  3.615325  -0.054  -0.310096  -0.199381  -0.053159  3.581991  -0.069
N  N56  1  0.15263766  0.28553188  0.37368667  1  -0.227659  0.065707  3.271577  0.085  -0.183439  0.046513  3.571437  0.063  -0.207189  0.037575  3.585843  0.054  -0.318506  -0.168625  0.052118  3.562997  0.068
N  N57  1  0.34736443  0.71447175  0.87368843  1  -0.227731  0.06573  3.271583  0.085  -0.183522  0.046513  3.571515  0.063  -0.207222  0.037575  3.585878  0.054  -0.318488  -0.168707  0.052119  3.563071  0.068
N  N58  1  0.84736206  0.71446732  0.62631292  1  -0.227609  -0.065714  3.271692  -0.085  -0.183385  -0.046512  3.571523  -0.063  -0.207142  -0.037575  3.585933  -0.054  -0.318462  -0.168571  -0.052116  3.563073  -0.068
N  N59  1  0.65263884  0.28552905  0.12631116  1  -0.227725  -0.06573  3.271636  -0.085  -0.183599  -0.046513  3.571594  -0.063  -0.20727  -0.037577  3.585931  -0.054  -0.318515  -0.168786  -0.052118  3.563171  -0.068
O  O60  1  0.31166405  0.66507883  0.55612336  1  -0.579754  -0.001306  1.975469  -0.002  -0.528376  -0.000636  2.197202  -0.001  -0.553174  -0.00039  2.190326  -0.001  -0.301669  -0.510496  -0.000839  2.201165  -0.001
O  O61  1  0.18833088  0.33492608  0.05612429  1  -0.579795  -0.001306  1.975546  -0.002  -0.52842  -0.000635  2.197303  -0.001  -0.553217  -0.00039  2.190423  -0.001  -0.301704  -0.510544  -0.000839  2.20126  -0.001
O  O62  1  0.68833171  0.33492192  0.44387569  1  -0.579868  0.001305  1.975439  0.002  -0.528487  0.000635  2.19717  0.001  -0.553284  0.00039  2.190296  0.001  -0.301744  -0.510603  0.000839  2.201129  0.001
O  O63  1  0.81166749  0.66507784  0.94387584  1  -0.579881  0.001299  1.975451  0.002  -0.528492  0.000636  2.197163  0.001  -0.553293  0.000389  2.190296  0.001  -0.301729  -0.51062  0.00084  2.201121  0.001
O  O64  1  0.25863181  0.93251973  0.49436564  1  -0.624492  -0.002816  2.064955  -0.003  -0.576936  -0.001832  2.311892  -0.002  -0.605249  -0.001568  2.300826  -0.001  -0.311245  -0.556321  -0.001873  2.318685  -0.002
O  O65  1  0.24136678  0.06748397  0.99436779  1  -0.624528  -0.002813  2.064941  -0.003  -0.57697  -0.001832  2.311893  -0.002  -0.605285  -0.001568  2.300827  -0.001  -0.311257  -0.556351  -0.001873  2.318661  -0.002
O  O66  1  0.74136395  0.06748102  0.50563126  1  -0.624539  0.002812  2.06495  0.003  -0.576988  0.001833  2.311901  0.002  -0.605297  0.001567  2.300824  0.001  -0.311253  -0.556377  0.001873  2.318685  0.002
O  O67  1  0.75863650  0.93251683  0.00563342  1  -0.624469  0.00281  2.064958  0.003  -0.576966  0.001833  2.311936  0.002  -0.605276  0.001567  2.300866  0.001  -0.311279  -0.556356  0.001873  2.31873  0.002
O  O68  1  0.07648315  0.87246047  0.25149367  1  -0.629732  -0.001845  2.048638  -0.001  -0.579407  -0.001508  2.295128  -0.001  -0.60747  -0.001406  2.28387  -0.001  -0.312383  -0.55906  -0.001317  2.302104  -0.001
O  O69  1  0.42351699  0.12754462  0.75149358  1  -0.629746  -0.001841  2.048725  -0.001  -0.579397  -0.001508  2.295135  -0.001  -0.60746  -0.001405  2.283876  -0.001  -0.31237  -0.559045  -0.001316  2.302128  -0.001
O  O70  1  0.92351957  0.12753874  0.74850646  1  -0.62974  0.001839  2.048538  0.001  -0.579426  0.001509  2.29505  0.001  -0.607489  0.001405  2.28379  0.001  -0.312391  -0.559079  0.001316  2.302038  0.001
O  O71  1  0.57648082  0.87245772  0.24850601  1  -0.629727  0.001838  2.048669  0.001  -0.579376  0.001509  2.295075  0.001  -0.60744  0.001405  2.283823  0.001  -0.312378  -0.559029  0.001316  2.302064  0.001
O  O72  1  0.10802673  0.60318160  0.18537793  1  -0.584332  -0.002503  1.987343  -0.004  -0.531675  -0.00109  2.210611  -0.002  -0.557131  -0.000649  2.205381  -0.001  -0.303954  -0.512987  -0.001576  2.213104  -0.002
O  O73  1  0.39196901  0.39681869  0.68537848  1  -0.584267  -0.002507  1.987378  -0.004  -0.531635  -0.001089  2.210621  -0.002  -0.5571  -0.000649  2.205408  -0.001  -0.303951  -0.512938  -0.001576  2.213116  -0.002
O  O74  1  0.89197337  0.39681445  0.81462113  1  -0.58435  0.002508  1.98739  0.004  -0.531705  0.001089  2.21063  0.002  -0.557165  0.000649  2.205414  0.001  -0.303949  -0.513015  0.001575  2.213129  0.002
O  O75  1  0.60803110  0.60317737  0.31462165  1  -0.584264  0.002512  1.987352  0.004  -0.53168  0.001089  2.210589  0.002  -0.557153  0.000649  2.205395  0.001  -0.303941  -0.512992  0.001576  2.213091  0.002
O  O76  1  0.85808219  0.86082308  0.40822226  1  -0.822997  0.068697  1.975473  0.093  -0.797337  0.047124  2.202902  0.067  -0.831123  0.036918  2.166634  0.055  -0.588433  -0.774181  0.053286  2.228814  0.073
O  O77  1  0.64192222  0.13917826  0.90822342  1  -0.82304  0.068693  1.975433  0.093  -0.797381  0.047122  2.20285  0.067  -0.831171  0.036917  2.166593  0.055  -0.588467  -0.774229  0.053283  2.228771  0.073
O  O78  1  0.14191602  0.13917611  0.59177679  1  -0.822974  -0.068698  1.975436  -0.093  -0.79729  -0.047123  2.202942  -0.067  -0.831064  -0.036919  2.166656  -0.055  -0.588409  -0.774133  -0.053286  2.228859  -0.073
O  O79  1  0.35808010  0.86082411  0.09177725  1  -0.822945  -0.068694  1.975493  -0.093  -0.797251  -0.047121  2.203002  -0.067  -0.831031  -0.036917  2.166724  -0.055  -0.588419  -0.774092  -0.053282  2.228923  -0.073
O  O80  1  0.46217289  0.11346632  0.33875599  1  -0.801362  0.078559  1.989065  0.105  -0.778796  0.052194  2.215667  0.075  -0.814394  0.040309  2.180741  0.06  -0.577544  -0.754534  0.059323  2.240785  0.081
O  O81  1  0.03783330  0.88653573  0.83875907  1  -0.801458  0.078559  1.988929  0.105  -0.77892  0.052195  2.215519  0.075  -0.814502  0.040309  2.180615  0.06  -0.577593  -0.754662  0.059325  2.240623  0.082
O  O82  1  0.53782738  0.88653446  0.66124306  1  -0.801428  -0.078555  1.989036  -0.105  -0.778902  -0.052193  2.21563  -0.075  -0.814477  -0.04031  2.180722  -0.06  -0.57761  -0.754639  -0.059323  2.240737  -0.081
O  O83  1  0.96216942  0.11346349  0.16124322  1  -0.801326  -0.078559  1.989102  -0.105  -0.778793  -0.052194  2.215684  -0.075  -0.814373  -0.04031  2.180791  -0.06  -0.577575  -0.754534  -0.059323  2.240801  -0.081
