# generated using pymatgen
data_ZnH21C22BrN9O4
_symmetry_space_group_name_H-M   'P 1'
_cell_length_a   16.47394463
_cell_length_b   17.92267489
_cell_length_c   17.76387645
_cell_angle_alpha   90.76465714
_cell_angle_beta   97.55685736
_cell_angle_gamma   90.76442470
_symmetry_Int_Tables_number   1
_chemical_formula_structural   ZnH21C22BrN9O4
_chemical_formula_sum   'Zn2 H42 C44 Br2 N18 O8'
_cell_volume   5198.29272684
_cell_formula_units_Z   2
loop_
 _symmetry_equiv_pos_site_id
 _symmetry_equiv_pos_as_xyz
  1  'x, y, z'
loop_
 _atom_site_type_symbol
 _atom_site_label
 _atom_site_symmetry_multiplicity
 _atom_site_fract_x
 _atom_site_fract_y
 _atom_site_fract_z
 _atom_site_occupancy
 _atom_site_pbe_bader_charge
 _atom_site_pbe_bader_spin_density
 _atom_site_pbe_cm5_charge
 _atom_site_pbe_ddec_charge
 _atom_site_pbe_ddec_spin_density
 _atom_site_pbe_ddec_sum_bond_order
 _atom_site_pbe_magmom
Zn  Zn0  1  0.59131073  0.49753854  0.50905995  1  1.283375  0  0.675325  0.836588  0  2.356456  0
Zn  Zn1  1  0.41114793  0.50314762  0.49127593  1  1.295228  0  0.683431  0.856307  0  2.336131  0
H  H2  1  0.00871290  0.41848152  0.49404733  1  0.097405  0  0.100304  0.092588  0  1.031816  0
H  H3  1  0.99222750  0.58779472  0.50202116  1  0.045845  0  0.101145  0.094481  0  1.01995  0
H  H4  1  0.57231467  0.55191326  0.99454520  1  0.045357  0  0.095564  0.085961  0  1.036129  0
H  H5  1  0.42595036  0.44557669  0.00373761  1  0.072137  0  0.101073  0.103634  0  1.013147  0
H  H6  1  0.61437561  0.26600587  0.47851520  1  0.120893  0  0.106113  0.11367  0  1.008831  0
H  H7  1  0.61649860  0.12665104  0.47237972  1  0.076352  0  0.107478  0.111821  0  0.987284  0
H  H8  1  0.37156152  0.11982759  0.53368684  1  0.104897  0  0.107046  0.122833  0  0.993309  0
H  H9  1  0.62556863  0.88685045  0.47167898  1  0.067563  0  0.105255  0.120321  0  0.996533  0
H  H10  1  0.38625073  0.73103318  0.51498587  1  0.130122  0  0.109209  0.116242  0  1.010281  0
H  H11  1  0.37471027  0.86905870  0.51554125  1  0.075313  0  0.109083  0.113367  0  0.985569  0
H  H12  1  0.33427631  0.38867213  0.41160508  1  0.49663  0  0.293299  0.310978  0  1.002847  0
H  H13  1  0.23963785  0.37198147  0.36076001  1  0.438208  0  0.302554  0.294714  0  0.961476  0
H  H14  1  0.05034522  0.38802232  0.39862177  1  0.431925  0  0.290346  0.283938  0  0.987303  0
H  H15  1  0.13320448  0.33401646  0.40787054  1  0.407611  0  0.295054  0.277156  0  0.964477  0
H  H16  1  0.35274865  0.61332051  0.56069671  1  0.4999  0  0.290963  0.30582  0  1.014097  0
H  H17  1  0.29354813  0.60440309  0.63032109  1  0.400307  0  0.292169  0.276114  0  0.974258  0
H  H18  1  0.08086587  0.57926399  0.60578627  1  0.429442  0  0.291573  0.279294  0  0.984096  0
H  H19  1  0.16804098  0.63228250  0.61235272  1  0.419317  0  0.29456  0.282294  0  0.982936  0
H  H20  1  0.85923144  0.35389637  0.42185213  1  0.418426  0  0.293002  0.276704  0  0.956943  0
H  H21  1  0.85971601  0.41982788  0.35797143  1  0.390683  0  0.29168  0.275057  0  0.957973  0
H  H22  1  0.64803005  0.40277604  0.42060579  1  0.456339  0  0.300617  0.312807  0  0.97359  0
H  H23  1  0.73144414  0.37751228  0.38251748  1  0.421311  0  0.298527  0.279253  0  0.977423  0
H  H24  1  0.93315804  0.64651309  0.57842112  1  0.420305  0  0.29594  0.285662  0  0.971934  0
H  H25  1  0.85603151  0.64571384  0.63272739  1  0.422967  0  0.298568  0.291819  0  0.972678  0
H  H26  1  0.66678429  0.58004915  0.61414234  1  0.488411  0  0.297891  0.311702  0  0.981468  0
H  H27  1  0.73007837  0.65062819  0.59788722  1  0.438253  0  0.290547  0.2812  0  0.977709  0
H  H28  1  0.65600480  0.48311620  0.69554820  1  0.46868  0  0.288513  0.295715  0  0.9989  0
H  H29  1  0.69773519  0.44774919  0.77951036  1  0.400322  0  0.290232  0.270585  0  0.971865  0
H  H30  1  0.66972377  0.46898653  0.95042607  1  0.435052  0  0.293054  0.283647  0  0.970848  0
H  H31  1  0.71140532  0.50946077  0.87842331  1  0.442676  0  0.29237  0.282556  0  0.985626  0
H  H32  1  0.36029336  0.48665019  0.66616185  1  0.476498  0  0.283373  0.29153  0  1.029173  0
H  H33  1  0.31544425  0.52301272  0.74003598  1  0.366828  0  0.278477  0.248188  0  1.006621  0
H  H34  1  0.36342860  0.51991540  0.92552526  1  0.414529  0  0.283765  0.261678  0  1.013048  0
H  H35  1  0.31208332  0.48913507  0.84132227  1  0.395438  0  0.29118  0.27588  0  0.991972  0
H  H36  1  0.64523505  0.53270147  0.08020774  1  0.422959  0  0.284306  0.270906  0  1.008919  0
H  H37  1  0.68628537  0.49559168  0.16318211  1  0.411581  0  0.284784  0.273072  0  1.002891  0
H  H38  1  0.64244196  0.51456097  0.33248748  1  0.477727  0  0.282898  0.288397  0  1.012867  0
H  H39  1  0.67625697  0.56034433  0.26040794  1  0.395428  0  0.286209  0.269827  0  0.969795  0
H  H40  1  0.33524480  0.51109768  0.04621192  1  0.382969  0  0.283866  0.266749  0  0.997964  0
H  H41  1  0.29387484  0.52061421  0.12693403  1  0.407547  0  0.288245  0.274085  0  0.982553  0
H  H42  1  0.34497822  0.49518728  0.30766116  1  0.488977  0  0.282112  0.290583  0  1.028578  0
H  H43  1  0.30124458  0.45641621  0.22411164  1  0.421694  0  0.291085  0.278052  0  0.964695  0
C  C44  1  0.50613847  0.49684838  0.64860799  1  1.495365  0  0.210564  0.610519  0  4.11451  0
C  C45  1  0.51092443  0.64582984  0.49888013  1  1.603072  0  0.21737  0.605345  0  4.157102  0
C  C46  1  0.49722405  0.50111328  0.35262317  1  1.504308  0  0.213129  0.618677  0  4.113241  0
C  C47  1  0.49570013  0.35505702  0.50216221  1  1.588389  0  0.21801  0.606108  0  4.170525  0
C  C48  1  0.24803054  0.55042346  0.53156041  1  0.896384  0  0.193259  0.318025  0  4.07146  0
C  C49  1  0.16331552  0.54640676  0.53524578  1  0.396947  0  0.072687  0.099229  0  4.078584  0
C  C50  1  0.11644319  0.48955584  0.49317752  1  0.052726  0  -0.019933  -0.045535  0  4.04153  0
C  C51  1  0.15550042  0.44159502  0.44638692  1  0.429117  0  0.069502  0.084353  0  4.068626  0
C  C52  1  0.23994197  0.45131456  0.44245645  1  0.960768  0  0.202033  0.333431  0  4.102385  0
C  C53  1  0.02942181  0.47669528  0.49696748  1  -0.06006  0  -0.088227  -0.094302  0  3.99229  0
C  C54  1  0.97228739  0.52931138  0.50082526  1  -0.046152  0  -0.092426  -0.105147  0  3.975853  0
C  C55  1  0.84600134  0.56280982  0.55177425  1  0.38328  0  0.068798  0.083414  0  4.081482  0
C  C56  1  0.88521844  0.51537906  0.50428410  1  0.004092  0  -0.012481  -0.018019  0  4.032097  0
C  C57  1  0.83912901  0.45757732  0.46333987  1  0.402379  0  0.055389  0.057054  0  4.020408  0
C  C58  1  0.75535734  0.44965737  0.47051206  1  0.919458  0  0.200597  0.328864  0  4.111788  0
C  C59  1  0.76201938  0.55085758  0.55672868  1  0.984368  0  0.206467  0.339537  0  4.077439  0
C  C60  1  0.50877900  0.49335929  0.73193389  1  0.011864  0  -0.047093  -0.257399  0  3.9573  0
C  C61  1  0.43468586  0.49155891  0.76599905  1  0.416456  0  0.073586  0.173773  0  4.060211  0
C  C62  1  0.43760091  0.49295049  0.84575550  1  0.40349  0  0.06844  0.132888  0  4.07134  0
C  C63  1  0.51350885  0.50054669  0.89268976  1  0.003189  0  -0.028041  -0.063557  0  4.03183  0
C  C64  1  0.58669680  0.49943952  0.85920814  1  0.374323  0  0.063863  0.123259  0  4.076447  0
C  C65  1  0.58545041  0.49312113  0.78004023  1  0.395575  0  0.072583  0.171303  0  4.070727  0
C  C66  1  0.52165343  0.51347266  0.97466277  1  -0.114162  0  -0.09786  -0.106396  0  4.001946  0
C  C67  1  0.47557439  0.48454127  0.02542489  1  -0.025278  0  -0.103038  -0.126646  0  4.009051  0
C  C68  1  0.41384062  0.49602154  0.14296447  1  0.28068  0  0.063157  0.118479  0  4.080429  0
C  C69  1  0.48573275  0.49596621  0.10764325  1  0.061239  0  -0.032223  -0.068739  0  4.038754  0
C  C70  1  0.56274462  0.50230536  0.15389146  1  0.396899  0  0.065525  0.133701  0  4.056534  0
C  C71  1  0.56668762  0.50660411  0.23366872  1  0.415409  0  0.065388  0.158552  0  4.047852  0
C  C72  1  0.49390412  0.50182346  0.26909283  1  -0.016538  0  -0.046843  -0.2548  0  3.967793  0
C  C73  1  0.41663954  0.49715110  0.22252196  1  0.456648  0  0.077383  0.183512  0  4.069953  0
C  C74  1  0.49153684  0.27152110  0.50512301  1  0.046265  0  -0.015955  -0.071495  0  3.928087  0
C  C75  1  0.56105703  0.23284812  0.48890624  1  -0.024992  0  -0.07901  -0.074067  0  3.978493  0
C  C76  1  0.56246586  0.15560812  0.48601723  1  -0.064608  0  -0.084244  -0.132769  0  3.955643  0
C  C77  1  0.49348822  0.11364881  0.50116619  1  0.093661  0  0.003025  0.155256  0  4.117737  0
C  C78  1  0.42430920  0.15159101  0.51995330  1  0.083262  0  -0.089317  -0.184306  0  3.932714  0
C  C79  1  0.42360341  0.22925358  0.52138217  1  -0.157327  0  -0.008967  0.10168  0  3.947862  0
C  C80  1  0.49411402  0.03476461  0.49842151  1  -0.106545  0  -0.039224  -0.096845  0  4.106714  0
C  C81  1  0.49598758  0.96670178  0.49604590  1  -0.276514  0  -0.042007  -0.104466  0  4.107959  0
C  C82  1  0.49983116  0.88795769  0.49443683  1  0.127595  0  0.006172  0.161603  0  4.119354  0
C  C83  1  0.57287120  0.85285397  0.48157070  1  0.067464  0  -0.09067  -0.185757  0  3.931775  0
C  C84  1  0.57835096  0.77537608  0.48180168  1  -0.083951  0  -0.006075  0.110152  0  3.92456  0
C  C85  1  0.51145773  0.72963349  0.49483906  1  -0.022589  0  -0.018038  -0.082299  0  3.913695  0
C  C86  1  0.43856482  0.76603215  0.50604349  1  -0.058027  0  -0.0783  -0.069298  0  3.977765  0
C  C87  1  0.43190665  0.84292037  0.50617105  1  -0.012415  0  -0.083575  -0.133367  0  3.957577  0
Br  Br88  1  0.32850030  0.27421172  0.55192959  1  -0.064721  0  0.014999  -0.071154  0  1.395456  0
Br  Br89  1  0.68245708  0.73876348  0.46261190  1  -0.068576  0  0.012176  -0.082394  0  1.434243  0
N  N90  1  0.28498787  0.50350035  0.48619151  1  -1.253347  0  -0.342482  -0.398396  0  3.456689  0
N  N91  1  0.71794448  0.49595383  0.51616503  1  -1.246087  0  -0.344542  -0.398773  0  3.439372  0
N  N92  1  0.27754672  0.40882816  0.39220788  1  -1.242325  0  -0.597919  -0.634929  0  3.331563  0
N  N93  1  0.11214295  0.38682619  0.39879932  1  -1.197612  0  -0.608853  -0.609937  0  3.310542  0
N  N94  1  0.29412797  0.60667643  0.57309424  1  -1.222209  0  -0.616024  -0.658066  0  3.295572  0
N  N95  1  0.12755101  0.59900030  0.57905970  1  -1.206722  0  -0.610551  -0.611499  0  3.360605  0
N  N96  1  0.87620971  0.40795929  0.41402639  1  -1.165533  0  -0.611305  -0.616497  0  3.290394  0
N  N97  1  0.70935710  0.39305220  0.43107191  1  -1.19846  0  -0.603519  -0.635729  0  3.310514  0
N  N98  1  0.89022918  0.61546231  0.60034471  1  -1.196294  0  -0.610653  -0.61523  0  3.345187  0
N  N99  1  0.72536590  0.59477902  0.60700856  1  -1.242373  0  -0.604659  -0.637834  0  3.300479  0
N  N100  1  0.66156075  0.48786360  0.75315034  1  -1.206494  0  -0.619356  -0.622391  0  3.326729  0
N  N101  1  0.66193917  0.50536452  0.90674675  1  -1.235738  0  -0.613316  -0.624653  0  3.348838  0
N  N102  1  0.35707014  0.48689948  0.72327765  1  -1.202764  0  -0.621587  -0.623002  0  3.346362  0
N  N103  1  0.36457857  0.48808227  0.87791629  1  -1.186925  0  -0.612148  -0.605088  0  3.36976  0
N  N104  1  0.63671186  0.49755370  0.12274036  1  -1.210145  0  -0.61989  -0.622609  0  3.357512  0
N  N105  1  0.64586213  0.51399266  0.27551681  1  -1.240691  0  -0.627019  -0.643119  0  3.313319  0
N  N106  1  0.33569585  0.49266251  0.10007092  1  -1.157562  0  -0.617216  -0.610679  0  3.322519  0
N  N107  1  0.34112624  0.49561481  0.24996950  1  -1.223309  0  -0.618407  -0.62303  0  3.347942  0
O  O108  1  0.57208485  0.51466762  0.62039766  1  -1.181797  0  -0.319261  -0.560824  0  2.37516  0
O  O109  1  0.43849567  0.48314369  0.60563598  1  -1.177062  0  -0.314267  -0.548204  0  2.385654  0
O  O110  1  0.44427849  0.61501147  0.51311328  1  -1.181933  0  -0.31458  -0.559029  0  2.381342  0
O  O111  1  0.57507694  0.61108297  0.48884933  1  -1.163051  0  -0.310584  -0.539679  0  2.406857  0
O  O112  1  0.43352824  0.51946193  0.38244336  1  -1.175108  0  -0.311952  -0.532865  0  2.353115  0
O  O113  1  0.56409595  0.48130415  0.39321096  1  -1.195015  0  -0.321759  -0.568519  0  2.38004  0
O  O114  1  0.56474898  0.38541018  0.52486633  1  -1.162587  0  -0.310556  -0.534016  0  2.315956  0
O  O115  1  0.43139466  0.38904460  0.47480359  1  -1.184497  0  -0.310941  -0.559137  0  2.421568  0
