# generated using pymatgen
data_AlH22(C5O)5
_symmetry_space_group_name_H-M   'P 1'
_cell_length_a   6.66799328
_cell_length_b   22.60376730
_cell_length_c   27.01752417
_cell_angle_alpha   78.12727984
_cell_angle_beta   90.05720617
_cell_angle_gamma   90.01236830
_symmetry_Int_Tables_number   1
_chemical_formula_structural   AlH22(C5O)5
_chemical_formula_sum   'Al4 H88 C100 O20'
_cell_volume   3985.01219622
_cell_formula_units_Z   4
loop_
 _symmetry_equiv_pos_site_id
 _symmetry_equiv_pos_as_xyz
  1  'x, y, z'
loop_
 _atom_site_type_symbol
 _atom_site_label
 _atom_site_symmetry_multiplicity
 _atom_site_fract_x
 _atom_site_fract_y
 _atom_site_fract_z
 _atom_site_occupancy
 _atom_site_pbe_bader_charge
 _atom_site_pbe_bader_spin_density
 _atom_site_pbe_cm5_charge
 _atom_site_pbe_ddec_charge
 _atom_site_pbe_ddec_spin_density
 _atom_site_pbe_ddec_sum_bond_order
 _atom_site_pbe_magmom
Al  Al0  1  0.75844938  0.25137078  0.25086897  1  2.501322  0  0.396558  1.633313  0  2.589701  0
Al  Al1  1  0.24530604  0.74999148  0.74906829  1  2.501138  0  0.399627  1.635742  0  2.58297  0
Al  Al2  1  0.25846073  0.24861717  0.24899668  1  2.500521  0  0.396383  1.632883  0  2.591083  0
Al  Al3  1  0.74530856  0.74990762  0.75085855  1  2.501061  0  0.399761  1.635976  0  2.5816  0
H  H4  1  0.78987946  0.39284549  0.02138141  1  0.066646  0  0.098964  0.102966  0  1.031459  0
H  H5  1  0.16051092  0.61581113  0.98208284  1  0.052616  0  0.098042  0.102106  0  1.036599  0
H  H6  1  0.28891892  0.10704270  0.47854444  1  0.064137  0  0.098969  0.103131  0  1.032041  0
H  H7  1  0.66277228  0.88456755  0.51817782  1  0.037638  0  0.098631  0.102556  0  1.035942  0
H  H8  1  0.69054968  0.10681471  0.05916119  1  0.053483  0  0.096098  0.097581  0  1.022275  0
H  H9  1  0.29971725  0.93977212  0.90577207  1  0.021565  0  0.0953  0.095639  0  1.038848  0
H  H10  1  0.19148899  0.39309494  0.44058604  1  0.050932  0  0.095945  0.097414  0  1.021954  0
H  H11  1  0.79932768  0.56020412  0.59434129  1  0.023079  0  0.095323  0.095589  0  1.039029  0
H  H12  1  0.29434012  0.05106416  0.10191432  1  0.059646  0  0.098042  0.098766  0  1.011576  0
H  H13  1  0.68324687  0.88897171  0.94032065  1  0.042595  0  0.097892  0.097393  0  1.023928  0
H  H14  1  0.79520685  0.44889352  0.39811981  1  0.056267  0  0.098427  0.099164  0  1.010558  0
H  H15  1  0.18267920  0.61074235  0.55946615  1  0.046461  0  0.097991  0.097209  0  1.02423  0
H  H16  1  0.29084153  0.11840059  0.16424864  1  0.105949  0  0.106909  0.106525  0  1.02649  0
H  H17  1  0.69889993  0.82365492  0.87809104  1  0.106373  0  0.106523  0.107287  0  1.02301  0
H  H18  1  0.79180685  0.38151777  0.33581150  1  0.103183  0  0.106884  0.106093  0  1.027371  0
H  H19  1  0.19780456  0.67603832  0.62172731  1  0.123053  0  0.106812  0.107032  0  1.02277  0
H  H20  1  0.27208497  0.06847823  0.00499955  1  0.074617  0  0.099958  0.10039  0  1.004222  0
H  H21  1  0.70604508  0.92748030  0.00038171  1  0.046688  0  0.100079  0.098141  0  1.014753  0
H  H22  1  0.77256860  0.43149269  0.49511731  1  0.075165  0  0.100002  0.099588  0  1.004737  0
H  H23  1  0.20611690  0.57240166  0.49928748  1  0.048292  0  0.100162  0.09967  0  1.013271  0
H  H24  1  0.27025699  0.00568832  0.94143573  1  0.062158  0  0.100284  0.098908  0  1.017063  0
H  H25  1  0.70412499  0.99329465  0.06186339  1  0.07947  0  0.100093  0.0999  0  1.003541  0
H  H26  1  0.77015366  0.49425952  0.55869879  1  0.060509  0  0.100449  0.099032  0  1.017025  0
H  H27  1  0.20479009  0.50661572  0.43777774  1  0.070269  0  0.100312  0.099821  0  1.004382  0
H  H28  1  0.64453198  0.36143561  0.95640645  1  0.02756  0  0.091749  0.125053  0  0.997048  0
H  H29  1  0.67380363  0.39875858  0.89226975  1  0.030256  0  0.091766  0.12752  0  0.999096  0
H  H30  1  0.85207633  0.34444999  0.92114542  1  0.025905  0  0.08842  0.117161  0  1.012502  0
H  H31  1  0.30688321  0.64912889  0.04390508  1  0.043885  0  0.090958  0.123887  0  0.998489  0
H  H32  1  0.11348916  0.65905762  0.08611580  1  0.034456  0  0.088372  0.11731  0  1.011371  0
H  H33  1  0.31221023  0.60824016  0.10740667  1  0.036114  0  0.091815  0.127802  0  0.999361  0
H  H34  1  0.14243588  0.13819723  0.54342660  1  0.041441  0  0.091502  0.124143  0  0.997542  0
H  H35  1  0.17158212  0.10082732  0.60757156  1  0.026273  0  0.091733  0.127105  0  0.998143  0
H  H36  1  0.34930164  0.15539885  0.57891675  1  0.035146  0  0.088023  0.116469  0  1.012707  0
H  H37  1  0.81127205  0.85156191  0.45651713  1  0.023722  0  0.091158  0.124318  0  0.998384  0
H  H38  1  0.61866037  0.84126045  0.41412157  1  0.027204  0  0.08833  0.117847  0  1.011798  0
H  H39  1  0.81651039  0.89242530  0.39300482  1  0.0113  0  0.092144  0.128148  0  0.999773  0
H  H40  1  0.86895351  0.32904223  0.08616997  1  0.025929  0  0.090216  0.121591  0  1.007818  0
H  H41  1  0.08506744  0.35656815  0.05077943  1  0.075509  0  0.093391  0.133188  0  1.008327  0
H  H42  1  0.10817691  0.31874195  0.11476657  1  0.048957  0  0.094423  0.133313  0  1.008922  0
H  H43  1  0.87024453  0.64797359  0.94701267  1  0.053261  0  0.09249  0.132168  0  1.008514  0
H  H44  1  0.08842204  0.67792105  0.91351003  1  0.030158  0  0.092194  0.127735  0  0.990955  0
H  H45  1  0.85518096  0.68269830  0.88203253  1  0.066539  0  0.094416  0.133501  0  1.015392  0
H  H46  1  0.36674804  0.17086064  0.41368664  1  0.018471  0  0.089604  0.120732  0  1.008573  0
H  H47  1  0.58325539  0.14381533  0.44922273  1  0.03282  0  0.092928  0.132569  0  1.008298  0
H  H48  1  0.60594230  0.18162408  0.38523730  1  0.055208  0  0.09416  0.132846  0  1.009015  0
H  H49  1  0.37143485  0.85215521  0.55272016  1  0.057031  0  0.092544  0.132165  0  1.009135  0
H  H50  1  0.58907765  0.82214657  0.58654945  1  0.027899  0  0.092279  0.127706  0  0.990465  0
H  H51  1  0.35528051  0.81733600  0.61765901  1  0.028929  0  0.094103  0.133169  0  1.015509  0
H  H52  1  0.04565180  0.40821690  0.25508427  1  0.055335  0  0.097744  0.136972  0  1.005795  0
H  H53  1  0.09823759  0.48607909  0.24850187  1  0.044629  0  0.092437  0.127016  0  0.997236  0
H  H54  1  0.84635898  0.46096786  0.24810297  1  0.072745  0  0.093757  0.127884  0  0.991653  0
H  H55  1  0.11590852  0.58630407  0.75141343  1  0.063192  0  0.098014  0.139524  0  1.019295  0
H  H56  1  0.24049303  0.51696918  0.77193879  1  0.028216  0  0.09447  0.128014  0  0.991518  0
H  H57  1  0.98721413  0.51715082  0.75267629  1  0.033987  0  0.092232  0.126428  0  0.995297  0
H  H58  1  0.54785541  0.09185100  0.24498061  1  0.086626  0  0.098393  0.137999  0  1.006143  0
H  H59  1  0.60156421  0.01406061  0.25166418  1  0.034594  0  0.092391  0.126981  0  0.99879  0
H  H60  1  0.34930657  0.03885946  0.25178758  1  0.041046  0  0.093874  0.128331  0  0.991853  0
H  H61  1  0.61574990  0.91369962  0.74865986  1  0.063591  0  0.098086  0.139704  0  1.019395  0
H  H62  1  0.73933034  0.98321480  0.72825852  1  0.031049  0  0.094131  0.127098  0  0.992411  0
H  H63  1  0.48600779  0.98266301  0.74741656  1  0.031384  0  0.09184  0.125566  0  0.995911  0
H  H64  1  0.15050952  0.43137108  0.81320928  1  0.048423  0  0.090149  0.120161  0  1.016675  0
H  H65  1  0.06781229  0.38769255  0.87141340  1  0.037994  0  0.090884  0.124409  0  1.01588  0
H  H66  1  0.89443144  0.41261698  0.82156149  1  0.029802  0  0.089657  0.117985  0  0.999055  0
H  H67  1  0.89760537  0.56220747  0.20186870  1  0.032779  0  0.091558  0.124234  0  1.005628  0
H  H68  1  0.14309473  0.58662067  0.18361390  1  0.044367  0  0.090091  0.11825  0  1.002691  0
H  H69  1  0.93769245  0.61042269  0.14254828  1  0.044419  0  0.091705  0.126606  0  1.015159  0
H  H70  1  0.64853482  0.06873345  0.68699484  1  0.028508  0  0.090045  0.120227  0  1.015688  0
H  H71  1  0.56563184  0.11233473  0.62873265  1  0.042034  0  0.09137  0.125105  0  1.016235  0
H  H72  1  0.39229600  0.08723374  0.67847034  1  0.020902  0  0.089997  0.118341  0  0.999488  0
H  H73  1  0.40212522  0.93765872  0.29815618  1  0.016136  0  0.091649  0.12384  0  1.007332  0
H  H74  1  0.64788215  0.91365942  0.31665674  1  0.030116  0  0.09022  0.11836  0  1.001994  0
H  H75  1  0.44244781  0.88955171  0.35753737  1  0.037986  0  0.091536  0.126274  0  1.014759  0
H  H76  1  0.67328111  0.23411280  0.11112830  1  0.029776  0  0.093327  0.131124  0  1.001162  0
H  H77  1  0.52640802  0.17860717  0.08934968  1  0.026797  0  0.084938  0.118003  0  1.013149  0
H  H78  1  0.55988445  0.17688422  0.15524167  1  0.087738  0  0.100967  0.150836  0  1.013444  0
H  H79  1  0.33186335  0.89254287  0.79298198  1  0.042907  0  0.098759  0.141873  0  1.005488  0
H  H80  1  0.47095042  0.91240129  0.84359292  1  0.017918  0  0.085646  0.118096  0  1.018117  0
H  H81  1  0.43345275  0.83529288  0.83905071  1  0.060109  0  0.102093  0.152253  0  1.002278  0
H  H82  1  0.17430053  0.26575933  0.38868453  1  0.024968  0  0.093657  0.131626  0  1.001509  0
H  H83  1  0.02757394  0.32126445  0.41043366  1  0.036521  0  0.084711  0.117493  0  1.013365  0
H  H84  1  0.06064378  0.32297175  0.34454791  1  0.113921  0  0.10144  0.151035  0  1.01362  0
H  H85  1  0.83076154  0.60747981  0.70717648  1  0.086839  0  0.098533  0.141644  0  1.005433  0
H  H86  1  0.97004639  0.58748181  0.65672826  1  0.022522  0  0.085869  0.117474  0  1.018487  0
H  H87  1  0.93279568  0.66463525  0.66113724  1  0.063473  0  0.101902  0.152217  0  1.002574  0
H  H88  1  0.50892336  0.29492454  0.19021190  1  0.612324  0  0.353651  0.428402  0  0.855858  0
H  H89  1  0.49094073  0.70304213  0.80898039  1  0.620036  0  0.353297  0.430475  0  0.853765  0
H  H90  1  0.00929099  0.20510962  0.30968538  1  0.613014  0  0.353636  0.428595  0  0.855422  0
H  H91  1  0.99061175  0.79684568  0.69095008  1  0.620262  0  0.353846  0.430559  0  0.853554  0
C  C92  1  0.50398172  0.31083989  0.31459513  1  1.555807  0  0.262587  0.636672  0  4.106349  0
C  C93  1  0.49458050  0.69274894  0.68277688  1  1.559905  0  0.263271  0.637021  0  4.10269  0
C  C94  1  0.00305830  0.18910918  0.18529214  1  1.55501  0  0.262267  0.636629  0  4.107194  0
C  C95  1  0.99551279  0.80713159  0.81715922  1  1.544929  0  0.262707  0.636836  0  4.1004  0
C  C96  1  0.50961822  0.15242106  0.30721141  1  1.57333  0  0.274803  0.675266  0  4.08707  0
C  C97  1  0.49944736  0.84873477  0.69338924  1  1.566101  0  0.276466  0.677628  0  4.068866  0
C  C98  1  0.00952456  0.34762465  0.19274383  1  1.572767  0  0.274353  0.674385  0  4.087488  0
C  C99  1  0.99938478  0.65119722  0.80658195  1  1.565073  0  0.275994  0.677717  0  4.069479  0
C  C100  1  0.00252956  0.59245702  0.84440658  1  -0.047273  0  -0.022827  -0.169673  0  3.960173  0
C  C101  1  0.00923808  0.40804160  0.15745806  1  -0.057174  0  -0.022972  -0.167324  0  3.974234  0
C  C102  1  0.50235583  0.90751895  0.65560569  1  -0.046483  0  -0.02292  -0.169455  0  3.959713  0
C  C103  1  0.50982537  0.09206333  0.34256628  1  -0.060317  0  -0.022374  -0.166664  0  3.974701  0
C  C104  1  0.99821963  0.48327663  0.85998244  1  0.021418  0  -0.016303  0.05263  0  3.930733  0
C  C105  1  0.02016244  0.51682039  0.14637659  1  -0.043453  0  -0.01407  0.05678  0  3.919683  0
C  C106  1  0.49708948  0.01669244  0.64010268  1  0.010697  0  -0.016363  0.05217  0  3.93109  0
C  C107  1  0.52300933  0.98331207  0.35371784  1  -0.038849  0  -0.013746  0.056295  0  3.920969  0
C  C108  1  0.03245578  0.53834333  0.82673550  1  0.005544  0  -0.013401  0.087583  0  3.963268  0
C  C109  1  0.00860568  0.46016776  0.17863784  1  0.007291  0  -0.012435  0.08775  0  3.959771  0
C  C110  1  0.53177141  0.96163392  0.67333235  1  0.016707  0  -0.013341  0.087594  0  3.963729  0
C  C111  1  0.51066777  0.03991028  0.32141151  1  0.007887  0  -0.012608  0.088378  0  3.961754  0
C  C112  1  0.98089089  0.59320883  0.89562682  1  0.027872  0  -0.006981  0.103107  0  3.929685  0
C  C113  1  0.00084021  0.41015528  0.10565780  1  0.0588  0  -0.007415  0.102686  0  3.931821  0
C  C114  1  0.48099614  0.90681184  0.60435655  1  0.02678  0  -0.007026  0.103035  0  3.929635  0
C  C115  1  0.50074120  0.08997789  0.39434990  1  0.059575  0  -0.007306  0.101707  0  3.932694  0
C  C116  1  0.97973916  0.53667748  0.93100136  1  -0.06378  0  -0.003501  -0.018039  0  3.930711  0
C  C117  1  0.99588916  0.46810699  0.07227589  1  -0.003939  0  -0.004254  -0.02062  0  3.933294  0
C  C118  1  0.47974394  0.96337272  0.56902023  1  -0.06418  0  -0.003494  -0.017944  0  3.931748  0
C  C119  1  0.49668177  0.03203398  0.42777724  1  -0.021062  0  -0.005249  -0.022199  0  3.934827  0
C  C120  1  0.95171512  0.48262210  0.91162969  1  0.026892  0  -0.008347  -0.032985  0  3.955814  0
C  C121  1  0.03475994  0.52086035  0.09292629  1  -0.059113  0  -0.00877  -0.034895  0  3.9439  0
C  C122  1  0.45092283  0.01736737  0.58840615  1  0.023916  0  -0.008155  -0.033076  0  3.956981  0
C  C123  1  0.53700069  0.97934562  0.40718264  1  -0.053603  0  -0.008281  -0.034164  0  3.943241  0
C  C124  1  0.00417409  0.53097380  0.98517526  1  -0.002494  0  -0.012612  0.031779  0  4.003164  0
C  C125  1  0.96007607  0.47546881  0.01844041  1  -0.011348  0  -0.011039  0.034509  0  4.000236  0
C  C126  1  0.50485059  0.96917359  0.51486755  1  -0.004141  0  -0.012273  0.031365  0  4.003041  0
C  C127  1  0.46032163  0.02463409  0.48157559  1  -0.005508  0  -0.01154  0.034945  0  3.999901  0
C  C128  1  0.86855140  0.42967986  0.99686083  1  -0.019373  0  -0.100965  -0.203842  0  4.006634  0
C  C129  1  0.09107855  0.57727188  0.00685604  1  -0.033478  0  -0.101095  -0.205629  0  4.005579  0
C  C130  1  0.36790746  0.07029120  0.50310961  1  -0.022814  0  -0.101062  -0.204518  0  4.0076  0
C  C131  1  0.59304137  0.92300540  0.49330796  1  -0.020558  0  -0.101365  -0.204822  0  4.004766  0
C  C132  1  0.86759928  0.43093392  0.94584836  1  -0.09583  0  -0.015213  0.116466  0  3.969507  0
C  C133  1  0.10239509  0.57458388  0.05811146  1  -0.011104  0  -0.014661  0.118516  0  3.961809  0
C  C134  1  0.36647954  0.06898486  0.55412752  1  -0.085742  0  -0.01521  0.116533  0  3.970033  0
C  C135  1  0.60525520  0.92573882  0.44206909  1  -0.008965  0  -0.014046  0.118945  0  3.961887  0
C  C136  1  0.81748223  0.14743137  0.11722276  1  0.04524  0  0.004754  0.177941  0  3.925632  0
C  C137  1  0.17433999  0.87921948  0.86359511  1  0.017745  0  0.003803  0.181673  0  3.946187  0
C  C138  1  0.31848610  0.35245309  0.38261207  1  0.054821  0  0.00453  0.178607  0  3.925691  0
C  C139  1  0.67362919  0.62071553  0.63643676  1  -0.00136  0  0.003555  0.181099  0  3.94694  0
C  C140  1  0.82188357  0.10857110  0.08301730  1  -0.101278  0  -0.097593  -0.209245  0  3.944093  0
C  C141  1  0.16443349  0.91496355  0.90001250  1  -0.066776  0  -0.098481  -0.209088  0  3.942558  0
C  C142  1  0.32285349  0.39132482  0.41679898  1  -0.073732  0  -0.097373  -0.209145  0  3.944546  0
C  C143  1  0.66393760  0.58496720  0.60002141  1  -0.065399  0  -0.098562  -0.208934  0  3.942899  0
C  C144  1  0.99079433  0.07404909  0.07639903  1  -0.057763  0  -0.00667  0.082059  0  4.034493  0
C  C145  1  0.99163624  0.92037539  0.92849492  1  0.030934  0  -0.006498  0.082251  0  4.019985  0
C  C146  1  0.49169371  0.42588313  0.42348749  1  -0.07989  0  -0.006706  0.081218  0  4.035941  0
C  C147  1  0.49122847  0.57949393  0.57143537  1  0.037262  0  -0.006905  0.08196  0  4.019337  0
C  C148  1  0.16198585  0.07808416  0.10586844  1  -0.055943  0  -0.099705  -0.155278  0  4.014842  0
C  C149  1  0.82275355  0.88641520  0.91991058  1  -0.062029  0  -0.100098  -0.155207  0  4.006206  0
C  C150  1  0.66290717  0.42184421  0.39412404  1  -0.045342  0  -0.099919  -0.154971  0  4.013772  0
C  C151  1  0.32215769  0.61336310  0.57994346  1  -0.077542  0  -0.100006  -0.154698  0  4.004821  0
C  C152  1  0.16010036  0.11536589  0.14078679  1  -0.027301  0  -0.083349  -0.080699  0  4.0158  0
C  C153  1  0.82977040  0.84974991  0.88456633  1  -0.053291  0  -0.083116  -0.076727  0  4.017025  0
C  C154  1  0.66106589  0.38453962  0.35920828  1  -0.028686  0  -0.083984  -0.08096  0  4.016242  0
C  C155  1  0.32890214  0.65002825  0.61530648  1  -0.048618  0  -0.083225  -0.07627  0  4.014935  0
C  C156  1  0.99124854  0.15013370  0.14701310  1  -0.03314  0  -0.018394  -0.112787  0  3.917462  0
C  C157  1  0.00197201  0.84579145  0.85569927  1  0.004435  0  -0.019565  -0.116408  0  3.924724  0
C  C158  1  0.49226384  0.34977310  0.35290156  1  -0.036327  0  -0.018436  -0.11341  0  3.916708  0
C  C159  1  0.50109108  0.65408116  0.64425052  1  -0.015096  0  -0.019329  -0.116081  0  3.924224  0
C  C160  1  0.14828898  0.03706884  0.00428275  1  -0.097034  0  -0.093722  -0.133631  0  4.008905  0
C  C161  1  0.83025619  0.95884507  0.00018665  1  0.018219  0  -0.092142  -0.123478  0  3.990748  0
C  C162  1  0.64869313  0.46288765  0.49572845  1  -0.036335  0  -0.093727  -0.133079  0  4.009858  0
C  C163  1  0.33040807  0.54104423  0.49958113  1  -0.020763  0  -0.092221  -0.125648  0  3.990014  0
C  C164  1  0.14683128  0.00104336  0.96833503  1  -0.044017  0  -0.092493  -0.124048  0  3.994701  0
C  C165  1  0.82877002  0.99600832  0.03532942  1  -0.08692  0  -0.093669  -0.13283  0  4.002963  0
C  C166  1  0.64690073  0.49888366  0.53169661  1  -0.043881  0  -0.092513  -0.124127  0  3.993838  0
C  C167  1  0.32925323  0.50390721  0.46441569  1  -0.046963  0  -0.093745  -0.132102  0  4.000698  0
C  C168  1  0.98933316  0.96021046  0.96570145  1  -0.061479  0  -0.010938  0.059568  0  3.994348  0
C  C169  1  0.98913587  0.03534117  0.03856700  1  -0.002839  0  -0.009291  0.068077  0  4.012223  0
C  C170  1  0.48923338  0.53968871  0.53420745  1  -0.060432  0  -0.011272  0.059362  0  3.993903  0
C  C171  1  0.48978436  0.46460291  0.46130846  1  -0.057873  0  -0.008977  0.069085  0  4.012591  0
C  C172  1  0.75494489  0.38140940  0.92764595  1  -0.043885  0  -0.236624  -0.397596  0  3.990208  0
C  C173  1  0.21329738  0.62525087  0.07510940  1  -0.079988  0  -0.236201  -0.397015  0  3.986542  0
C  C174  1  0.25286327  0.11832957  0.57228128  1  -0.067271  0  -0.235851  -0.39512  0  3.988404  0
C  C175  1  0.71755984  0.87524844  0.42519958  1  -0.018939  0  -0.237433  -0.399306  0  3.988648  0
C  C176  1  0.01567507  0.35080572  0.08820580  1  -0.09365  0  -0.239946  -0.405904  0  3.96589  0
C  C177  1  0.94761418  0.65335258  0.91062004  1  -0.093322  0  -0.241041  -0.410004  0  3.968579  0
C  C178  1  0.51399268  0.14939103  0.41175739  1  -0.053755  0  -0.238636  -0.403429  0  3.964348  0
C  C179  1  0.44818378  0.84671161  0.58924292  1  -0.05712  0  -0.241063  -0.409783  0  3.969243  0
C  C180  1  0.99961167  0.45356210  0.23534740  1  -0.104094  0  -0.23511  -0.398389  0  3.960857  0
C  C181  1  0.09574118  0.54012597  0.77295187  1  -0.064035  0  -0.238176  -0.404629  0  3.971658  0
C  C182  1  0.50226335  0.04646065  0.26469649  1  -0.092966  0  -0.236124  -0.400359  0  3.963845  0
C  C183  1  0.59491545  0.95986032  0.72715440  1  -0.064095  0  -0.23786  -0.403423  0  3.973406  0
C  C184  1  0.02793229  0.42566754  0.84088407  1  -0.074108  0  -0.238321  -0.393199  0  3.998479  0
C  C185  1  0.00027261  0.57200885  0.16945506  1  -0.076017  0  -0.238804  -0.398687  0  4.000821  0
C  C186  1  0.52604259  0.07431976  0.65923716  1  -0.050264  0  -0.238907  -0.393854  0  3.998746  0
C  C187  1  0.50457431  0.92804740  0.33066710  1  -0.038668  0  -0.238605  -0.397405  0  4.000555  0
C  C188  1  0.63406135  0.18585419  0.11827594  1  -0.035896  0  -0.240656  -0.414894  0  3.958697  0
C  C189  1  0.36339883  0.88003210  0.83360284  1  -0.033965  0  -0.243321  -0.426805  0  3.96477  0
C  C190  1  0.13504535  0.31401438  0.38151706  1  -0.081557  0  -0.240898  -0.414848  0  3.958612  0
C  C191  1  0.86254950  0.61991403  0.66658799  1  -0.061999  0  -0.24308  -0.425923  0  3.965508  0
O  O192  1  0.33931912  0.17452921  0.29229867  1  -1.261803  0  -0.230294  -0.588369  0  2.321323  0
O  O193  1  0.66791145  0.82564736  0.70879382  1  -1.259388  0  -0.231046  -0.590679  0  2.329511  0
O  O194  1  0.83934104  0.32532536  0.20744524  1  -1.26281  0  -0.229757  -0.58804  0  2.322145  0
O  O195  1  0.16771710  0.67447147  0.79141847  1  -1.260548  0  -0.231028  -0.590657  0  2.330673  0
O  O196  1  0.67819552  0.29735410  0.30047975  1  -1.256491  0  -0.241934  -0.600856  0  2.339966  0
O  O197  1  0.32179342  0.70741118  0.69694645  1  -1.255969  0  -0.242532  -0.603935  0  2.34809  0
O  O198  1  0.17735700  0.20286390  0.19925839  1  -1.251204  0  -0.241411  -0.600417  0  2.339473  0
O  O199  1  0.82270736  0.79207920  0.80319717  1  -1.258843  0  -0.242507  -0.604126  0  2.348162  0
O  O200  1  0.67811760  0.17733940  0.29456208  1  -1.267038  0  -0.232096  -0.598362  0  2.338749  0
O  O201  1  0.32899304  0.82586798  0.70756574  1  -1.265016  0  -0.233218  -0.596216  0  2.313557  0
O  O202  1  0.17821093  0.32284386  0.20552330  1  -1.267257  0  -0.231961  -0.597594  0  2.337828  0
O  O203  1  0.82881079  0.67382876  0.79212219  1  -1.263642  0  -0.233233  -0.596356  0  2.312327  0
O  O204  1  0.83787722  0.20607474  0.20130065  1  -1.255889  0  -0.233087  -0.589136  0  2.409554  0
O  O205  1  0.16231986  0.79113550  0.80113942  1  -1.250095  0  -0.232861  -0.587989  0  2.397805  0
O  O206  1  0.33872431  0.29364087  0.29870596  1  -1.25431  0  -0.233248  -0.589297  0  2.40958  0
O  O207  1  0.66139864  0.70916098  0.69856635  1  -1.265361  0  -0.233349  -0.588492  0  2.398836  0
O  O208  1  0.50947981  0.26072496  0.21860098  1  -1.416518  0  -0.448608  -0.982702  0  2.193428  0
O  O209  1  0.49426189  0.73766992  0.78097084  1  -1.42438  0  -0.448478  -0.985703  0  2.191486  0
O  O210  1  0.00974075  0.23926488  0.28125868  1  -1.417318  0  -0.44842  -0.982153  0  2.191325  0
O  O211  1  0.99403624  0.76221576  0.71895482  1  -1.424644  0  -0.449164  -0.985747  0  2.191551  0
