# generated using pymatgen
data_ZnPH3C4N2O3
_symmetry_space_group_name_H-M   'P 1'
_cell_length_a   7.56048035
_cell_length_b   7.91264925
_cell_length_c   10.39142655
_cell_angle_alpha   90.00000981
_cell_angle_beta   100.40367952
_cell_angle_gamma   90.00008894
_symmetry_Int_Tables_number   1
_chemical_formula_structural   ZnPH3C4N2O3
_chemical_formula_sum   'Zn4 P4 H12 C16 N8 O12'
_cell_volume   611.43075438
_cell_formula_units_Z   4
loop_
 _symmetry_equiv_pos_site_id
 _symmetry_equiv_pos_as_xyz
  1  'x, y, z'
loop_
 _atom_site_type_symbol
 _atom_site_label
 _atom_site_symmetry_multiplicity
 _atom_site_fract_x
 _atom_site_fract_y
 _atom_site_fract_z
 _atom_site_occupancy
 _atom_site_hle17_bader_spin_density
 _atom_site_hle17_ddec_charge
 _atom_site_hle17_ddec_spin_density
 _atom_site_hle17_ddec_sum_bond_order
 _atom_site_hle17_magmom
 _atom_site_hse06_10hf_bader_spin_density
 _atom_site_hse06_10hf_ddec_charge
 _atom_site_hse06_10hf_ddec_spin_density
 _atom_site_hse06_10hf_ddec_sum_bond_order
 _atom_site_hse06_10hf_magmom
 _atom_site_hse06_bader_spin_density
 _atom_site_hse06_ddec_charge
 _atom_site_hse06_ddec_spin_density
 _atom_site_hse06_ddec_sum_bond_order
 _atom_site_hse06_magmom
 _atom_site_pbe_bader_spin_density
 _atom_site_pbe_cm5_charge
 _atom_site_pbe_ddec_charge
 _atom_site_pbe_ddec_spin_density
 _atom_site_pbe_ddec_sum_bond_order
 _atom_site_pbe_magmom
Zn  Zn0  1  0.64325668  0.28084707  0.60584488  1  0  1.111186  0  1.835672  0  0  0.934393  0  2.304501  0  0  0.979318  0  2.247198  0  0  0.707887  0.903148  0  2.343282  0
Zn  Zn1  1  0.85674406  0.78084795  0.89415513  1  0  1.111229  0  1.835626  0  0  0.934405  0  2.304487  0  0  0.979331  0  2.247184  0  0  0.707888  0.903163  0  2.34327  0
Zn  Zn2  1  0.35674406  0.71915263  0.39415550  1  0  1.111233  0  1.835649  0  0  0.934427  0  2.304489  0  0  0.979358  0  2.247183  0  0  0.707884  0.903186  0  2.343272  0
Zn  Zn3  1  0.14325669  0.21915428  0.10584429  1  0  1.111227  0  1.835646  0  0  0.934413  0  2.304498  0  0  0.979344  0  2.247192  0  0  0.707883  0.903172  0  2.343282  0
P  P4  1  0.79260900  0.18352078  0.89273917  1  0  1.42434  0  4.995065  0  0  1.26196  0  5.492126  0  0  1.314963  0  5.451728  0  0  0.329786  1.2248  0  5.519584  0
P  P5  1  0.70739294  0.68352009  0.60726004  1  0  1.424436  0  4.994993  0  0  1.262039  0  5.492042  0  0  1.315028  0  5.45169  0  0  0.329833  1.224874  0  5.5195  0
P  P6  1  0.20739038  0.81648271  0.10726198  1  0  1.42443  0  4.994944  0  0  1.262049  0  5.492011  0  0  1.31505  0  5.451616  0  0  0.329874  1.224886  0  5.519472  0
P  P7  1  0.29260781  0.31648087  0.39273938  1  0  1.424375  0  4.994984  0  0  1.261997  0  5.492047  0  0  1.315004  0  5.451646  0  0  0.329801  1.224834  0  5.519504  0
H  H8  1  0.52563404  0.21693280  0.07803224  1  0  0.095252  0  0.935649  0  0  0.10262  0  1.002279  0  0  0.105117  0  1.000758  0  0  0.124517  0.100845  0  1.003496  0
H  H9  1  0.97436856  0.71693512  0.42196744  1  0  0.095279  0  0.935635  0  0  0.102651  0  1.002262  0  0  0.10515  0  1.000733  0  0  0.124526  0.100875  0  1.003478  0
H  H10  1  0.47436805  0.78306942  0.92196737  1  0  0.095245  0  0.935636  0  0  0.10262  0  1.002254  0  0  0.105115  0  1.000736  0  0  0.124512  0.100844  0  1.003471  0
H  H11  1  0.02563218  0.28306584  0.57803294  1  0  0.095265  0  0.935638  0  0  0.102631  0  1.002269  0  0  0.105129  0  1.00074  0  0  0.124517  0.100855  0  1.003484  0
H  H12  1  0.09342179  0.44687705  0.84269624  1  0  0.112779  0  0.929618  0  0  0.119727  0  0.991177  0  0  0.122987  0  0.988395  0  0  0.127244  0.117235  0  0.993244  0
H  H13  1  0.40658006  0.94687794  0.65730432  1  0  0.112761  0  0.929643  0  0  0.119696  0  0.991201  0  0  0.122957  0  0.988418  0  0  0.127227  0.117204  0  0.993269  0
H  H14  1  0.90657896  0.55311886  0.15730319  1  0  0.112783  0  0.929642  0  0  0.119731  0  0.991202  0  0  0.122989  0  0.988418  0  0  0.127259  0.117239  0  0.993269  0
H  H15  1  0.59341933  0.05312302  0.34269588  1  0  0.112777  0  0.929601  0  0  0.11972  0  0.991165  0  0  0.122981  0  0.988381  0  0  0.127229  0.117228  0  0.993233  0
H  H16  1  0.27429462  0.46391318  0.65558723  1  0  0.105227  0  0.963009  0  0  0.111954  0  1.02469  0  0  0.114881  0  1.023566  0  0  0.121893  0.10928  0  1.026463  0
H  H17  1  0.22570725  0.96391258  0.84441429  1  0  0.105217  0  0.962979  0  0  0.11194  0  1.024663  0  0  0.114871  0  1.023534  0  0  0.121888  0.109268  0  1.026438  0
H  H18  1  0.72570343  0.53608273  0.34441277  1  0  0.10529  0  0.962928  0  0  0.111973  0  1.024666  0  0  0.114937  0  1.023493  0  0  0.12189  0.1093  0  1.02644  0
H  H19  1  0.77429349  0.03608586  0.15558609  1  0  0.105264  0  0.962942  0  0  0.111987  0  1.024628  0  0  0.114918  0  1.023499  0  0  0.121906  0.109314  0  1.026402  0
C  C20  1  0.56816860  0.27515363  0.88081877  1  0  -0.087002  0  3.669093  0  0  -0.061735  0  3.912556  0  0  -0.066707  0  3.930663  0  0  0.114139  -0.058577  0  3.900569  0
C  C21  1  0.93183347  0.77515455  0.61918144  1  0  -0.087086  0  3.669094  0  0  -0.061773  0  3.912497  0  0  -0.066743  0  3.930605  0  0  0.114107  -0.058613  0  3.900507  0
C  C22  1  0.43183083  0.72484354  0.11917855  1  0  -0.08699  0  3.669101  0  0  -0.061737  0  3.912573  0  0  -0.066707  0  3.930677  0  0  0.1141  -0.058576  0  3.900586  0
C  C23  1  0.06816860  0.22484262  0.38082009  1  0  -0.086971  0  3.669058  0  0  -0.061712  0  3.91252  0  0  -0.066683  0  3.930624  0  0  0.114125  -0.058551  0  3.90053  0
C  C24  1  0.47052803  0.27140514  0.98302705  1  0  0.123761  0  3.638994  0  0  0.085137  0  3.888127  0  0  0.089467  0  3.905797  0  0  0.067571  0.081958  0  3.876698  0
C  C25  1  0.02947488  0.77140544  0.51697267  1  0  0.123765  0  3.638946  0  0  0.085114  0  3.888095  0  0  0.089442  0  3.905762  0  0  0.067557  0.081936  0  3.876661  0
C  C26  1  0.52947000  0.72859455  0.01697392  1  0  0.123733  0  3.639034  0  0  0.085112  0  3.888141  0  0  0.089436  0  3.905809  0  0  0.067536  0.081931  0  3.876712  0
C  C27  1  0.97052722  0.22859426  0.48302694  1  0  0.12368  0  3.638999  0  0  0.085081  0  3.888121  0  0  0.08941  0  3.905794  0  0  0.067534  0.081902  0  3.876688  0
C  C28  1  0.23068161  0.40052858  0.85243922  1  0  0.094673  0  3.62925  0  0  0.061978  0  3.886543  0  0  0.065575  0  3.903253  0  0  0.06173  0.059536  0  3.875468  0
C  C29  1  0.26932151  0.90052926  0.64756150  1  0  0.094613  0  3.629277  0  0  0.061971  0  3.886513  0  0  0.065566  0  3.903221  0  0  0.061726  0.059528  0  3.87544  0
C  C30  1  0.76931372  0.59946985  0.14756233  1  0  0.094616  0  3.629529  0  0  0.061919  0  3.886791  0  0  0.065517  0  3.903501  0  0  0.061684  0.059478  0  3.875714  0
C  C31  1  0.73068057  0.09947043  0.35243907  1  0  0.09461  0  3.629281  0  0  0.061934  0  3.886577  0  0  0.065531  0  3.903284  0  0  0.061715  0.059491  0  3.875503  0
C  C32  1  0.32798476  0.40795978  0.75077866  1  0  0.081072  0  3.630791  0  0  0.053712  0  3.886152  0  0  0.054798  0  3.90379  0  0  0.057329  0.052782  0  3.874969  0
C  C33  1  0.17201702  0.90796034  0.74922188  1  0  0.081139  0  3.630721  0  0  0.053766  0  3.886057  0  0  0.054847  0  3.903699  0  0  0.057337  0.052834  0  3.874878  0
C  C34  1  0.67201739  0.59203739  0.24921711  1  0  0.081094  0  3.630824  0  0  0.053761  0  3.886165  0  0  0.054819  0  3.903796  0  0  0.057347  0.05283  0  3.874982  0
C  C35  1  0.82798099  0.09204062  0.25078005  1  0  0.081051  0  3.630764  0  0  0.053699  0  3.886107  0  0  0.054778  0  3.90375  0  0  0.0573  0.052767  0  3.874928  0
N  N36  1  0.49285373  0.33951507  0.76402891  1  0  -0.251633  0  3.26893  0  0  -0.188621  0  3.524762  0  0  -0.199894  0  3.541344  0  0  -0.284399  -0.180732  0  3.513231  0
N  N37  1  0.00714795  0.83951412  0.73597065  1  0  -0.251634  0  3.268991  0  0  -0.188628  0  3.524802  0  0  -0.1999  0  3.541385  0  0  -0.284389  -0.180742  0  3.513274  0
N  N38  1  0.50714298  0.66048337  0.23596995  1  0  -0.251702  0  3.268764  0  0  -0.188692  0  3.524595  0  0  -0.199967  0  3.541185  0  0  -0.28438  -0.180807  0  3.513069  0
N  N39  1  0.99285413  0.16048558  0.26402992  1  0  -0.251639  0  3.268897  0  0  -0.188634  0  3.524733  0  0  -0.199905  0  3.541313  0  0  -0.284351  -0.180748  0  3.513206  0
N  N40  1  0.30131005  0.32807125  0.96721301  1  0  -0.253488  0  3.198988  0  0  -0.183318  0  3.46612  0  0  -0.196257  0  3.480555  0  0  -0.293407  -0.174413  0  3.456394  0
N  N41  1  0.19869294  0.82807180  0.53278769  1  0  -0.253449  0  3.199016  0  0  -0.183299  0  3.466146  0  0  -0.196229  0  3.48057  0  0  -0.29338  -0.174394  0  3.456417  0
N  N42  1  0.69869339  0.67192845  0.03278678  1  0  -0.253468  0  3.198951  0  0  -0.183271  0  3.466027  0  0  -0.1962  0  3.480447  0  0  -0.293366  -0.174368  0  3.4563  0
N  N43  1  0.80130643  0.17192917  0.46721347  1  0  -0.253394  0  3.198959  0  0  -0.183259  0  3.466109  0  0  -0.196196  0  3.480541  0  0  -0.293376  -0.174354  0  3.456379  0
O  O44  1  0.82928942  0.18926981  0.75266234  1  0  -0.84741  0  2.023143  0  0  -0.765046  0  2.316308  0  0  -0.793122  0  2.293447  0  0  -0.380079  -0.745115  0  2.330864  0
O  O45  1  0.67071118  0.68927037  0.74733669  1  0  -0.847444  0  2.023168  0  0  -0.765069  0  2.316333  0  0  -0.793145  0  2.293479  0  0  -0.380072  -0.745137  0  2.33089  0
O  O46  1  0.17071130  0.81073368  0.24733900  1  0  -0.847446  0  2.023188  0  0  -0.765061  0  2.316322  0  0  -0.793148  0  2.293484  0  0  -0.38007  -0.745131  0  2.33088  0
O  O47  1  0.32928959  0.31073312  0.25266177  1  0  -0.847421  0  2.023168  0  0  -0.765035  0  2.316305  0  0  -0.793121  0  2.293464  0  0  -0.380049  -0.745104  0  2.330863  0
O  O48  1  0.91713052  0.29516617  0.99027235  1  0  -0.842029  0  2.029387  0  0  -0.755748  0  2.327265  0  0  -0.785101  0  2.303391  0  0  -0.37391  -0.734931  0  2.342874  0
O  O49  1  0.58287026  0.79516654  0.50972671  1  0  -0.842028  0  2.029342  0  0  -0.75575  0  2.327221  0  0  -0.785104  0  2.303355  0  0  -0.373912  -0.734933  0  2.34283  0
O  O50  1  0.08286481  0.70483858  0.00972920  1  0  -0.84199  0  2.02936  0  0  -0.755718  0  2.327243  0  0  -0.785071  0  2.30337  0  0  -0.373885  -0.7349  0  2.342851  0
O  O51  1  0.41713187  0.20483442  0.49027098  1  0  -0.842012  0  2.02937  0  0  -0.755736  0  2.32724  0  0  -0.785091  0  2.303368  0  0  -0.3739  -0.734917  0  2.342846  0
O  O52  1  0.77355502  0.00464642  0.94595074  1  0  -0.866759  0  2.077506  0  0  -0.777042  0  2.374146  0  0  -0.806053  0  2.349683  0  0  -0.380309  -0.75584  0  2.390368  0
O  O53  1  0.72644526  0.50464575  0.55404822  1  0  -0.866796  0  2.07752  0  0  -0.777065  0  2.374144  0  0  -0.80608  0  2.349691  0  0  -0.380325  -0.755867  0  2.390375  0
O  O54  1  0.22644698  0.99535707  0.05405463  1  0  -0.866812  0  2.077501  0  0  -0.77709  0  2.37415  0  0  -0.806099  0  2.349686  0  0  -0.380389  -0.755885  0  2.390369  0
O  O55  1  0.27355416  0.49535521  0.44595005  1  0  -0.866796  0  2.077517  0  0  -0.777083  0  2.374163  0  0  -0.806093  0  2.349698  0  0  -0.380333  -0.755885  0  2.390393  0
