# generated using pymatgen
data_CuPH11(C3O2)2
_symmetry_space_group_name_H-M   'P 1'
_cell_length_a   5.86216428
_cell_length_b   5.95693427
_cell_length_c   12.28696183
_cell_angle_alpha   84.12281835
_cell_angle_beta   78.48190333
_cell_angle_gamma   77.60340640
_symmetry_Int_Tables_number   1
_chemical_formula_structural   CuPH11(C3O2)2
_chemical_formula_sum   'Cu2 P2 H22 C12 O8'
_cell_volume   409.82908059
_cell_formula_units_Z   2
loop_
 _symmetry_equiv_pos_site_id
 _symmetry_equiv_pos_as_xyz
  1  'x, y, z'
loop_
 _atom_site_type_symbol
 _atom_site_label
 _atom_site_symmetry_multiplicity
 _atom_site_fract_x
 _atom_site_fract_y
 _atom_site_fract_z
 _atom_site_occupancy
 _atom_site_hle17_ddec_charge
 _atom_site_hle17_ddec_spin_density
 _atom_site_hle17_ddec_sum_bond_order
 _atom_site_hle17_magmom
 _atom_site_hse06_10hf_ddec_charge
 _atom_site_hse06_10hf_ddec_spin_density
 _atom_site_hse06_10hf_ddec_sum_bond_order
 _atom_site_hse06_10hf_magmom
 _atom_site_hse06_ddec_charge
 _atom_site_hse06_ddec_spin_density
 _atom_site_hse06_ddec_sum_bond_order
 _atom_site_hse06_magmom
 _atom_site_pbe_cm5_charge
 _atom_site_pbe_ddec_charge
 _atom_site_pbe_ddec_spin_density
 _atom_site_pbe_ddec_sum_bond_order
 _atom_site_pbe_magmom
Cu  Cu0  1  0.21777217  0.77680765  0.01266528  1  1.072704  0.702931  1.628118  0.542  1.085504  0.802554  1.996373  0.671  1.166514  0.861933  1.941334  0.756  0.751237  1.022675  0.758446  2.0494  0.614
Cu  Cu1  1  0.78222742  0.22320477  0.98733627  1  1.072756  0.702929  1.628045  0.542  1.085506  0.802551  1.996375  0.671  1.166515  0.861931  1.941329  0.756  0.751216  1.022613  0.758444  2.049484  0.614
P  P2  1  0.30492454  0.31771127  0.92156121  1  1.348933  0.001428  4.812757  -0.003  1.214457  0.009501  5.316956  0.004  1.269093  0.00615  5.281022  0.003  0.320544  1.176217  0.012541  5.338496  0.004
P  P3  1  0.69507645  0.68230285  0.07843687  1  1.349145  0.001424  4.812606  -0.003  1.214684  0.009502  5.316625  0.004  1.269322  0.006149  5.280685  0.003  0.320673  1.176442  0.01254  5.338169  0.004
H  H4  1  0.68036330  0.92575223  0.89000607  1  0.393874  -0.001015  0.880044  -0.002  0.370735  -0.000114  0.946651  -0.001  0.381964  -0.000328  0.93582  -0.001  0.304618  0.362717  0.000101  0.954096  0.0
H  H5  1  0.31964013  0.07425845  0.10999358  1  0.393787  -0.001015  0.880096  -0.002  0.370738  -0.000113  0.94659  -0.001  0.381928  -0.000328  0.935833  -0.001  0.304664  0.36274  0.000101  0.953999  0.0
H  H6  1  0.72324086  0.50077578  0.79256601  1  0.090605  -0.000539  0.931262  0.0  0.101883  -0.000526  1.000325  0.0  0.10368  -0.000528  0.997543  0.0  0.095226  0.100578  -0.000459  1.00244  0.0
H  H7  1  0.27674900  0.49924176  0.20742806  1  0.090579  -0.000538  0.931202  0.0  0.10189  -0.000526  1.000236  0.0  0.103685  -0.000528  0.997443  0.0  0.095198  0.100583  -0.000459  1.002358  0.0
H  H8  1  0.49712520  0.54147742  0.71286915  1  0.088595  -8e-05  0.929385  0.0  0.108636  5.2e-05  0.984847  0.0  0.109231  2.3e-05  0.985861  0.0  0.099103  0.108019  4.7e-05  0.984386  0.0
H  H9  1  0.50287201  0.45852116  0.28712357  1  0.088633  -7.5e-05  0.929373  0.0  0.108634  5.1e-05  0.984876  0.0  0.109227  2.3e-05  0.985894  0.0  0.099103  0.108017  4.7e-05  0.98441  0.0
H  H10  1  0.89109326  0.49023207  0.58830085  1  0.059041  0.000184  0.952814  0.0  0.077302  0.00012  1.016737  0.0  0.077706  7e-05  1.017531  0.0  0.087509  0.076928  0.000189  1.01623  0.0
H  H11  1  0.10890780  0.50975619  0.41169366  1  0.059007  0.000185  0.952767  0.0  0.077301  0.00012  1.016668  0.0  0.077707  7e-05  1.017457  0.0  0.087527  0.07693  0.000189  1.01616  0.0
H  H12  1  0.98744625  0.22362165  0.65928595  1  0.067101  -2.8e-05  0.95001  0.0  0.087731  2.3e-05  1.006344  0.0  0.088522  4e-06  1.006773  0.0  0.089226  0.087094  7.1e-05  1.006096  0.0
H  H13  1  0.01255440  0.77637701  0.34071702  1  0.067099  -2.7e-05  0.949967  0.0  0.087716  2.4e-05  1.006337  0.0  0.088502  5e-06  1.006773  0.0  0.089238  0.087083  7.1e-05  1.006088  0.0
H  H14  1  0.85936488  0.15954071  0.48418545  1  0.060377  2.8e-05  0.957045  0.0  0.079565  -4e-06  1.018674  0.0  0.080152  -1e-05  1.019234  0.0  0.087786  0.079045  8e-06  1.018426  0.0
H  H15  1  0.14064416  0.84043383  0.51581796  1  0.060439  2.8e-05  0.957073  0.0  0.079549  -4e-06  1.018737  0.0  0.080163  -1.1e-05  1.019266  0.0  0.087782  0.079018  8e-06  1.018498  0.0
H  H16  1  0.57513287  0.32673730  0.53077341  1  0.051894  2.6e-05  0.952548  0.0  0.07189  1e-05  1.015257  0.0  0.072546  3e-06  1.015371  0.0  0.083583  0.071372  1.3e-05  1.015188  0.0
H  H17  1  0.42487968  0.67323719  0.46922479  1  0.051924  2.6e-05  0.952479  0.0  0.071875  1e-05  1.015224  0.0  0.072531  3e-06  1.015345  0.0  0.083561  0.071358  1.3e-05  1.015151  0.0
H  H18  1  0.57118819  0.90581453  0.57271963  1  0.061067  4e-05  0.954629  0.0  0.081867  -2.1e-05  1.014332  0.0  0.081845  -3.7e-05  1.015933  0.0  0.089186  0.081825  1e-05  1.013284  0.0
H  H19  1  0.42880899  0.09416693  0.42728617  1  0.061059  3.5e-05  0.954669  0.0  0.081857  -2.1e-05  1.01437  0.0  0.081798  -3.7e-05  1.016007  0.0  0.089154  0.081812  1e-05  1.013328  0.0
H  H20  1  0.79939389  0.88045542  0.65051512  1  0.065926  0.000133  0.933937  0.0  0.086688  0.000164  0.992225  0.0  0.087436  0.00011  0.992476  0.0  0.089797  0.085977  0.000215  0.992297  0.0
H  H21  1  0.20060396  0.11953124  0.34949524  1  0.065931  0.000131  0.933874  0.0  0.086687  0.000164  0.992203  0.0  0.087413  0.00011  0.99247  0.0  0.089797  0.085987  0.000215  0.992261  0.0
H  H22  1  0.39905786  0.92408631  0.77582877  1  0.099078  -0.000298  0.937063  0.0  0.111686  -0.000118  1.002252  0.0  0.112729  -0.000118  1.001939  0.0  0.098576  0.110886  -0.000108  1.002657  0.0
H  H23  1  0.60093093  0.07591928  0.22417741  1  0.099064  -0.000295  0.937014  0.0  0.111672  -0.000118  1.002205  0.0  0.112714  -0.000118  1.001897  0.0  0.098576  0.110874  -0.000108  1.002606  0.0
H  H24  1  0.30006259  0.18254305  0.70159648  1  0.081697  0.000708  0.942625  0.001  0.102337  0.000667  0.996498  0.001  0.102527  0.000431  0.997251  0.001  0.097381  0.102043  0.000878  0.9962  0.001
H  H25  1  0.69993215  0.81745902  0.29840281  1  0.081679  0.000711  0.942677  0.001  0.102304  0.000667  0.996567  0.001  0.102514  0.000431  0.997295  0.001  0.097392  0.10201  0.000878  0.99627  0.001
C  C26  1  0.54660701  0.21360655  0.80250373  1  0.069626  0.009384  3.56139  0.009  0.08383  0.006467  3.815057  0.007  0.082671  0.003718  3.831639  0.004  0.057514  0.084396  0.008848  3.803627  0.009
C  C27  1  0.45339574  0.78639897  0.19749625  1  0.0692  0.009395  3.561592  0.009  0.083557  0.006465  3.815066  0.007  0.082394  0.003718  3.831655  0.004  0.057449  0.084122  0.008847  3.803652  0.009
C  C28  1  0.64731600  0.41461427  0.73725090  1  -0.167458  0.001156  3.668479  0.002  -0.212593  0.000549  3.926589  0.001  -0.213583  8.4e-05  3.940891  0.0  -0.165288  -0.211408  0.000938  3.91603  0.001
C  C29  1  0.35268537  0.58538948  0.26274360  1  -0.167358  0.001146  3.66848  0.002  -0.212486  0.00055  3.926522  0.001  -0.213487  8.5e-05  3.940858  0.0  -0.165253  -0.211302  0.000938  3.915972  0.001
C  C30  1  0.83075488  0.33835310  0.63367764  1  -0.092853  0.001217  3.671301  0.001  -0.13403  0.00068  3.933676  0.001  -0.134908  0.000376  3.947978  0.0  -0.167934  -0.13325  0.000866  3.923674  0.001
C  C31  1  0.16924894  0.66163861  0.36631887  1  -0.092818  0.001212  3.671247  0.001  -0.134056  0.000679  3.933648  0.001  -0.134937  0.000376  3.947953  0.0  -0.167964  -0.133285  0.000866  3.923652  0.001
C  C32  1  0.72826480  0.21032818  0.55931970  1  -0.114788  -7e-06  3.704063  0.0  -0.15645  2.1e-05  3.972281  0.0  -0.157253  1e-06  3.986533  0.0  -0.170494  -0.155705  6.6e-05  3.96238  0.0
C  C33  1  0.27174251  0.78965494  0.44068019  1  -0.114838  -5e-06  3.704272  0.0  -0.156324  2.1e-05  3.972326  0.0  -0.157152  1e-06  3.986572  0.0  -0.170391  -0.155571  6.6e-05  3.962425  0.0
C  C34  1  0.64593147  0.00062569  0.62458404  1  -0.095237  0.000191  3.677509  0.0  -0.137796  0.000209  3.941737  0.0  -0.138511  8.5e-05  3.956272  0.0  -0.168155  -0.137197  0.000377  3.931817  0.0
C  C35  1  0.35406572  0.99936435  0.37541808  1  -0.095193  0.000209  3.677698  0.0  -0.1378  0.000209  3.941985  0.0  -0.138471  8.5e-05  3.956513  0.0  -0.168162  -0.137202  0.000377  3.932057  0.0
C  C36  1  0.45927563  0.07298607  0.72747863  1  -0.164925  0.003485  3.660211  0.003  -0.206229  0.002361  3.908486  0.002  -0.207087  0.001358  3.922526  0.001  -0.16453  -0.205529  0.003261  3.899094  0.003
C  C37  1  0.54071664  0.92701951  0.27252722  1  -0.164775  0.003467  3.660205  0.003  -0.206105  0.00236  3.908513  0.002  -0.206976  0.001357  3.922538  0.001  -0.164494  -0.20541  0.00326  3.899128  0.003
O  O38  1  0.19987640  0.57395674  0.90044230  1  -0.76635  0.078548  1.970482  0.11  -0.729092  0.046484  2.259852  0.07  -0.767172  0.033252  2.239633  0.055  -0.377804  -0.701402  0.055803  2.27341  0.079
O  O39  1  0.80013817  0.42605908  0.09955603  1  -0.766395  0.07855  1.970297  0.11  -0.729147  0.046487  2.259669  0.07  -0.767222  0.033254  2.239444  0.055  -0.377899  -0.701443  0.055805  2.273235  0.079
O  O40  1  0.43154931  0.26952599  0.02501054  1  -0.849497  0.060258  2.111488  0.087  -0.802406  0.038895  2.41132  0.06  -0.838993  0.028183  2.388451  0.048  -0.381559  -0.775384  0.045936  2.425718  0.067
O  O41  1  0.56844958  0.73048987  0.97499009  1  -0.849591  0.060254  2.111598  0.087  -0.802445  0.038894  2.411408  0.06  -0.839059  0.028183  2.388542  0.048  -0.381595  -0.775427  0.045935  2.425802  0.067
O  O42  1  0.12268649  0.16056736  0.93253460  1  -0.825693  0.076291  2.13673  0.108  -0.793659  0.045761  2.465331  0.07  -0.834617  0.032027  2.44143  0.053  -0.38522  -0.761987  0.0562  2.480388  0.081
O  O43  1  0.87730822  0.83945196  0.06746706  1  -0.825763  0.076293  2.136623  0.108  -0.793785  0.045761  2.465313  0.07  -0.834741  0.032027  2.441407  0.053  -0.385248  -0.762112  0.056201  2.480365  0.081
O  O44  1  0.73873707  0.06761970  0.85193909  1  -0.533732  0.065956  2.125397  0.092  -0.491849  0.046264  2.366277  0.07  -0.524466  0.033212  2.360928  0.055  -0.370283  -0.467875  0.055753  2.369079  0.08
O  O45  1  0.26125661  0.93239615  0.14805959  1  -0.533556  0.065961  2.125357  0.092  -0.491828  0.046268  2.366201  0.07  -0.524393  0.033215  2.360867  0.055  -0.370341  -0.467871  0.055755  2.368959  0.08
