# generated using pymatgen
data_CuH12C16(N3O)2
_symmetry_space_group_name_H-M   'P 1'
_cell_length_a   7.45134988
_cell_length_b   10.77435084
_cell_length_c   11.63731836
_cell_angle_alpha   64.49470936
_cell_angle_beta   76.56091561
_cell_angle_gamma   88.91700696
_symmetry_Int_Tables_number   1
_chemical_formula_structural   CuH12C16(N3O)2
_chemical_formula_sum   'Cu2 H24 C32 N12 O4'
_cell_volume   816.63014228
_cell_formula_units_Z   2
loop_
 _symmetry_equiv_pos_site_id
 _symmetry_equiv_pos_as_xyz
  1  'x, y, z'
loop_
 _atom_site_type_symbol
 _atom_site_label
 _atom_site_symmetry_multiplicity
 _atom_site_fract_x
 _atom_site_fract_y
 _atom_site_fract_z
 _atom_site_occupancy
 _atom_site_hle17_ddec_charge
 _atom_site_hle17_ddec_spin_density
 _atom_site_hle17_ddec_sum_bond_order
 _atom_site_hle17_magmom
 _atom_site_hse06_10hf_ddec_charge
 _atom_site_hse06_10hf_ddec_spin_density
 _atom_site_hse06_10hf_ddec_sum_bond_order
 _atom_site_hse06_10hf_magmom
 _atom_site_hse06_ddec_charge
 _atom_site_hse06_ddec_spin_density
 _atom_site_hse06_ddec_sum_bond_order
 _atom_site_hse06_magmom
 _atom_site_pbe_cm5_charge
 _atom_site_pbe_ddec_charge
 _atom_site_pbe_ddec_spin_density
 _atom_site_pbe_ddec_sum_bond_order
 _atom_site_pbe_magmom
Cu  Cu0  1  0.04112944  0.89805005  0.79950860  1  0.830764  0.713706  1.968158  0.484  0.810939  0.796722  2.380747  0.603  0.896505  0.879297  2.30955  0.693  0.78501  0.761958  0.737181  2.427919  0.544
Cu  Cu1  1  0.95887075  0.10194959  0.20049432  1  0.830745  -0.713715  1.968176  -0.484  0.810871  -0.796724  2.380773  -0.603  0.896475  -0.879279  2.309498  -0.693  0.785013  0.761934  -0.737194  2.427959  -0.544
H  H2  1  0.20044546  0.16735035  0.39363604  1  0.317971  -0.000164  0.941411  0.0  0.297627  -8e-05  1.010364  0.0  0.306357  -4.9e-05  1.003206  0.0  0.30509  0.291506  -0.000108  1.015354  0.0
H  H3  1  0.79955439  0.83264719  0.60636263  1  0.318005  0.000163  0.941381  0.0  0.297686  7.9e-05  1.010311  0.0  0.306422  4.9e-05  1.003148  0.0  0.305107  0.29156  0.000108  1.0153  0.0
H  H4  1  0.26916921  0.68668185  0.77695400  1  0.087609  0.001016  0.948173  0.002  0.097518  0.000963  1.007812  0.002  0.099654  0.000674  1.005497  0.001  0.121342  0.095554  0.001179  1.010041  0.002
H  H5  1  0.73082778  0.31331470  0.22304980  1  0.087633  -0.001016  0.948229  -0.002  0.097533  -0.000962  1.007874  -0.002  0.099669  -0.000674  1.00556  -0.001  0.121359  0.095573  -0.001179  1.010107  -0.002
H  H6  1  0.43541313  0.62294212  0.59977872  1  0.114385  0.000497  0.963437  0.001  0.122031  0.000483  1.027992  0.001  0.124825  0.000335  1.027815  0.0  0.10683  0.119859  0.000587  1.028427  0.001
H  H7  1  0.56458675  0.37705543  0.40022251  1  0.114372  -0.000497  0.96345  -0.001  0.122013  -0.000483  1.028009  -0.001  0.124812  -0.000335  1.027814  0.0  0.106813  0.119843  -0.000587  1.028443  -0.001
H  H8  1  0.45834646  0.79276454  0.36401059  1  0.095378  0.000481  0.957262  0.001  0.107955  0.000155  1.013985  0.0  0.109217  6.8e-05  1.013603  0.0  0.105673  0.10677  0.000236  1.014475  0.0
H  H9  1  0.54165370  0.20723509  0.63599062  1  0.095391  -0.000482  0.957257  -0.001  0.107973  -0.000155  1.013963  0.0  0.10923  -6.8e-05  1.013598  0.0  0.105683  0.106782  -0.000236  1.014452  0.0
H  H10  1  0.33512679  0.02403391  0.31776276  1  0.124927  0.000875  0.956294  0.001  0.132557  0.000821  1.020182  0.001  0.135458  0.000607  1.019601  0.001  0.11  0.130161  0.000979  1.021196  0.001
H  H11  1  0.66487188  0.97596470  0.68224081  1  0.124903  -0.000869  0.956394  -0.001  0.132529  -0.000821  1.020283  -0.001  0.135429  -0.000607  1.019701  -0.001  0.10998  0.130126  -0.000979  1.021291  -0.001
H  H12  1  0.20385185  0.37275360  0.40222675  1  0.127688  0.000663  0.951392  0.001  0.137089  0.000653  1.010075  0.001  0.140861  0.000464  1.00884  0.001  0.113051  0.134358  0.000817  1.011252  0.001
H  H13  1  0.79614414  0.62724604  0.59777166  1  0.127716  -0.000668  0.951251  -0.001  0.137101  -0.000653  1.009948  -0.001  0.140873  -0.000464  1.008711  -0.001  0.113056  0.134361  -0.000817  1.011124  -0.001
H  H14  1  0.16840964  0.50273728  0.53693018  1  0.094353  0.000437  0.946539  0.001  0.104288  0.000109  1.008654  0.0  0.106386  4.5e-05  1.007242  0.0  0.108096  0.103589  0.000165  1.008177  0.0
H  H15  1  0.83159215  0.49726438  0.46306654  1  0.094365  -0.000441  0.946647  -0.001  0.104304  -0.000109  1.008744  0.0  0.106403  -4.5e-05  1.007326  0.0  0.108113  0.103605  -0.000165  1.008264  0.0
H  H16  1  0.09003918  0.36840446  0.78608425  1  0.112671  0.00051  0.936415  0.001  0.127841  0.000511  0.985228  0.001  0.130695  0.000367  0.985799  0.0  0.110751  0.125375  0.000658  0.985697  0.001
H  H17  1  0.90996537  0.63159719  0.21391291  1  0.112695  -0.00051  0.936388  -0.001  0.127856  -0.000511  0.985199  -0.001  0.13071  -0.000367  0.985771  0.0  0.110778  0.125395  -0.000658  0.985672  -0.001
H  H18  1  0.04629685  0.11138385  0.88298042  1  0.085208  0.001142  0.967701  0.002  0.090037  0.001048  1.038947  0.001  0.090588  0.000757  1.038443  0.001  0.114855  0.089299  0.001308  1.039607  0.002
H  H19  1  0.95370897  0.88861677  0.11701953  1  0.085169  -0.001152  0.967683  -0.002  0.090001  -0.001048  1.038931  -0.001  0.090553  -0.000757  1.038427  -0.001  0.114835  0.089264  -0.001308  1.039592  -0.002
H  H20  1  0.65316827  0.49037918  0.02290431  1  0.137813  -0.000282  0.93517  0.0  0.159206  -4.1e-05  0.99158  0.0  0.160482  -6.9e-05  0.992127  0.0  0.1008  0.15823  -3.4e-05  0.991309  0.0
H  H21  1  0.34682788  0.50962150  0.97709537  1  0.137848  0.000281  0.935102  0.0  0.159224  4.1e-05  0.991536  0.0  0.160498  6.9e-05  0.992084  0.0  0.100807  0.158246  3.4e-05  0.99126  0.0
H  H22  1  0.87208533  0.44110225  0.96716618  1  0.149814  -0.00061  0.965336  0.0  0.1636  -0.000155  1.030816  0.0  0.167637  -8.4e-05  1.02838  0.0  0.093591  0.160782  -0.00023  1.032316  0.0
H  H23  1  0.12791041  0.55889533  0.03283653  1  0.149803  0.00061  0.965313  0.0  0.16359  0.000155  1.030795  0.0  0.167626  8.4e-05  1.02836  0.0  0.093605  0.160774  0.00023  1.032296  0.0
H  H24  1  0.69603087  0.46823972  0.87677784  1  0.122288  0.001061  0.98584  0.001  0.137518  0.000833  1.052474  0.001  0.13764  0.00053  1.054557  0.001  0.088166  0.137334  0.001078  1.05106  0.001
H  H25  1  0.30396528  0.53176096  0.12322184  1  0.122306  -0.001058  0.985821  -0.001  0.137537  -0.000833  1.052449  -0.001  0.137659  -0.00053  1.054531  -0.001  0.088185  0.137358  -0.001078  1.051039  -0.001
C  C26  1  0.28782674  0.75700643  0.67351547  1  0.143566  -0.006161  3.708167  -0.006  0.118672  -0.000451  3.956274  -0.001  0.130092  -0.001582  3.973681  -0.003  0.042199  0.111141  0.00048  3.945601  0.0
C  C27  1  0.71217327  0.24299215  0.32648532  1  0.143584  0.006161  3.708091  0.006  0.118683  0.000453  3.956171  0.001  0.130101  0.001581  3.973582  0.003  0.042179  0.111148  -0.00048  3.945516  0.0
C  C28  1  0.37758559  0.72219648  0.57492094  1  -0.14842  0.008795  3.744272  0.009  -0.160645  0.003758  3.993094  0.004  -0.170572  0.003251  4.014713  0.004  -0.0969  -0.154516  0.004126  3.978646  0.005
C  C29  1  0.62241264  0.27779903  0.42508308  1  -0.148501  -0.00879  3.744358  -0.009  -0.16073  -0.00376  3.993175  -0.004  -0.170651  -0.003249  4.014792  -0.004  -0.096925  -0.154597  -0.004126  3.978731  -0.005
C  C30  1  0.39194977  0.81806377  0.44403569  1  0.022282  -0.007651  3.730768  -0.007  0.002698  -0.002387  3.977732  -0.002  0.010435  -0.002601  3.995189  -0.003  -0.070196  -0.00207  -0.002157  3.965794  -0.002
C  C31  1  0.60804873  0.18193379  0.55596575  1  0.022354  0.007651  3.730645  0.007  0.00277  0.00239  3.977598  0.002  0.010503  0.002599  3.995052  0.003  -0.070177  -0.001997  0.002157  3.965643  0.002
C  C32  1  0.32303043  0.94483602  0.41761066  1  -0.207782  0.00994  3.666783  0.01  -0.224997  0.004667  3.919591  0.005  -0.236531  0.004111  3.939146  0.005  -0.091936  -0.217768  0.004997  3.906934  0.005
C  C33  1  0.67696793  0.05516052  0.58239207  1  -0.207712  -0.009951  3.666778  -0.01  -0.224913  -0.004669  3.919531  -0.005  -0.236444  -0.00411  3.93908  -0.005  -0.091884  -0.21768  -0.004997  3.90685  -0.005
C  C34  1  0.23655816  0.97450712  0.52346762  1  0.42589  -0.003124  3.778749  -0.004  0.397892  0.000702  4.047143  0.0  0.418656  -0.000559  4.062048  -0.001  0.229164  0.384491  0.001653  4.036937  0.001
C  C35  1  0.76343786  0.02549253  0.47653336  1  0.425743  0.003119  3.778942  0.004  0.397749  -0.000702  4.047311  0.0  0.418522  0.000559  4.062224  0.001  0.229092  0.384354  -0.001653  4.037095  -0.001
C  C36  1  0.14556367  0.17340949  0.57157459  1  0.420322  -0.003759  3.789358  -0.004  0.395577  0.000272  4.048398  0.0  0.41621  -0.000881  4.063443  -0.002  0.230349  0.382346  0.001177  4.037841  0.001
C  C37  1  0.85443495  0.82658909  0.42842470  1  0.420297  0.00375  3.789583  0.004  0.395565  -0.000271  4.048566  0.0  0.416208  0.000879  4.063613  0.002  0.23035  0.382337  -0.001177  4.038022  -0.001
C  C38  1  0.16507720  0.31916417  0.50915462  1  -0.211733  0.010205  3.683202  0.01  -0.224549  0.004753  3.926248  0.005  -0.235427  0.004238  3.944911  0.005  -0.085584  -0.218436  0.005169  3.914717  0.006
C  C39  1  0.83492043  0.68083751  0.49084100  1  -0.211685  -0.010189  3.683238  -0.01  -0.224486  -0.004755  3.926272  -0.005  -0.235362  -0.004236  3.944932  -0.005  -0.085581  -0.218363  -0.005168  3.914727  -0.006
C  C40  1  0.14625319  0.39038331  0.58509952  1  0.023902  -0.007917  3.739092  -0.007  0.005826  -0.002619  3.985418  -0.003  0.013328  -0.002824  4.001353  -0.003  -0.062209  0.00085  -0.002415  3.974283  -0.002
C  C41  1  0.85374558  0.60961631  0.41490019  1  0.023744  0.007923  3.739223  0.007  0.005659  0.002621  3.985564  0.003  0.013162  0.002822  4.001499  0.003  -0.062295  0.000689  0.002416  3.974426  0.002
C  C42  1  0.10433377  0.31677661  0.72242794  1  -0.14682  0.008941  3.753569  0.009  -0.159489  0.003814  4.001526  0.004  -0.169463  0.003362  4.024372  0.004  -0.095064  -0.152801  0.00412  3.986392  0.005
C  C43  1  0.89566940  0.68322504  0.27756856  1  -0.146856  -0.008941  3.753347  -0.009  -0.159516  -0.003816  4.001307  -0.004  -0.16949  -0.003361  4.024153  -0.004  -0.095094  -0.152829  -0.00412  3.986191  -0.005
C  C44  1  0.08176273  0.17418254  0.77713640  1  0.134922  -0.005971  3.722089  -0.006  0.105263  -0.000607  3.977841  -0.002  0.114306  -0.001716  4.000165  -0.003  0.037803  0.09973  0.000226  3.962703  -0.001
C  C45  1  0.91824047  0.82581912  0.22286268  1  0.13511  0.005989  3.721898  0.006  0.105442  0.000608  3.977637  0.002  0.114484  0.001714  3.999966  0.003  0.037911  0.099914  -0.000225  3.962515  0.001
C  C46  1  0.66301801  0.86618157  0.97629478  1  0.340241  -0.009936  3.819041  -0.008  0.329738  0.005048  4.088315  0.008  0.353064  0.003822  4.102904  0.006  0.202975  0.313712  0.005892  4.078466  0.008
C  C47  1  0.33697939  0.13381807  0.02370684  1  0.340275  0.00991  3.819124  0.008  0.329756  -0.005052  4.088381  -0.008  0.353081  -0.003816  4.102977  -0.006  0.202985  0.31374  -0.005889  4.078546  -0.008
C  C48  1  0.48624033  0.80331740  0.04819660  1  -0.219571  0.032519  4.040113  0.031  -0.212213  0.007824  4.287859  0.008  -0.229124  0.004474  4.304133  0.005  -0.035002  -0.199271  0.012131  4.275135  0.012
C  C49  1  0.51376131  0.19668322  0.95179969  1  -0.219604  -0.032476  4.039974  -0.031  -0.212199  -0.007804  4.287655  -0.008  -0.229114  -0.004512  4.30393  -0.005  -0.034998  -0.199267  -0.012136  4.274929  -0.012
C  C50  1  0.34168292  0.83782154  0.98464674  1  0.33234  -0.011694  3.812793  -0.013  0.327192  -0.001735  4.079459  -0.003  0.346199  -0.001799  4.095838  -0.003  0.200199  0.314631  -0.001819  4.067554  -0.003
C  C51  1  0.65833130  0.16218004  0.01534982  1  0.332334  0.011672  3.812972  0.013  0.327179  0.00173  4.0796  0.003  0.346184  0.001793  4.095982  0.003  0.200288  0.314627  0.001818  4.067695  0.003
C  C52  1  0.45592100  0.70015950  0.17842381  1  0.276874  -0.010377  3.858786  -0.012  0.263083  -0.000737  4.1381  -0.002  0.276122  -0.000833  4.15608  -0.001  0.174795  0.253818  -0.000754  4.125328  -0.002
C  C53  1  0.54407709  0.29984529  0.82157306  1  0.276849  0.01038  3.858877  0.012  0.263046  0.00074  4.138177  0.002  0.276088  0.000818  4.156157  0.001  0.174815  0.253779  0.000754  4.12538  0.002
C  C54  1  0.82569221  0.65514073  0.85528543  1  0.732826  -0.004961  3.843722  -0.009  0.702395  -0.000155  4.139134  -0.003  0.738825  -0.000677  4.132975  -0.003  0.204142  0.677811  0.00041  4.142369  -0.003
C  C55  1  0.17431226  0.34485991  0.14471730  1  0.733069  0.004961  3.843487  0.009  0.702572  0.000155  4.139  0.003  0.739  0.000679  4.132842  0.003  0.204211  0.677995  -0.00041  4.142243  0.003
C  C56  1  0.75998667  0.50351293  0.93446158  1  -0.463309  0.012171  3.655966  0.012  -0.536964  0.006905  3.884402  0.007  -0.545173  0.004585  3.888546  0.005  -0.254026  -0.530769  0.008567  3.880923  0.009
C  C57  1  0.24001073  0.49648670  0.06553919  1  -0.463333  -0.012172  3.655798  -0.012  -0.536951  -0.006904  3.884247  -0.007  -0.545157  -0.004587  3.888401  -0.005  -0.254025  -0.530757  -0.008566  3.880769  -0.009
N  N58  1  0.21398632  0.87905955  0.64914327  1  -0.401538  0.088023  3.289945  0.105  -0.360744  0.064737  3.593973  0.084  -0.394309  0.053223  3.61088  0.073  -0.358469  -0.341722  0.070398  3.58488  0.088
N  N59  1  0.78601204  0.12093698  0.35085947  1  -0.401478  -0.088023  3.289942  -0.105  -0.360653  -0.06474  3.593908  -0.084  -0.39422  -0.053227  3.610806  -0.073  -0.358409  -0.341647  -0.070396  3.584844  -0.088
N  N60  1  0.17772992  0.10413181  0.49415616  1  -0.473689  -0.001252  3.344456  0.0  -0.419326  6.2e-05  3.584752  0.001  -0.442974  -0.000327  3.592969  0.001  -0.397133  -0.403448  0.000375  3.578672  0.001
N  N61  1  0.82226444  0.89586578  0.50584590  1  -0.473663  0.001258  3.344522  0.0  -0.419299  -6.1e-05  3.584697  -0.001  -0.442975  0.000328  3.592933  -0.001  -0.39712  -0.40342  -0.000375  3.578621  -0.001
N  N62  1  0.10077365  0.10357016  0.70366986  1  -0.399845  0.081789  3.305147  0.097  -0.354141  0.062924  3.602082  0.081  -0.388243  0.053092  3.621106  0.073  -0.355843  -0.333594  0.067533  3.590413  0.084
N  N63  1  0.89922663  0.89643048  0.29632921  1  -0.399932  -0.081791  3.305208  -0.097  -0.35421  -0.062924  3.60212  -0.081  -0.388317  -0.053093  3.621136  -0.073  -0.355886  -0.333677  -0.067527  3.590487  -0.084
N  N64  1  0.81135048  0.92154281  0.91436096  1  -0.467773  0.048583  2.957308  0.056  -0.456699  0.028907  3.266594  0.035  -0.481353  0.024204  3.267967  0.03  -0.371856  -0.441959  0.03234  3.267007  0.037
N  N65  1  0.18865174  0.07846195  0.08563616  1  -0.467765  -0.048572  2.95746  -0.056  -0.456691  -0.028911  3.266756  -0.035  -0.481354  -0.0242  3.268126  -0.03  -0.371862  -0.441963  -0.032342  3.2672  -0.037
N  N66  1  0.22279079  0.86851358  0.92992698  1  -0.442825  0.018278  2.81881  0.021  -0.432914  0.004071  3.100267  0.006  -0.452397  0.002561  3.103954  0.004  -0.339278  -0.420222  0.006099  3.097882  0.008
N  N67  1  0.77720996  0.13148082  0.07006765  1  -0.442796  -0.018265  2.819147  -0.021  -0.432875  -0.00407  3.100574  -0.006  -0.452364  -0.002544  3.104257  -0.004  -0.339357  -0.420194  -0.006096  3.098198  -0.008
N  N68  1  0.43100450  0.61316673  0.28649424  1  -0.418574  0.019168  2.590198  0.021  -0.403235  0.003972  2.819658  0.004  -0.413701  0.002495  2.831148  0.003  -0.313653  -0.395148  0.006011  2.81158  0.007
N  N69  1  0.56898621  0.38684434  0.71350640  1  -0.41857  -0.019186  2.590207  -0.021  -0.403252  -0.00398  2.819702  -0.004  -0.413712  -0.002471  2.831184  -0.003  -0.313718  -0.39517  -0.006013  2.811609  -0.007
O  O70  1  0.96010751  0.69741661  0.88647966  1  -0.602339  0.118558  2.056233  0.148  -0.575186  0.071272  2.328598  0.1  -0.623344  0.05336  2.325092  0.079  -0.323049  -0.543959  0.082062  2.330873  0.11
O  O71  1  0.03989240  0.30258097  0.11352585  1  -0.602414  -0.118565  2.056188  -0.148  -0.575259  -0.071273  2.328609  -0.1  -0.623423  -0.053364  2.3251  -0.079  -0.323051  -0.544034  -0.082059  2.330891  -0.11
O  O72  1  0.74721073  0.73104705  0.76803404  1  -0.649829  0.000304  1.950579  0.002  -0.615466  -0.000315  2.183815  0.001  -0.640965  -0.000993  2.174191  0.0  -0.334695  -0.597657  0.000398  2.18989  0.002
O  O73  1  0.25279539  0.26895564  0.23196761  1  -0.649987  -0.000302  1.950529  -0.002  -0.61558  0.000315  2.183797  -0.001  -0.64108  0.000991  2.174177  0.0  -0.334768  -0.597776  -0.000397  2.189886  -0.002
