# generated using pymatgen
data_Cu4H16C21N8
_symmetry_space_group_name_H-M   'P 1'
_cell_length_a   20.42303575
_cell_length_b   20.45052183
_cell_length_c   20.60120580
_cell_angle_alpha   93.87025732
_cell_angle_beta   89.88633894
_cell_angle_gamma   89.83664444
_symmetry_Int_Tables_number   1
_chemical_formula_structural   Cu4H16C21N8
_chemical_formula_sum   'Cu12 H48 C63 N24'
_cell_volume   8584.65751542
_cell_formula_units_Z   3
loop_
 _symmetry_equiv_pos_site_id
 _symmetry_equiv_pos_as_xyz
  1  'x, y, z'
loop_
 _atom_site_type_symbol
 _atom_site_label
 _atom_site_symmetry_multiplicity
 _atom_site_fract_x
 _atom_site_fract_y
 _atom_site_fract_z
 _atom_site_occupancy
 _atom_site_pbe_bader_charge
 _atom_site_pbe_bader_spin_density
 _atom_site_pbe_cm5_charge
 _atom_site_pbe_ddec_charge
 _atom_site_pbe_ddec_spin_density
 _atom_site_pbe_ddec_sum_bond_order
 _atom_site_pbe_magmom
Cu  Cu0  1  0.77267602  0.75618129  0.86695466  1  0.538688  0  0.484015  0.200689  0  2.134312  0
Cu  Cu1  1  0.87555937  0.77496337  0.75382497  1  0.540696  0  0.481045  0.202626  0  2.106161  0
Cu  Cu2  1  0.74923009  0.86834256  0.77264991  1  0.538783  0  0.482  0.201384  0  2.119806  0
Cu  Cu3  1  0.77783650  0.25041912  0.13509703  1  0.540981  0  0.483956  0.200909  0  2.131441  0
Cu  Cu4  1  0.88472941  0.25203664  0.24523990  1  0.536815  0  0.482203  0.200326  0  2.124285  0
Cu  Cu5  1  0.77321702  0.14173180  0.23794026  1  0.539554  0  0.482953  0.205473  0  2.103796  0
Cu  Cu6  1  0.23663045  0.77586895  0.11772852  1  0.5439  0  0.481389  0.202709  0  2.113281  0
Cu  Cu7  1  0.12066860  0.75636391  0.21772575  1  0.541046  0  0.484352  0.202281  0  2.128884  0
Cu  Cu8  1  0.20890075  0.88346883  0.23348272  1  0.540724  0  0.483004  0.201327  0  2.121812  0
Cu  Cu9  1  0.24805457  0.21909676  0.87600885  1  0.545205  0  0.482025  0.202603  0  2.114111  0
Cu  Cu10  1  0.13019024  0.21414534  0.77324872  1  0.54675  0  0.483358  0.204127  0  2.108968  0
Cu  Cu11  1  0.24029722  0.10442582  0.76583030  1  0.551382  0  0.48419  0.200117  0  2.1397  0
H  H12  1  0.83093531  0.63370371  0.92914276  1  0.072476  0  0.118268  0.108268  0  0.994255  0
H  H13  1  0.97919627  0.66159354  0.78296225  1  0.088254  0  0.118819  0.11176  0  0.989637  0
H  H14  1  0.63061152  0.94486860  0.84412984  1  0.094167  0  0.1185  0.109752  0  0.99278  0
H  H15  1  0.65968940  0.78722890  0.97150185  1  0.073112  0  0.118181  0.11134  0  0.989515  0
H  H16  1  0.94397555  0.83879740  0.63612567  1  0.120272  0  0.118775  0.109894  0  0.992394  0
H  H17  1  0.76591945  0.95447725  0.65148407  1  0.088938  0  0.118381  0.111003  0  0.99028  0
H  H18  1  0.83425884  0.35685255  0.04612727  1  0.099715  0  0.118422  0.109274  0  0.992214  0
H  H19  1  0.98163090  0.36186186  0.19741732  1  0.084619  0  0.118792  0.111562  0  0.98933  0
H  H20  1  0.65139266  0.05742065  0.18366846  1  0.081426  0  0.119443  0.11062  0  0.990868  0
H  H21  1  0.65031170  0.21504614  0.05338768  1  0.075463  0  0.118792  0.111205  0  0.989981  0
H  H22  1  0.95917213  0.21589449  0.37231873  1  0.082271  0  0.118753  0.111604  0  0.989734  0
H  H23  1  0.81841674  0.05770197  0.35379167  1  0.087425  0  0.119362  0.110785  0  0.990389  0
H  H24  1  0.20591723  0.65874339  0.01135657  1  0.114916  0  0.118611  0.11114  0  0.990391  0
H  H25  1  0.05161789  0.63223869  0.15167522  1  0.089875  0  0.11819  0.109261  0  0.993484  0
H  H26  1  0.32671095  0.98183919  0.21305224  1  0.079354  0  0.118585  0.111752  0  0.989689  0
H  H27  1  0.36542087  0.83301663  0.05792027  1  0.07004  0  0.118552  0.10947  0  0.992636  0
H  H28  1  0.02629293  0.78059405  0.34074640  1  0.082957  0  0.118705  0.111061  0  0.989904  0
H  H29  1  0.13578920  0.96211887  0.34981083  1  0.090705  0  0.118993  0.110079  0  0.991595  0
H  H30  1  0.21388284  0.35139942  0.95814010  1  0.084082  0  0.11901  0.111908  0  0.988566  0
H  H31  1  0.04907545  0.33856001  0.82590376  1  0.073369  0  0.118647  0.109455  0  0.991648  0
H  H32  1  0.35695415  0.01359370  0.80692080  1  0.093889  0  0.118822  0.111206  0  0.990472  0
H  H33  1  0.36604140  0.16843573  0.96090939  1  0.096861  0  0.118681  0.109933  0  0.991463  0
H  H34  1  0.03773105  0.16057660  0.65682453  1  0.1078  0  0.119153  0.110804  0  0.989806  0
H  H35  1  0.19653007  0.01947714  0.63941667  1  0.097525  0  0.119007  0.111166  0  0.989996  0
H  H36  1  0.00396848  0.55575110  0.86297579  1  0.056564  0  0.097535  0.100623  0  1.000791  0
H  H37  1  0.90833991  0.56432166  0.97903118  1  0.037121  0  0.093829  0.094377  0  1.006123  0
H  H38  1  0.00556175  0.44727637  0.10123914  1  0.052274  0  0.096811  0.099039  0  1.00492  0
H  H39  1  0.90827024  0.43114570  0.98722738  1  0.02285  0  0.09405  0.094988  0  1.002914  0
H  H40  1  0.11646819  0.55861256  0.97408855  1  0.071748  0  0.098326  0.101089  0  1.00378  0
H  H41  1  0.00480617  0.55528681  0.07416952  1  0.051827  0  0.094824  0.090125  0  1.014127  0
H  H42  1  0.11670258  0.44205675  0.98875842  1  0.058417  0  0.096418  0.097673  0  1.011233  0
H  H43  1  0.00396235  0.43680995  0.88972148  1  0.052173  0  0.094402  0.092333  0  1.007003  0
H  H44  1  0.55313497  0.87267541  0.00626726  1  0.034418  0  0.096402  0.100411  0  1.002196  0
H  H45  1  0.57169943  0.00073511  0.93780373  1  0.055606  0  0.096633  0.096398  0  1.003564  0
H  H46  1  0.45628184  0.99764894  0.89545225  1  0.035777  0  0.095971  0.098582  0  1.006542  0
H  H47  1  0.43632436  0.08563801  0.02131012  1  0.02755  0  0.097283  0.099251  0  0.99934  0
H  H48  1  0.55276269  0.12491852  0.02833196  1  0.048237  0  0.095235  0.097504  0  1.007209  0
H  H49  1  0.56887930  0.00122788  0.10441015  1  0.02139  0  0.096844  0.09897  0  1.000094  0
H  H50  1  0.44109836  0.00318427  0.13993649  1  0.059141  0  0.096537  0.100541  0  1.000998  0
H  H51  1  0.43815771  0.91481783  0.01284702  1  0.036052  0  0.096045  0.095519  0  1.006055  0
H  H52  1  0.85163852  0.98981644  0.55345087  1  0.063179  0  0.095762  0.098768  0  1.003124  0
H  H53  1  0.98206407  0.91413878  0.55868685  1  0.051077  0  0.096113  0.095652  0  1.005093  0
H  H54  1  0.98687584  0.87228293  0.44120542  1  0.022344  0  0.096696  0.100699  0  1.004602  0
H  H55  1  0.05824054  0.00385636  0.43118194  1  0.03329  0  0.096705  0.096057  0  1.004128  0
H  H56  1  0.10277252  0.00074291  0.54424332  1  0.058212  0  0.09577  0.098682  0  1.007371  0
H  H57  1  0.97740041  0.08123435  0.57495001  1  0.051371  0  0.097341  0.098903  0  0.998452  0
H  H58  1  0.97585935  0.12402155  0.46197604  1  0.060145  0  0.095263  0.096741  0  1.008359  0
H  H59  1  0.89166380  0.00054694  0.43393384  1  0.058688  0  0.096864  0.099618  0  0.999749  0
C  C60  1  0.86152591  0.64923147  0.88992713  1  0.425468  0  0.00413  -0.055687  0  3.946815  0
C  C61  1  0.92187722  0.62409172  0.86645480  1  -0.000181  0  -0.041347  0.017636  0  4.123826  0
C  C62  1  0.93681406  0.66328336  0.81494459  1  0.40551  0  0.00293  -0.064003  0  3.955819  0
C  C63  1  0.64624737  0.90226405  0.86877608  1  0.374561  0  0.004556  -0.05659  0  3.943891  0
C  C64  1  0.62249738  0.87773774  0.92650337  1  0.044243  0  -0.040699  0.020732  0  4.124116  0
C  C65  1  0.66059191  0.82133356  0.93333951  1  0.382951  0  0.001556  -0.066666  0  3.962487  0
C  C66  1  0.89696928  0.86128650  0.64838347  1  0.369419  0  0.005203  -0.054478  0  3.941  0
C  C67  1  0.86399065  0.91252385  0.61969935  1  0.028848  0  -0.041432  0.019065  0  4.125801  0
C  C68  1  0.80592005  0.92001178  0.65611930  1  0.398166  0  0.001557  -0.065624  0  3.961885  0
C  C69  1  0.86465794  0.35050017  0.08841187  1  0.369322  0  0.005022  -0.055281  0  3.943537  0
C  C70  1  0.92403175  0.38084536  0.10726068  1  0.020383  0  -0.040361  0.018805  0  4.127499  0
C  C71  1  0.93955681  0.35308446  0.16590371  1  0.417302  0  0.00282  -0.064606  0  3.958623  0
C  C72  1  0.66012564  0.10056205  0.15701254  1  0.419516  0  0.006438  -0.052657  0  3.937622  0
C  C73  1  0.62601776  0.12374650  0.10382384  1  -0.019994  0  -0.040894  0.020029  0  4.123688  0
C  C74  1  0.65941886  0.18143437  0.09099176  1  0.401435  0  0.001981  -0.064509  0  3.96361  0
C  C75  1  0.91957305  0.18224004  0.35923859  1  0.406666  0  0.002083  -0.065355  0  3.96161  0
C  C76  1  0.90176893  0.12414070  0.38735019  1  -0.007225  0  -0.040918  0.019717  0  4.123633  0
C  C77  1  0.84819380  0.10109866  0.34961075  1  0.393052  0  0.00569  -0.053752  0  3.938313  0
C  C78  1  0.17262482  0.66056970  0.05259668  1  0.360648  0  0.00278  -0.062662  0  3.957679  0
C  C79  1  0.11763510  0.62152195  0.06331038  1  0.062815  0  -0.040768  0.01571  0  4.125803  0
C  C80  1  0.09370734  0.64699926  0.12397583  1  0.387551  0  0.004359  -0.055868  0  3.944469  0
C  C81  1  0.32720933  0.93941935  0.17837962  1  0.391241  0  0.00196  -0.065678  0  3.960223  0
C  C82  1  0.37108142  0.92341258  0.12712031  1  0.079586  0  -0.040951  0.019831  0  4.124114  0
C  C83  1  0.34673018  0.86382999  0.09881699  1  0.364476  0  0.004908  -0.055037  0  3.943395  0
C  C84  1  0.05972105  0.82088572  0.33443398  1  0.360668  0  0.001751  -0.064378  0  3.960885  0
C  C85  1  0.06386513  0.88198986  0.36964818  1  0.048312  0  -0.041299  0.018871  0  4.127512  0
C  C86  1  0.11527032  0.91374067  0.33893413  1  0.405526  0  0.006021  -0.053553  0  3.93945  0
C  C87  1  0.17839738  0.33915257  0.92007219  1  0.454465  0  0.003141  -0.063102  0  3.959626  0
C  C88  1  0.11934477  0.37088767  0.90643743  1  -0.045311  0  -0.041137  0.016364  0  4.124353  0
C  C89  1  0.09419324  0.33281650  0.85273730  1  0.448771  0  0.005832  -0.052559  0  3.938435  0
C  C90  1  0.35101618  0.05726243  0.83941516  1  0.35166  0  0.002788  -0.063567  0  3.962958  0
C  C91  1  0.38492641  0.07601707  0.89689719  1  0.080619  0  -0.040837  0.020382  0  4.12592  0
C  C92  1  0.35531664  0.13583547  0.91850837  1  0.389358  0  0.005175  -0.055295  0  3.939115  0
C  C93  1  0.08154494  0.13111079  0.66154620  1  0.385479  0  0.006146  -0.053903  0  3.935237  0
C  C94  1  0.10332166  0.07543463  0.62356760  1  0.034845  0  -0.040718  0.020763  0  4.126848  0
C  C95  1  0.16300103  0.05955577  0.65245736  1  0.383177  0  0.002087  -0.064538  0  3.964386  0
C  C96  1  0.97665447  0.99902578  0.49981310  1  0.075625  0  -0.008011  0.155632  0  3.967494  0
C  C97  1  0.99325410  0.49768042  0.98134389  1  0.052175  0  -0.004997  0.160571  0  3.936877  0
C  C98  1  0.50313306  0.00039483  0.01973096  1  0.078873  0  -0.007209  0.156175  0  3.958822  0
C  C99  1  0.96107882  0.57222176  0.89167111  1  -0.119381  0  -0.102356  -0.127838  0  4.070802  0
C  C100  1  0.94964903  0.54625586  0.94890236  1  0.032982  0  -0.098934  -0.149469  0  3.923812  0
C  C101  1  0.96218837  0.42868662  0.07488940  1  -0.032752  0  -0.104001  -0.13074  0  4.081426  0
C  C102  1  0.94999203  0.45021913  0.01582567  1  -0.0599  0  -0.098295  -0.146685  0  3.917491  0
C  C103  1  0.08976269  0.57058901  0.01940886  1  0.030322  0  -0.100639  -0.127089  0  4.064349  0
C  C104  1  0.03209734  0.54127753  0.02960140  1  -0.15963  0  -0.094813  -0.137633  0  3.913884  0
C  C105  1  0.09013100  0.42560956  0.94461242  1  -0.057668  0  -0.101425  -0.127003  0  4.071784  0
C  C106  1  0.03179070  0.45330483  0.93313332  1  -0.060745  0  -0.096805  -0.142297  0  3.915249  0
C  C107  1  0.57225220  0.90503401  0.97049957  1  -0.00486  0  -0.103869  -0.136809  0  4.071828  0
C  C108  1  0.55034675  0.96718420  0.97113174  1  -0.066351  0  -0.094315  -0.139413  0  3.935402  0
C  C109  1  0.43606219  0.03862647  0.92622056  1  0.036529  0  -0.104779  -0.135129  0  4.077964  0
C  C110  1  0.45758768  0.04746595  0.98787362  1  -0.12521  0  -0.094629  -0.142208  0  3.921287  0
C  C111  1  0.57248518  0.09482855  0.06579440  1  0.01093  0  -0.104027  -0.135049  0  4.080113  0
C  C112  1  0.54880745  0.03380944  0.06939151  1  -0.045272  0  -0.096587  -0.144017  0  3.925538  0
C  C113  1  0.42576438  0.96223325  0.10643860  1  -0.064611  0  -0.104261  -0.135833  0  4.071479  0
C  C114  1  0.45524675  0.95349494  0.04798991  1  -0.040876  0  -0.095068  -0.140186  0  3.923437  0
C  C115  1  0.88608806  0.95261655  0.56848095  1  -0.067965  0  -0.104314  -0.135346  0  4.074064  0
C  C116  1  0.94656726  0.94964855  0.54234881  1  -0.052236  0  -0.09628  -0.14174  0  3.93466  0
C  C117  1  0.02264497  0.90660078  0.42335807  1  0.040768  0  -0.105144  -0.137216  0  4.075886  0
C  C118  1  0.02426932  0.96846767  0.45006120  1  -0.080245  0  -0.095109  -0.140065  0  3.935753  0
C  C119  1  0.07249585  0.03896157  0.56924032  1  -0.022471  0  -0.104793  -0.136577  0  4.081907  0
C  C120  1  0.01016816  0.04557883  0.54961467  1  -0.100924  0  -0.094479  -0.140579  0  3.926045  0
C  C121  1  0.93654206  0.09436787  0.43910406  1  -0.007155  0  -0.104337  -0.133321  0  4.080644  0
C  C122  1  0.92851391  0.03287829  0.45731451  1  -0.08409  0  -0.096183  -0.145417  0  3.925535  0
N  N123  1  0.88927133  0.70851848  0.80874373  1  -0.769868  0  -0.338208  -0.14312  0  3.769775  0
N  N124  1  0.84255085  0.69948977  0.85535124  1  -0.780315  0  -0.339558  -0.138413  0  3.78788  0
N  N125  1  0.70397227  0.81337119  0.88388809  1  -0.764287  0  -0.341626  -0.142846  0  3.782466  0
N  N126  1  0.69479679  0.86352854  0.84371606  1  -0.781556  0  -0.337203  -0.137768  0  3.77911  0
N  N127  1  0.80469589  0.87698257  0.70303091  1  -0.779264  0  -0.340718  -0.144174  0  3.77459  0
N  N128  1  0.86125147  0.84036507  0.69791913  1  -0.782748  0  -0.335713  -0.13737  0  3.776955  0
N  N129  1  0.89318370  0.30954960  0.18061948  1  -0.771337  0  -0.3406  -0.142005  0  3.777693  0
N  N130  1  0.84668768  0.30815855  0.13245004  1  -0.76917  0  -0.338236  -0.138121  0  3.785626  0
N  N131  1  0.70972033  0.19145625  0.13275309  1  -0.771948  0  -0.34092  -0.142475  0  3.781221  0
N  N132  1  0.70992841  0.14131824  0.17397264  1  -0.775602  0  -0.336025  -0.140298  0  3.774215  0
N  N133  1  0.83559835  0.14228495  0.30274039  1  -0.765809  0  -0.335538  -0.139044  0  3.775261  0
N  N134  1  0.88016029  0.19260646  0.30844921  1  -0.780792  0  -0.340632  -0.142674  0  3.780198  0
N  N135  1  0.13134838  0.69725414  0.14701605  1  -0.78025  0  -0.338851  -0.138198  0  3.783326  0
N  N136  1  0.18043735  0.70595553  0.10272245  1  -0.773522  0  -0.339666  -0.144474  0  3.770345  0
N  N137  1  0.29258121  0.84622284  0.13069839  1  -0.779096  0  -0.337486  -0.140418  0  3.781202  0
N  N138  1  0.28018370  0.89326199  0.18002593  1  -0.758706  0  -0.340179  -0.141729  0  3.776591  0
N  N139  1  0.13950876  0.87444354  0.28951218  1  -0.781818  0  -0.33785  -0.138161  0  3.782295  0
N  N140  1  0.10494026  0.81677847  0.28642864  1  -0.775757  0  -0.341922  -0.145262  0  3.780226  0
N  N141  1  0.13506379  0.28253302  0.83622480  1  -0.789323  0  -0.336024  -0.138243  0  3.774129  0
N  N142  1  0.18745042  0.28628280  0.87815518  1  -0.778812  0  -0.340285  -0.144792  0  3.774634  0
N  N143  1  0.30752901  0.15103667  0.87697406  1  -0.763264  0  -0.336375  -0.138124  0  3.773421  0
N  N144  1  0.30465670  0.10211194  0.82799598  1  -0.787474  0  -0.343027  -0.144347  0  3.789636  0
N  N145  1  0.17552439  0.10208536  0.70377924  1  -0.774272  0  -0.342451  -0.142968  0  3.788595  0
N  N146  1  0.12507214  0.14673243  0.70919570  1  -0.797689  0  -0.336392  -0.139665  0  3.775082  0
