# generated using pymatgen
data_CuH14C19S(NO3)2
_symmetry_space_group_name_H-M   'P 1'
_cell_length_a   9.58692923
_cell_length_b   9.91217078
_cell_length_c   10.77310613
_cell_angle_alpha   66.46591291
_cell_angle_beta   77.37644020
_cell_angle_gamma   63.52849767
_symmetry_Int_Tables_number   1
_chemical_formula_structural   CuH14C19S(NO3)2
_chemical_formula_sum   'Cu2 H28 C38 S2 N4 O12'
_cell_volume   839.15547536
_cell_formula_units_Z   2
loop_
 _symmetry_equiv_pos_site_id
 _symmetry_equiv_pos_as_xyz
  1  'x, y, z'
loop_
 _atom_site_type_symbol
 _atom_site_label
 _atom_site_symmetry_multiplicity
 _atom_site_fract_x
 _atom_site_fract_y
 _atom_site_fract_z
 _atom_site_occupancy
 _atom_site_hle17_bader_charge
 _atom_site_hle17_bader_spin_density
 _atom_site_hle17_ddec_charge
 _atom_site_hle17_ddec_spin_density
 _atom_site_hle17_ddec_sum_bond_order
 _atom_site_hle17_magmom
 _atom_site_hse06_10hf_ddec_charge
 _atom_site_hse06_10hf_ddec_spin_density
 _atom_site_hse06_10hf_ddec_sum_bond_order
 _atom_site_hse06_10hf_magmom
 _atom_site_hse06_ddec_charge
 _atom_site_hse06_ddec_spin_density
 _atom_site_hse06_ddec_sum_bond_order
 _atom_site_hse06_magmom
 _atom_site_pbe_cm5_charge
 _atom_site_pbe_ddec_charge
 _atom_site_pbe_ddec_spin_density
 _atom_site_pbe_ddec_sum_bond_order
 _atom_site_pbe_magmom
Cu  Cu0  1  0.19856841  0.38530343  0.28462060  1  1.12916  -0.526948  0.890686  -0.704168  1.795223  -0.526  0.867223  -0.786411  2.18944  -0.638  0.95316  -0.848212  2.122714  -0.72  0.748634  0.815739  -0.743879  2.236231  -0.586
Cu  Cu1  1  0.80142963  0.61469657  0.71538038  1  1.129169  -0.526945  0.890693  -0.704164  1.795227  -0.526  0.867147  -0.786408  2.189611  -0.638  0.953124  -0.848214  2.122754  -0.72  0.748613  0.815645  -0.743888  2.236349  -0.586
H  H2  1  0.30785976  0.80293980  0.12486985  1  0.02484  -0.000244  0.110427  -0.000248  0.952994  0.0  0.119902  -0.000147  1.01543  0.0  0.123826  -9.7e-05  1.012371  0.0  0.10397  0.117279  -0.000178  1.017469  0.0
H  H3  1  0.69214103  0.19706139  0.87512738  1  0.024983  -0.000244  0.110338  -0.000248  0.95308  0.0  0.119859  -0.000147  1.015478  0.0  0.123777  -9.7e-05  1.012435  0.0  0.103931  0.117241  -0.000178  1.017497  0.0
H  H4  1  0.42290311  0.99854160  0.07519548  1  0.041987  1.3e-05  0.103163  3e-06  0.972789  0.0  0.111519  -1.6e-05  1.03803  0.0  0.114761  -1.7e-05  1.036406  0.0  0.102957  0.109063  -9e-06  1.039449  0.0
H  H5  1  0.57709768  0.00145959  0.92480174  1  0.042131  1.1e-05  0.103075  1e-06  0.972826  0.0  0.111427  -1.7e-05  1.0381  0.0  0.114672  -1.6e-05  1.036469  0.0  0.10291  0.108967  -9e-06  1.039523  0.0
H  H6  1  0.47969543  0.85250424  0.50266050  1  0.09099  -0.000245  0.116421  -0.000162  0.993679  0.0  0.123649  -9.7e-05  1.057405  0.0  0.127502  -6.6e-05  1.05478  0.0  0.103536  0.120573  -0.000117  1.059702  0.0
H  H7  1  0.52030383  0.14749816  0.49733752  1  0.091193  -0.000247  0.116409  -0.000163  0.993671  0.0  0.123661  -9.8e-05  1.057377  0.0  0.127495  -6.6e-05  1.05477  0.0  0.103524  0.120586  -0.000117  1.059676  0.0
H  H8  1  0.35971754  0.66014605  0.55135856  1  0.021832  2.3e-05  0.091674  2.9e-05  0.9693  0.0  0.101887  7e-06  1.033314  0.0  0.104646  3e-06  1.032199  0.0  0.10234  0.100202  2.2e-05  1.033517  0.0
H  H9  1  0.64028279  0.33985634  0.44863925  1  0.021792  2.4e-05  0.091664  2.9e-05  0.969329  0.0  0.101881  7e-06  1.03333  0.0  0.104637  3e-06  1.032225  0.0  0.102339  0.100196  2.2e-05  1.033537  0.0
H  H10  1  0.35320975  0.58497612  0.03881214  1  0.062878  -0.003479  0.09434  -0.001712  0.940496  -0.003  0.101469  -0.001285  1.005989  -0.002  0.103474  -0.000863  1.003397  -0.002  0.123386  0.099142  -0.001611  1.00925  -0.003
H  H11  1  0.64678936  0.41502386  0.96118956  1  0.062896  -0.003482  0.094344  -0.001713  0.940477  -0.003  0.101474  -0.001285  1.005983  -0.002  0.103478  -0.000863  1.003393  -0.002  0.123393  0.099145  -0.001611  1.009246  -0.003
H  H12  1  0.41684074  0.60195566  0.79651440  1  0.060463  -0.001047  0.121983  -0.000552  0.944193  -0.001  0.129661  -0.000512  1.004186  -0.001  0.132638  -0.000367  1.003793  0.0  0.112632  0.127138  -0.000601  1.004875  -0.001
H  H13  1  0.58315838  0.39804433  0.20348731  1  0.060464  -0.001045  0.121971  -0.000551  0.944207  -0.001  0.129662  -0.000512  1.004184  -0.001  0.13264  -0.000367  1.00379  0.0  0.112637  0.127142  -0.000601  1.004874  -0.001
H  H14  1  0.31980641  0.46045840  0.70663393  1  0.063821  -0.000727  0.114594  -0.000359  0.958218  -0.001  0.123402  -2.9e-05  1.02115  0.0  0.126263  2.3e-05  1.019291  0.0  0.112138  0.120726  -9.3e-05  1.023561  0.0
H  H15  1  0.68019117  0.53954280  0.29336763  1  0.064523  -0.00073  0.114584  -0.00036  0.958218  -0.001  0.123395  -2.9e-05  1.021147  0.0  0.126257  2.3e-05  1.019286  0.0  0.112122  0.120727  -9.3e-05  1.02355  0.0
H  H16  1  0.16472282  0.28939890  0.75597430  1  0.03409  -0.000624  0.116428  -0.000353  0.944765  -0.001  0.127838  -0.000226  1.003297  -0.001  0.13101  -8.5e-05  1.001853  0.0  0.113013  0.125418  -0.000688  1.004565  -0.001
H  H17  1  0.83527997  0.71059986  0.24402714  1  0.034068  -0.000628  0.116399  -0.000355  0.94483  -0.001  0.127821  -0.000226  1.003355  -0.001  0.130994  -8.5e-05  1.001911  0.0  0.113024  0.125431  -0.000688  1.004583  -0.001
H  H18  1  0.00716982  0.14883531  0.91814602  1  0.03631  -0.000817  0.10553  -0.000436  0.935524  -0.001  0.120619  -0.000332  0.989465  0.0  0.122728  -0.000207  0.989398  0.0  0.111588  0.119038  -0.000345  0.98933  0.0
H  H19  1  0.99283343  0.85116226  0.08185483  1  0.036292  -0.000813  0.105514  -0.000434  0.935533  -0.001  0.120593  -0.000332  0.989492  0.0  0.122707  -0.000207  0.989418  0.0  0.111589  0.119014  -0.000345  0.989355  0.0
H  H20  1  0.88830598  0.05978586  0.16430943  1  0.076797  -0.000572  0.1127  -0.000293  0.948427  -0.001  0.120602  -2.8e-05  1.011443  0.0  0.123808  1.7e-05  1.008625  0.0  0.112556  0.117987  -5.9e-05  1.014179  0.0
H  H21  1  0.11169267  0.94021534  0.83569099  1  0.076789  -0.00057  0.112703  -0.000292  0.948422  -0.001  0.120606  -2.8e-05  1.011431  0.0  0.12381  1.7e-05  1.008615  0.0  0.11257  0.117992  -5.9e-05  1.014165  0.0
H  H22  1  0.85847598  0.06156351  0.39644512  1  0.098806  -0.000916  0.11351  -0.000496  0.962143  -0.001  0.121133  -0.000451  1.024491  -0.001  0.123851  -0.000328  1.024682  0.0  0.109872  0.119339  -0.000564  1.024092  -0.001
H  H23  1  0.14152068  0.93844010  0.60355388  1  0.098795  -0.000919  0.113513  -0.000497  0.962109  -0.001  0.121101  -0.000451  1.024489  -0.001  0.123819  -0.000328  1.02468  0.0  0.109867  0.119311  -0.000565  1.024094  -0.001
H  H24  1  0.98852680  0.20134451  0.45406678  1  0.065731  -0.002873  0.095741  -0.001369  0.936987  -0.002  0.103577  -0.001055  0.99941  -0.002  0.105479  -0.000734  0.997397  -0.001  0.124359  0.102099  -0.00131  1.000597  -0.002
H  H25  1  0.01146880  0.79865909  0.54593522  1  0.065763  -0.00287  0.095755  -0.001367  0.937044  -0.002  0.10358  -0.001055  0.99947  -0.002  0.105485  -0.000733  0.997462  -0.001  0.124341  0.102103  -0.001309  1.000656  -0.002
H  H26  1  0.22390983  0.21007377  0.53817138  1  0.681105  0.000658  0.433013  0.000299  0.862419  0.0  0.405861  -0.000524  0.92096  -0.001  0.417182  -0.000314  0.904929  -0.001  0.295604  0.397993  -0.000718  0.932058  -0.001
H  H27  1  0.77608775  0.78992743  0.46182925  1  0.681095  0.000658  0.432996  0.000299  0.862437  0.0  0.405829  -0.000524  0.920999  -0.001  0.41715  -0.000314  0.904969  -0.001  0.295594  0.397961  -0.000718  0.932098  -0.001
H  H28  1  0.17900930  0.39935512  0.50390858  1  0.663475  0.000847  0.407758  0.000756  0.911149  0.002  0.377852  2.6e-05  0.974252  0.001  0.390903  0.000243  0.956101  0.001  0.283487  0.368725  -0.000308  0.986912  0.0
H  H29  1  0.82098935  0.60064608  0.49609091  1  0.663474  0.000847  0.40776  0.000756  0.911136  0.002  0.377853  2.6e-05  0.974245  0.001  0.390905  0.000243  0.956093  0.001  0.283484  0.368726  -0.000308  0.986906  0.0
C  C30  1  0.26363612  0.59278576  0.37588602  1  1.520559  0.003487  0.641104  0.004679  3.871312  0.005  0.601236  4.1e-05  4.161565  0.001  0.638764  0.000534  4.154146  0.001  0.213426  0.575511  -0.000492  4.165538  0.001
C  C31  1  0.73636467  0.40721542  0.62411214  1  1.520389  0.003487  0.6412  0.004679  3.871202  0.005  0.601282  4.3e-05  4.161469  0.001  0.638807  0.000532  4.154057  0.001  0.213416  0.575555  -0.000491  4.165443  0.001
C  C32  1  0.32576796  0.71835996  0.34211519  1  -0.058452  -0.01181  -0.074859  -0.008732  3.769932  -0.01  -0.051862  -0.004543  3.998339  -0.005  -0.058939  -0.003203  4.019913  -0.004  -0.020753  -0.047032  -0.005625  3.983667  -0.006
C  C33  1  0.67423436  0.28164004  0.65788125  1  -0.058384  -0.011792  -0.074858  -0.008719  3.769989  -0.01  -0.051791  -0.004541  3.998321  -0.005  -0.058861  -0.003204  4.019896  -0.004  -0.020696  -0.046962  -0.005624  3.983649  -0.006
C  C34  1  0.34294404  0.81480887  0.20813066  1  0.074393  0.002695  -0.066283  0.002945  3.718627  0.002  -0.088655  0.000822  3.966666  0.001  -0.088305  0.000886  3.985397  0.001  -0.085882  -0.088957  0.000753  3.955031  0.001
C  C35  1  0.65705828  0.18519112  0.79186670  1  0.07419  0.002672  -0.066233  0.002921  3.718721  0.002  -0.088656  0.000818  3.966735  0.001  -0.08831  0.000886  3.985468  0.001  -0.085892  -0.088954  0.000753  3.955103  0.001
C  C36  1  0.40928058  0.92450688  0.17953674  1  0.078143  -0.001467  -0.069184  -0.000945  3.744657  -0.001  -0.095396  -9.6e-05  3.998778  0.0  -0.096357  -0.000136  4.019758  0.0  -0.088433  -0.094476  -2.9e-05  3.985656  0.0
C  C37  1  0.59072236  0.07549430  0.82045915  1  0.078164  -0.001449  -0.069095  -0.000933  3.744702  -0.001  -0.095329  -9.6e-05  3.998843  0.0  -0.096285  -0.000135  4.019815  0.0  -0.088396  -0.094405  -2.9e-05  3.985715  0.0
C  C38  1  0.46040268  0.93621099  0.28510945  1  -0.185061  0.0022  -0.112728  0.002391  3.728274  0.002  -0.089669  0.00079  3.978221  0.0  -0.095727  0.000806  4.000528  0.0  -0.020155  -0.085632  0.000835  3.963412  0.0
C  C39  1  0.53960164  0.06378658  0.71488841  1  -0.185168  0.002182  -0.112685  0.002373  3.728368  0.001  -0.08961  0.000803  3.978287  0.0  -0.095664  0.000794  4.00059  0.0  -0.020118  -0.085571  0.000835  3.963478  0.0
C  C40  1  0.44072720  0.84319274  0.41981509  1  0.01171  -0.002096  -0.070557  -0.001405  3.725766  -0.002  -0.095888  -0.0004  3.977279  -0.001  -0.096704  -0.000334  3.996731  0.0  -0.092182  -0.094678  -0.000562  3.963975  -0.001
C  C41  1  0.55927298  0.15680726  0.58018362  1  0.011555  -0.002074  -0.070579  -0.00139  3.72583  -0.002  -0.095931  -0.000399  3.977323  -0.001  -0.096729  -0.000335  3.996793  0.0  -0.092184  -0.094721  -0.000562  3.964024  -0.001
C  C42  1  0.37329214  0.73530596  0.44738789  1  0.033801  0.000201  -0.066437  0.000589  3.732237  0.0  -0.08966  -0.000377  3.983848  -0.001  -0.090298  -3.7e-05  4.004362  0.0  -0.085779  -0.089075  -0.000624  3.96904  -0.001
C  C43  1  0.62670865  0.26469523  0.55260933  1  0.033807  0.000182  -0.066422  0.00057  3.732252  0.0  -0.089667  -0.00038  3.983837  -0.001  -0.090308  -3.5e-05  4.004346  0.0  -0.085783  -0.089083  -0.000624  3.969032  -0.001
C  C44  1  0.31756447  0.52153695  0.99784168  1  0.539691  0.0114  0.15882  0.012881  3.646975  0.009  0.127155  0.003159  3.907938  0.002  0.139668  0.0051  3.922952  0.003  0.066447  0.118332  0.001774  3.900141  0.001
C  C45  1  0.68243571  0.47846303  0.00215889  1  0.539704  0.011435  0.158816  0.012921  3.646883  0.009  0.127129  0.00316  3.90787  0.002  0.139641  0.005102  3.922888  0.003  0.06643  0.118304  0.001774  3.900072  0.001
C  C46  1  0.35105423  0.53112603  0.86144407  1  0.085264  -0.015163  -0.107716  -0.010824  3.681598  -0.012  -0.120433  -0.004863  3.937054  -0.006  -0.128206  -0.00406  3.957156  -0.005  -0.075235  -0.114439  -0.005513  3.924271  -0.007
C  C47  1  0.64894595  0.46887394  0.13855743  1  0.085251  -0.015206  -0.107698  -0.010853  3.681547  -0.012  -0.120418  -0.004861  3.937009  -0.006  -0.128192  -0.004062  3.957111  -0.005  -0.07522  -0.114427  -0.005513  3.924233  -0.007
C  C48  1  0.29889947  0.45290363  0.81249546  1  0.093139  0.012984  -0.030666  0.014292  3.634757  0.009  -0.056032  0.005514  3.881161  0.003  -0.052686  0.00601  3.898943  0.003  -0.056035  -0.059516  0.004998  3.87133  0.003
C  C49  1  0.70110010  0.54709516  0.18750659  1  0.092387  0.013029  -0.030683  0.014342  3.634768  0.009  -0.056065  0.005508  3.881191  0.003  -0.05272  0.006015  3.898972  0.003  -0.056043  -0.059555  0.004998  3.871361  0.003
C  C50  1  0.21224613  0.36471544  0.90072454  1  -0.017325  -0.007382  0.039968  -0.005388  3.765144  -0.006  0.05533  -0.002472  3.997785  -0.003  0.052676  -0.001963  4.02178  -0.003  0.005326  0.057383  -0.002828  3.982232  -0.003
C  C51  1  0.78775298  0.63528453  0.09927809  1  -0.017342  -0.007421  0.03999  -0.005415  3.765158  -0.006  0.055374  -0.002471  3.997771  -0.003  0.052721  -0.001963  4.021768  -0.003  0.005312  0.057425  -0.002828  3.98223  -0.003
C  C52  1  0.14624227  0.28473391  0.86074245  1  0.115081  -0.001736  -0.088352  -0.00109  3.697445  -0.002  -0.119367  -0.000513  3.969765  -0.001  -0.122333  -0.000238  3.989731  -0.001  -0.0753  -0.118429  -0.000576  3.957239  -0.001
C  C53  1  0.85375883  0.71526367  0.13925975  1  0.115199  -0.001668  -0.088302  -0.001041  3.697543  -0.002  -0.119344  -0.000514  3.969874  -0.001  -0.122309  -0.000237  3.989838  -0.001  -0.07528  -0.118429  -0.000576  3.957339  -0.001
C  C54  1  0.06042347  0.20465941  0.95153447  1  -0.034891  -0.001428  -0.08083  -0.00099  3.701025  -0.001  -0.107426  -0.000272  3.961923  0.0  -0.10972  -0.000206  3.984179  0.0  -0.076158  -0.104561  -0.000233  3.945807  0.0
C  C55  1  0.93957917  0.79533696  0.04846787  1  -0.035016  -0.001495  -0.080776  -0.001038  3.70116  -0.001  -0.107378  -0.000275  3.96204  0.0  -0.109678  -0.000207  3.984298  0.0  -0.076143  -0.104515  -0.000232  3.945938  0.0
C  C56  1  0.03581526  0.19479652  0.09033062  1  0.030982  -0.006092  0.026786  -0.004422  3.79244  -0.005  0.045777  -0.002182  4.01672  -0.003  0.042485  -0.001757  4.041013  -0.002  0.002199  0.047872  -0.002408  4.000821  -0.003
C  C57  1  0.96418539  0.80520226  0.90967123  1  0.031001  -0.006053  0.026746  -0.004395  3.792526  -0.005  0.04578  -0.002185  4.016756  -0.003  0.042489  -0.001753  4.041047  -0.002  0.002199  0.047874  -0.002408  4.000854  -0.003
C  C58  1  0.94753739  0.11639336  0.18979059  1  0.027371  0.010989  -0.02962  0.012074  3.649119  0.007  -0.053962  0.004872  3.893893  0.003  -0.049052  0.005313  3.909207  0.003  -0.05387  -0.058344  0.00477  3.886046  0.003
C  C59  1  0.05246173  0.88360663  0.81021111  1  0.027374  0.010944  -0.02963  0.012024  3.649062  0.007  -0.053971  0.004878  3.893802  0.003  -0.049059  0.00531  3.909113  0.003  -0.053916  -0.058357  0.00477  3.885956  0.003
C  C60  1  0.93075101  0.11686414  0.32050415  1  0.023795  -0.012246  -0.112216  -0.008684  3.708645  -0.01  -0.126442  -0.003984  3.962472  -0.005  -0.135017  -0.003418  3.983718  -0.004  -0.078528  -0.12142  -0.004477  3.948976  -0.006
C  C61  1  0.06924504  0.88313827  0.67949634  1  0.024201  -0.012201  -0.112236  -0.008654  3.708518  -0.01  -0.126433  -0.003986  3.962351  -0.005  -0.135008  -0.003416  3.983597  -0.004  -0.078503  -0.121421  -0.004477  3.948859  -0.006
C  C62  1  0.00186531  0.19450707  0.35345707  1  0.554018  0.010342  0.156567  0.011484  3.655009  0.008  0.127609  0.003349  3.914618  0.002  0.139716  0.004823  3.930924  0.003  0.064408  0.120049  0.00236  3.903313  0.001
C  C63  1  0.99813074  0.80549535  0.64654342  1  0.553619  0.010305  0.156559  0.011442  3.655073  0.008  0.127619  0.003351  3.914647  0.002  0.139722  0.00482  3.930966  0.003  0.064385  0.120056  0.002361  3.903337  0.001
C  C64  1  0.18732671  0.35878529  0.03680257  1  0.449525  0.002678  0.120246  0.003448  3.775095  0.002  0.114725  0.000293  4.016017  0.0  0.119857  0.001558  4.038824  0.001  0.113182  0.111518  -0.000612  4.001445  -0.001
C  C65  1  0.81267332  0.64121230  0.96319983  1  0.449539  0.002715  0.120177  0.003487  3.775088  0.002  0.114648  0.000293  4.016011  0.0  0.119776  0.001558  4.038827  0.001  0.113151  0.111443  -0.000612  4.001434  -0.001
C  C66  1  0.10186601  0.27122892  0.13215191  1  0.448759  0.002068  0.126069  0.002708  3.783108  0.002  0.121488  0.000359  4.02191  0.0  0.127165  0.001365  4.045071  0.001  0.115814  0.117292  -0.000385  4.007956  -0.001
C  C67  1  0.89813463  0.72876986  0.86784994  1  0.448749  0.002029  0.126163  0.002667  3.783054  0.001  0.121555  0.000364  4.021868  0.0  0.127236  0.001357  4.045037  0.001  0.115849  0.117356  -0.000385  4.007908  -0.001
S  S68  1  0.55737045  0.06577823  0.25227937  1  3.089948  0.00032  1.296295  0.000389  5.655825  0.0  1.201613  0.000187  6.178348  0.0  1.250769  0.000212  6.152812  0.0  0.504006  1.168115  9.8e-05  6.193749  0.0
S  S69  1  0.44262973  0.93422177  0.74771841  1  3.089999  0.000322  1.296176  0.000391  5.655996  0.0  1.201514  0.000178  6.178502  0.0  1.250662  0.000211  6.152977  0.0  0.503918  1.168007  9.9e-05  6.193904  0.0
N  N70  1  0.23887827  0.43661992  0.08309194  1  -1.213469  -0.119819  -0.321727  -0.084114  3.343516  -0.108  -0.282384  -0.058364  3.640153  -0.08  -0.313757  -0.047091  3.662987  -0.069  -0.338606  -0.26459  -0.064971  3.628303  -0.085
N  N71  1  0.76112391  0.56337763  0.91691098  1  -1.213469  -0.119848  -0.321704  -0.084135  3.343489  -0.108  -0.282317  -0.058364  3.640112  -0.08  -0.313694  -0.047092  3.662932  -0.069  -0.338591  -0.264517  -0.06497  3.628239  -0.085
N  N72  1  0.08573966  0.26905959  0.26123670  1  -1.233486  -0.10495  -0.333759  -0.073473  3.336751  -0.096  -0.295921  -0.051433  3.640492  -0.071  -0.326484  -0.041843  3.661017  -0.063  -0.343725  -0.277592  -0.057002  3.629433  -0.075
N  N73  1  0.91425884  0.73093920  0.73876555  1  -1.23344  -0.104918  -0.333811  -0.073449  3.336826  -0.096  -0.295966  -0.051434  3.640593  -0.071  -0.326547  -0.04184  3.661111  -0.063  -0.343711  -0.27763  -0.057003  3.629508  -0.075
O  O74  1  0.25174319  0.56016921  0.27492216  1  -1.127627  -0.127382  -0.603012  -0.085378  2.068055  -0.118  -0.582762  -0.049156  2.358334  -0.075  -0.624947  -0.035445  2.349453  -0.059  -0.327858  -0.552706  -0.058974  2.364086  -0.085
O  O75  1  0.74825638  0.43982959  0.72507803  1  -1.127617  -0.12738  -0.603042  -0.085378  2.067994  -0.118  -0.582778  -0.049156  2.358318  -0.075  -0.624969  -0.035445  2.349418  -0.059  -0.327844  -0.552723  -0.058972  2.364061  -0.085
O  O76  1  0.22990011  0.52583771  0.49878146  1  -1.190425  6.2e-05  -0.595075  0.001235  2.001155  0.0  -0.546769  0.001143  2.222157  0.0  -0.572888  0.001684  2.21361  0.001  -0.30537  -0.528372  0.000377  2.227786  0.0
O  O77  1  0.77010068  0.47416347  0.50121670  1  -1.190299  6.4e-05  -0.595128  0.001237  2.001185  0.0  -0.546796  0.001141  2.222185  0.0  -0.572915  0.001688  2.213638  0.001  -0.305363  -0.5284  0.000378  2.227818  0.0
O  O78  1  0.70155935  0.96337273  0.32799138  1  -1.345283  -0.001791  -0.691053  -0.001267  1.981324  -0.002  -0.626634  -0.000906  2.220613  -0.001  -0.648512  -0.000513  2.206228  -0.001  -0.342199  -0.61094  -0.001497  2.229559  -0.002
O  O79  1  0.29844038  0.03662846  0.67200791  1  -1.345334  -0.00179  -0.690945  -0.001267  1.981297  -0.002  -0.626594  -0.000909  2.220631  -0.001  -0.648469  -0.000506  2.206247  -0.001  -0.34218  -0.610899  -0.001497  2.229577  -0.002
O  O80  1  0.58657059  0.12831795  0.10595378  1  -1.317404  -6e-05  -0.652618  -4.9e-05  1.924318  0.0  -0.607073  -4e-06  2.173754  0.0  -0.627579  3e-05  2.162774  0.0  -0.345112  -0.591821  -6e-05  2.180289  0.0
O  O81  1  0.41342975  0.87168443  0.89404496  1  -1.317346  -5.9e-05  -0.652597  -4.8e-05  1.924378  0.0  -0.607043  -6e-06  2.173785  0.0  -0.627548  3.3e-05  2.162804  0.0  -0.345075  -0.591789  -5.9e-05  2.180321  0.0
O  O82  1  0.45171729  0.19165359  0.31016065  1  -1.343636  0.000603  -0.700097  0.000853  2.048531  -0.001  -0.657601  0.00071  2.33046  -0.001  -0.68271  0.001244  2.313068  0.0  -0.352535  -0.639952  4.1e-05  2.342883  -0.002
O  O83  1  0.54828289  0.80834640  0.68983806  1  -1.343687  0.000601  -0.700113  0.000851  2.048615  -0.001  -0.657572  0.000714  2.330507  -0.001  -0.682689  0.001238  2.313108  0.0  -0.352525  -0.639919  4.1e-05  2.342919  -0.002
O  O84  1  0.15316474  0.31983071  0.48344423  1  -1.261437  -0.109655  -0.787039  -0.074138  1.932395  -0.101  -0.757186  -0.050592  2.148126  -0.074  -0.792099  -0.038311  2.112855  -0.061  -0.581152  -0.733991  -0.058677  2.172572  -0.08
O  O85  1  0.84683498  0.68017048  0.51655506  1  -1.261423  -0.109659  -0.787005  -0.074141  1.932366  -0.101  -0.757137  -0.050594  2.148121  -0.074  -0.792059  -0.038312  2.112831  -0.061  -0.581149  -0.733941  -0.058679  2.172555  -0.08
