# generated using pymatgen
data_CuPH19C23BrN
_symmetry_space_group_name_H-M   'P 1'
_cell_length_a   9.01668679
_cell_length_b   9.21120744
_cell_length_c   12.87836123
_cell_angle_alpha   107.02658045
_cell_angle_beta   106.14083029
_cell_angle_gamma   93.39194732
_symmetry_Int_Tables_number   1
_chemical_formula_structural   CuPH19C23BrN
_chemical_formula_sum   'Cu2 P2 H38 C46 Br2 N2'
_cell_volume   970.83680648
_cell_formula_units_Z   2
loop_
 _symmetry_equiv_pos_site_id
 _symmetry_equiv_pos_as_xyz
  1  'x, y, z'
loop_
 _atom_site_type_symbol
 _atom_site_label
 _atom_site_symmetry_multiplicity
 _atom_site_fract_x
 _atom_site_fract_y
 _atom_site_fract_z
 _atom_site_occupancy
 _atom_site_pbe_bader_spin_density
 _atom_site_pbe_cm5_charge
 _atom_site_pbe_ddec_charge
 _atom_site_pbe_ddec_spin_density
 _atom_site_pbe_ddec_sum_bond_order
 _atom_site_pbe_magmom
Cu  Cu0  1  0.94372560  0.00980657  0.09614378  1  0  0.367494  0.132389  0  2.738657  0
Cu  Cu1  1  0.05627460  0.99019335  0.90385888  1  0  0.36748  0.132417  0  2.738653  0
P  P2  1  0.98445833  0.20580403  0.25175127  1  0  -0.044469  0.208787  0  4.263487  0
P  P3  1  0.01554569  0.79419814  0.74825028  1  0  -0.044524  0.208692  0  4.263481  0
H  H4  1  0.94755669  0.70932177  0.13947086  1  0  0.106214  0.07682  0  1.039777  0
H  H5  1  0.05244904  0.29068386  0.86053327  1  0  0.106257  0.076846  0  1.039726  0
H  H6  1  0.75924331  0.48169949  0.10315347  1  0  0.104773  0.11057  0  1.03686  0
H  H7  1  0.24076205  0.51830382  0.89684857  1  0  0.104793  0.110599  0  1.036832  0
H  H8  1  0.39864560  0.70367333  0.93666776  1  0  0.10067  0.109407  0  1.045911  0
H  H9  1  0.60136056  0.29632774  0.06333863  1  0  0.100611  0.10936  0  1.04593  0
H  H10  1  0.60392441  0.91943233  0.97890242  1  0  0.104883  0.081786  0  1.034404  0
H  H11  1  0.39607969  0.08056303  0.02110473  1  0  0.104873  0.081747  0  1.034363  0
H  H12  1  0.25157634  0.06024690  0.32004829  1  0  0.09014  0.089388  0  1.057476  0
H  H13  1  0.74842325  0.93975644  0.67995263  1  0  0.090141  0.08938  0  1.057544  0
H  H14  1  0.39336190  0.01991410  0.50289338  1  0  0.095109  0.086527  0  1.035446  0
H  H15  1  0.60663847  0.98008692  0.49710566  1  0  0.0951  0.086503  0  1.035438  0
H  H16  1  0.29583662  0.10182960  0.67006528  1  0  0.09755  0.094248  0  1.023138  0
H  H17  1  0.70416224  0.89816916  0.32993611  1  0  0.097538  0.094223  0  1.023171  0
H  H18  1  0.05048492  0.21745483  0.65281102  1  0  0.098823  0.09433  0  1.015571  0
H  H19  1  0.94951279  0.78254393  0.34718937  1  0  0.098822  0.094326  0  1.015567  0
H  H20  1  0.91366842  0.26402128  0.47341747  1  0  0.09534  0.091959  0  1.055017  0
H  H21  1  0.08633269  0.73598435  0.52658421  1  0  0.095337  0.091959  0  1.055078  0
H  H22  1  0.87241439  0.50971303  0.32694924  1  0  0.093355  0.088813  0  1.064475  0
H  H23  1  0.12758641  0.49028338  0.67304895  1  0  0.093379  0.088865  0  1.064424  0
H  H24  1  0.61924004  0.57282336  0.35324360  1  0  0.096237  0.092345  0  1.029959  0
H  H25  1  0.38075905  0.42716960  0.64675278  1  0  0.096231  0.092325  0  1.02986  0
H  H26  1  0.40361937  0.36343077  0.31416543  1  0  0.0944  0.09366  0  1.05505  0
H  H27  1  0.59638227  0.63655643  0.68583027  1  0  0.094445  0.093694  0  1.055025  0
H  H28  1  0.44021012  0.08980564  0.24211092  1  0  0.08534  0.090178  0  1.058197  0
H  H29  1  0.55979111  0.91018621  0.75788953  1  0  0.085358  0.090174  0  1.058182  0
H  H30  1  0.69267086  0.02730783  0.21317262  1  0  0.094433  0.087376  0  1.05655  0
H  H31  1  0.30733037  0.97268405  0.78683017  1  0  0.094477  0.087385  0  1.056579  0
H  H32  1  0.04283068  0.34159722  0.08822870  1  0  0.085261  0.087824  0  1.080237  0
H  H33  1  0.95716837  0.65840267  0.91177141  1  0  0.085255  0.087849  0  1.080203  0
H  H34  1  0.19501239  0.58915039  0.10778965  1  0  0.088737  0.09121  0  1.048581  0
H  H35  1  0.80498087  0.41084947  0.89220466  1  0  0.088752  0.091212  0  1.048623  0
H  H36  1  0.34138583  0.76964334  0.29865063  1  0  0.096953  0.094851  0  1.012676  0
H  H37  1  0.65860726  0.23035538  0.70134498  1  0  0.096966  0.094846  0  1.012674  0
H  H38  1  0.33729159  0.70469275  0.47393231  1  0  0.097198  0.09339  0  1.024694  0
H  H39  1  0.66270343  0.29530364  0.52606165  1  0  0.097244  0.093425  0  1.024617  0
H  H40  1  0.18310647  0.46252630  0.45505956  1  0  0.095481  0.094451  0  1.05277  0
H  H41  1  0.81688504  0.53747705  0.54493901  1  0  0.095495  0.094398  0  1.052835  0
C  C42  1  0.82392191  0.70339101  0.09553391  1  0  0.035611  0.080412  0  3.937444  0
C  C43  1  0.17608267  0.29661464  0.90447156  1  0  0.035516  0.080296  0  3.937566  0
C  C44  1  0.71683962  0.57543887  0.07386133  1  0  -0.081384  -0.16155  0  3.9332  0
C  C45  1  0.28316325  0.42456327  0.92613766  1  0  -0.081412  -0.161555  0  3.933222  0
C  C46  1  0.55843684  0.56795268  0.01404624  1  0  0.010132  0.099824  0  3.953841  0
C  C47  1  0.44156829  0.43205640  0.98595848  1  0  0.010202  0.099913  0  3.953809  0
C  C48  1  0.51816499  0.69704872  0.98177943  1  0  -0.081057  -0.156834  0  3.932015  0
C  C49  1  0.48184554  0.30295803  0.01822431  1  0  -0.080981  -0.156796  0  3.931918  0
C  C50  1  0.63232276  0.82040863  0.00621258  1  0  0.036218  0.083922  0  3.935737  0
C  C51  1  0.36768242  0.17959357  0.99379230  1  0  0.036233  0.083935  0  3.935528  0
C  C52  1  0.07631458  0.16978060  0.38587316  1  0  -0.025373  -0.038758  0  3.961116  0
C  C53  1  0.92368847  0.83022272  0.61412843  1  0  -0.025359  -0.038748  0  3.960982  0
C  C54  1  0.21072381  0.09861343  0.39443883  1  0  -0.088172  -0.097263  0  3.973268  0
C  C55  1  0.78927979  0.90139334  0.60556356  1  0  -0.088189  -0.097219  0  3.97335  0
C  C56  1  0.28925750  0.07539366  0.49661843  1  0  -0.094182  -0.084779  0  4.014827  0
C  C57  1  0.71074269  0.92460624  0.50338268  1  0  -0.094204  -0.084829  0  4.014899  0
C  C58  1  0.23386495  0.12046313  0.59059961  1  0  -0.089276  -0.078495  0  4.002957  0
C  C59  1  0.76613293  0.87953675  0.40939949  1  0  -0.089259  -0.078462  0  4.002846  0
C  C60  1  0.09738094  0.18622665  0.58118887  1  0  -0.088707  -0.071453  0  3.99809  0
C  C61  1  0.90261828  0.81377439  0.41881151  1  0  -0.088711  -0.071446  0  3.99811  0
C  C62  1  0.01941847  0.21152577  0.47960435  1  0  -0.086832  -0.096481  0  3.969704  0
C  C63  1  0.98057960  0.78847525  0.52039425  1  0  -0.086796  -0.09645  0  3.969801  0
C  C64  1  0.80061725  0.26398395  0.27017582  1  0  -0.028408  -0.04362  0  3.981132  0
C  C65  1  0.19938276  0.73601480  0.72982580  1  0  -0.028286  -0.043411  0  3.981109  0
C  C66  1  0.77804174  0.41738461  0.30836732  1  0  -0.092699  -0.111855  0  3.989646  0
C  C67  1  0.22195676  0.58261186  0.69163432  1  0  -0.092822  -0.112075  0  3.989793  0
C  C68  1  0.63538859  0.45292462  0.32379740  1  0  -0.090809  -0.075216  0  3.989262  0
C  C69  1  0.36461063  0.54707642  0.67620376  1  0  -0.090762  -0.075148  0  3.989158  0
C  C70  1  0.51471862  0.33561287  0.30234584  1  0  -0.08894  -0.070475  0  3.971555  0
C  C71  1  0.48528412  0.66438123  0.69765148  1  0  -0.088989  -0.070508  0  3.971451  0
C  C72  1  0.53607210  0.18221688  0.26356039  1  0  -0.096272  -0.085935  0  4.004492  0
C  C73  1  0.46393180  0.81777725  0.73643948  1  0  -0.096214  -0.085848  0  4.004308  0
C  C74  1  0.67722723  0.14669752  0.24633746  1  0  -0.090182  -0.103903  0  3.987719  0
C  C75  1  0.32277532  0.85329541  0.75365803  1  0  -0.090348  -0.104074  0  3.987839  0
C  C76  1  0.10084736  0.38672243  0.27020836  1  0  -0.026036  -0.040044  0  3.954576  0
C  C77  1  0.89914531  0.61328090  0.72978888  1  0  -0.025988  -0.040055  0  3.954673  0
C  C78  1  0.10625590  0.42257498  0.17250281  1  0  -0.088855  -0.091978  0  3.952657  0
C  C79  1  0.89373694  0.57742949  0.82749392  1  0  -0.088864  -0.091992  0  3.952668  0
C  C80  1  0.19218384  0.56030628  0.18346793  1  0  -0.095064  -0.079963  0  3.999384  0
C  C81  1  0.80780998  0.43969707  0.81653109  1  0  -0.095101  -0.080015  0  3.999385  0
C  C82  1  0.27478318  0.66255283  0.29150078  1  0  -0.089143  -0.077819  0  3.995992  0
C  C83  1  0.72521336  0.33744590  0.70849705  1  0  -0.089135  -0.077734  0  3.995943  0
C  C84  1  0.27163511  0.62680150  0.38909360  1  0  -0.090473  -0.080341  0  3.997139  0
C  C85  1  0.72836047  0.37319839  0.61090506  1  0  -0.090526  -0.080468  0  3.997215  0
C  C86  1  0.18447794  0.48976085  0.37851172  1  0  -0.088983  -0.102991  0  3.974021  0
C  C87  1  0.81551587  0.51024249  0.62148653  1  0  -0.08902  -0.1029  0  3.974135  0
Br  Br88  1  0.81860161  0.10639786  0.92814797  1  0  -0.264523  -0.424373  0  1.58771  0
Br  Br89  1  0.18139353  0.89360654  0.07184375  1  0  -0.264512  -0.424365  0  1.587892  0
N  N90  1  0.78441106  0.82529459  0.06162726  1  0  -0.360511  -0.180333  0  3.637673  0
N  N91  1  0.21559295  0.17470755  0.93837195  1  0  -0.360504  -0.180279  0  3.63757  0
