# generated using pymatgen
data_TbH9C15(NO3)2
_symmetry_space_group_name_H-M   'P 1'
_cell_length_a   6.76371892
_cell_length_b   12.82940090
_cell_length_c   16.71580000
_cell_angle_alpha   90.00000000
_cell_angle_beta   93.69283218
_cell_angle_gamma   90.00000000
_symmetry_Int_Tables_number   1
_chemical_formula_structural   TbH9C15(NO3)2
_chemical_formula_sum   'Tb4 H36 C60 N8 O24'
_cell_volume   1447.49283882
_cell_formula_units_Z   4
loop_
 _symmetry_equiv_pos_site_id
 _symmetry_equiv_pos_as_xyz
  1  'x, y, z'
loop_
 _atom_site_type_symbol
 _atom_site_label
 _atom_site_symmetry_multiplicity
 _atom_site_fract_x
 _atom_site_fract_y
 _atom_site_fract_z
 _atom_site_occupancy
 _atom_site_hle17_bader_spin_density
 _atom_site_hle17_ddec_charge
 _atom_site_hle17_ddec_spin_density
 _atom_site_hle17_ddec_sum_bond_order
 _atom_site_hle17_magmom
 _atom_site_hse06_10hf_bader_spin_density
 _atom_site_hse06_10hf_ddec_charge
 _atom_site_hse06_10hf_ddec_spin_density
 _atom_site_hse06_10hf_ddec_sum_bond_order
 _atom_site_hse06_10hf_magmom
 _atom_site_hse06_bader_spin_density
 _atom_site_hse06_ddec_charge
 _atom_site_hse06_ddec_spin_density
 _atom_site_hse06_ddec_sum_bond_order
 _atom_site_hse06_magmom
 _atom_site_pbe_bader_charge
 _atom_site_pbe_bader_spin_density
 _atom_site_pbe_cm5_charge
 _atom_site_pbe_ddec_charge
 _atom_site_pbe_ddec_spin_density
 _atom_site_pbe_ddec_sum_bond_order
 _atom_site_pbe_magmom
Tb  Tb0  1  0.61609186  0.62750163  0.04849667  1  0  2.285148  0  1.679042  0  0  2.142861  0  2.146034  0  0  2.261791  0  1.973276  0  2.190234  0  1.540685  2.105888  0  2.179504  0
Tb  Tb1  1  0.88390919  0.12750089  0.95150282  1  0  2.285152  0  1.679039  0  0  2.142896  0  2.145983  0  0  2.261794  0  1.97327  0  2.19023  0  1.540671  2.105922  0  2.179451  0
Tb  Tb2  1  0.38391032  0.37249908  0.95150423  1  0  2.285152  0  1.679031  0  0  2.1429  0  2.145965  0  0  2.261794  0  1.973262  0  2.190219  0  1.540663  2.105927  0  2.179434  0
Tb  Tb3  1  0.11609003  0.87249904  0.04849620  1  0  2.285154  0  1.679055  0  0  2.142895  0  2.146011  0  0  2.2618  0  1.973287  0  2.19022  0  1.540676  2.105923  0  2.179479  0
H  H4  1  0.11753158  0.78552226  0.29747309  1  0  0.094296  0  0.988373  0  0  0.102986  0  1.053953  0  0  0.105314  0  1.054042  0  0.10995  0  0.102592  0.101385  0  1.053733  0
H  H5  1  0.38247025  0.28552385  0.70252737  1  0  0.094279  0  0.988346  0  0  0.10301  0  1.053886  0  0  0.105337  0  1.053974  0  0.109938  0  0.102603  0.101407  0  1.053666  0
H  H6  1  0.88246912  0.21447767  0.70252776  1  0  0.094298  0  0.988397  0  0  0.102994  0  1.053971  0  0  0.10532  0  1.054062  0  0.109947  0  0.102618  0.101391  0  1.053752  0
H  H7  1  0.61753045  0.71447763  0.29747229  1  0  0.094297  0  0.988404  0  0  0.102985  0  1.053988  0  0  0.105311  0  1.05408  0  0.109945  0  0.102613  0.101384  0  1.053768  0
H  H8  1  0.04743191  0.75239055  0.44128806  1  0  0.107753  0  0.961382  0  0  0.109929  0  1.032569  0  0  0.113021  0  1.030968  0  0.083338  0  0.104509  0.107606  0  1.033974  0
H  H9  1  0.45257140  0.25239214  0.55871245  1  0  0.107794  0  0.961349  0  0  0.109958  0  1.032534  0  0  0.113065  0  1.030917  0  0.08334  0  0.104542  0.107636  0  1.033936  0
H  H10  1  0.95257027  0.24760860  0.55871283  1  0  0.107752  0  0.961397  0  0  0.109921  0  1.032588  0  0  0.11302  0  1.03098  0  0.083335  0  0.104509  0.107598  0  1.033991  0
H  H11  1  0.54742781  0.74760779  0.44128718  1  0  0.107768  0  0.96137  0  0  0.109927  0  1.032569  0  0  0.113034  0  1.030952  0  0.083333  0  0.104516  0.107605  0  1.033972  0
H  H12  1  0.75259620  0.46718471  0.37101524  1  0  0.106611  0  0.940844  0  0  0.115767  0  1.001971  0  0  0.118713  0  1.001105  0  0.082977  0  0.10736  0.11366  0  1.002655  0
H  H13  1  0.74740040  0.96718468  0.62898414  1  0  0.106619  0  0.940842  0  0  0.115777  0  1.001963  0  0  0.118724  0  1.001095  0  0.082984  0  0.107367  0.113669  0  1.002649  0
H  H14  1  0.24740153  0.53281522  0.62898435  1  0  0.106614  0  0.940838  0  0  0.115744  0  1.001981  0  0  0.118688  0  1.00112  0  0.082983  0  0.107371  0.113639  0  1.002669  0
H  H15  1  0.25259734  0.03281447  0.37101604  1  0  0.106609  0  0.940872  0  0  0.115742  0  1.002012  0  0  0.118685  0  1.001153  0  0.08298  0  0.107368  0.113638  0  1.002699  0
H  H16  1  0.81959498  0.50127828  0.22693939  1  0  0.101908  0  0.941906  0  0  0.110739  0  1.003293  0  0  0.113807  0  1.002076  0  0.114  0  0.111078  0.108383  0  1.004598  0
H  H17  1  0.68040162  0.00127675  0.77305998  1  0  0.101938  0  0.941952  0  0  0.110781  0  1.003304  0  0  0.113845  0  1.002096  0  0.114137  0  0.111088  0.108423  0  1.004614  0
H  H18  1  0.18040423  0.49872321  0.77306023  1  0  0.101922  0  0.941959  0  0  0.110753  0  1.003324  0  0  0.113817  0  1.002115  0  0.113964  0  0.111078  0.108396  0  1.004631  0
H  H19  1  0.31959611  0.99872318  0.22694020  1  0  0.101959  0  0.941842  0  0  0.110756  0  1.003261  0  0  0.113821  0  1.002051  0  0.113975  0  0.111087  0.108399  0  1.004568  0
H  H20  1  0.94006300  0.76663206  0.66901335  1  0  0.10243  0  0.969941  0  0  0.109276  0  1.036728  0  0  0.111545  0  1.037556  0  0.108185  0  0.101912  0.10765  0  1.036245  0
H  H21  1  0.55993805  0.26663287  0.33098673  1  0  0.102425  0  0.969949  0  0  0.109268  0  1.036739  0  0  0.111539  0  1.037562  0  0.108184  0  0.101914  0.107641  0  1.036255  0
H  H22  1  0.05993770  0.23336787  0.33098690  1  0  0.102386  0  0.969942  0  0  0.109232  0  1.036739  0  0  0.111502  0  1.037562  0  0.108195  0  0.101881  0.107606  0  1.036255  0
H  H23  1  0.44005969  0.73336706  0.66901225  1  0  0.102423  0  0.969977  0  0  0.109293  0  1.036734  0  0  0.111561  0  1.037562  0  0.108184  0  0.101919  0.107667  0  1.036251  0
H  H24  1  0.85490927  0.72430428  0.80979777  1  0  0.102944  0  0.938728  0  0  0.113369  0  0.99695  0  0  0.116998  0  0.994397  0  0.090419  0  0.106204  0.110907  0  0.998407  0
H  H25  1  0.64509177  0.22430510  0.19020232  1  0  0.102942  0  0.938714  0  0  0.113373  0  0.996934  0  0  0.117001  0  0.994381  0  0.090404  0  0.106199  0.110908  0  0.998397  0
H  H26  1  0.14509291  0.27569565  0.19020253  1  0  0.102958  0  0.938707  0  0  0.113389  0  0.996923  0  0  0.117017  0  0.994369  0  0.090423  0  0.106213  0.110927  0  0.998377  0
H  H27  1  0.35490892  0.77569328  0.80979734  1  0  0.102957  0  0.938732  0  0  0.113393  0  0.996948  0  0  0.11702  0  0.994397  0  0.090349  0  0.106209  0.11093  0  0.998406  0
H  H28  1  0.56139738  0.44526631  0.72371013  1  0  0.106335  0  0.957287  0  0  0.114915  0  1.020432  0  0  0.118336  0  1.018404  0  0.133349  0  0.107678  0.112543  0  1.021706  0
H  H29  1  0.93860219  0.94526628  0.27628992  1  0  0.106337  0  0.957287  0  0  0.114919  0  1.020428  0  0  0.118341  0  1.018398  0  0.13335  0  0.107685  0.112546  0  1.021707  0
H  H30  1  0.43860480  0.55473440  0.27629076  1  0  0.106319  0  0.957296  0  0  0.114898  0  1.020437  0  0  0.11832  0  1.018407  0  0.133342  0  0.107667  0.112518  0  1.02173  0
H  H31  1  0.06139999  0.05473210  0.72371038  1  0  0.106344  0  0.957269  0  0  0.114919  0  1.020427  0  0  0.11834  0  1.018398  0  0.13339  0  0.107685  0.112551  0  1.021696  0
H  H32  1  0.64297315  0.48832132  0.58303467  1  0  0.109731  0  0.947607  0  0  0.113858  0  1.015076  0  0  0.11784  0  1.012371  0  0.096135  0  0.107769  0.110983  0  1.017134  0
H  H33  1  0.85702641  0.98832051  0.41696478  1  0  0.109737  0  0.947604  0  0  0.113858  0  1.015078  0  0  0.11784  0  1.012374  0  0.09612  0  0.107775  0.110983  0  1.017136  0
H  H34  1  0.35702606  0.51167939  0.41696555  1  0  0.109744  0  0.947619  0  0  0.113881  0  1.015077  0  0  0.117863  0  1.012372  0  0.09611  0  0.107774  0.111006  0  1.017135  0
H  H35  1  0.14297280  0.01167864  0.58303544  1  0  0.109773  0  0.947581  0  0  0.113894  0  1.015048  0  0  0.117876  0  1.012343  0  0.096137  0  0.107784  0.111019  0  1.017107  0
H  H36  1  0.94632700  0.36915364  0.05003603  1  0  0.044274  0  0.902509  0  0  0.051291  0  0.969392  0  0  0.052532  0  0.964284  0  0.143923  0  0.140904  0.050087  0  0.973558  0
H  H37  1  0.55367404  0.86915360  0.94996406  1  0  0.044265  0  0.902527  0  0  0.051283  0  0.969412  0  0  0.052523  0  0.964304  0  0.143739  0  0.140907  0.050079  0  0.973578  0
H  H38  1  0.05367517  0.63084629  0.94996367  1  0  0.044282  0  0.902523  0  0  0.051299  0  0.969406  0  0  0.052538  0  0.964299  0  0.143748  0  0.140909  0.050095  0  0.973573  0
H  H39  1  0.44632666  0.13084555  0.05003560  1  0  0.04428  0  0.902503  0  0  0.051299  0  0.969383  0  0  0.05254  0  0.964274  0  0.143737  0  0.140906  0.050095  0  0.973549  0
C  C40  1  0.99625533  0.67272510  0.16828885  1  0  0.733689  0  3.832445  0  0  0.686581  0  4.121533  0  0  0.723593  0  4.113583  0  1.564519  0  0.239985  0.661322  0  4.129954  0
C  C41  1  0.50374423  0.17272513  0.83171120  1  0  0.733671  0  3.832453  0  0  0.686606  0  4.12157  0  0  0.723618  0  4.113618  0  1.564524  0  0.239976  0.661347  0  4.129992  0
C  C42  1  0.00374537  0.32727561  0.83171141  1  0  0.73375  0  3.83253  0  0  0.686646  0  4.121607  0  0  0.723661  0  4.113657  0  1.564169  0  0.240018  0.661387  0  4.130029  0
C  C43  1  0.49625498  0.82727635  0.16828842  1  0  0.733704  0  3.83246  0  0  0.686572  0  4.121587  0  0  0.723584  0  4.113639  0  1.564167  0  0.240002  0.661318  0  4.129999  0
C  C44  1  0.97157266  0.64594988  0.25394597  1  0  -0.063925  0  3.711915  0  0  -0.04158  0  3.941363  0  0  -0.04927  0  3.961481  0  0.000773  0  -0.006273  -0.036361  0  3.927081  0
C  C45  1  0.52842542  0.14594992  0.74605344  1  0  -0.063793  0  3.711753  0  0  -0.04163  0  3.941462  0  0  -0.049321  0  3.961583  0  0.000687  0  -0.006253  -0.036415  0  3.927181  0
C  C46  1  0.02842655  0.35405083  0.74605365  1  0  -0.063924  0  3.71195  0  0  -0.041583  0  3.941391  0  0  -0.049273  0  3.961511  0  0.000678  0  -0.006268  -0.036368  0  3.92711  0
C  C47  1  0.47157380  0.85405079  0.25394618  1  0  -0.063993  0  3.712011  0  0  -0.041651  0  3.941447  0  0  -0.049337  0  3.961564  0  0.000651  0  -0.006308  -0.036433  0  3.927163  0
C  C48  1  0.03821073  0.71602876  0.31453391  1  0  -0.048182  0  3.711377  0  0  -0.070646  0  3.953159  0  0  -0.070502  0  3.974299  0  -0.061933  0  -0.075414  -0.070334  0  3.938199  0
C  C49  1  0.46178962  0.21602957  0.68546592  1  0  -0.048202  0  3.711267  0  0  -0.070644  0  3.953086  0  0  -0.070499  0  3.97423  0  -0.061831  0  -0.075433  -0.070327  0  3.938123  0
C  C50  1  0.96178849  0.28397117  0.68546631  1  0  -0.048209  0  3.711418  0  0  -0.07068  0  3.953206  0  0  -0.070538  0  3.974351  0  -0.061834  0  -0.075452  -0.070364  0  3.938244  0
C  C51  1  0.53820959  0.78397036  0.31453370  1  0  -0.048204  0  3.711451  0  0  -0.070663  0  3.953226  0  0  -0.070521  0  3.974372  0  -0.061805  0  -0.075441  -0.070348  0  3.938263  0
C  C52  1  0.99898139  0.69843012  0.39374845  1  0  -0.120771  0  3.690164  0  0  -0.136831  0  3.933277  0  0  -0.141418  0  3.956113  0  0.004391  0  -0.078614  -0.133792  0  3.917924  0
C  C53  1  0.50102114  0.19843015  0.60625168  1  0  -0.120849  0  3.690173  0  0  -0.136906  0  3.933281  0  0  -0.141506  0  3.956109  0  0.00439  0  -0.078662  -0.133867  0  3.917927  0
C  C54  1  0.00101783  0.30156981  0.60625177  1  0  -0.120757  0  3.690184  0  0  -0.136816  0  3.933304  0  0  -0.141409  0  3.956137  0  0.004394  0  -0.078611  -0.133778  0  3.91795  0
C  C55  1  0.49897956  0.80156900  0.39374798  1  0  -0.120743  0  3.690152  0  0  -0.136782  0  3.933281  0  0  -0.141385  0  3.95611  0  0.004405  0  -0.078591  -0.133744  0  3.917926  0
C  C56  1  0.89145473  0.60911262  0.41331363  1  0  0.163896  0  3.801889  0  0  0.168663  0  4.051871  0  0  0.169162  0  4.076269  0  0.363263  0  0.09334  0.168402  0  4.035349  0
C  C57  1  0.60854483  0.10911266  0.58668642  1  0  0.163918  0  3.801865  0  0  0.168725  0  4.051781  0  0  0.169222  0  4.076183  0  0.363255  0  0.093335  0.168461  0  4.035262  0
C  C58  1  0.10854448  0.39088731  0.58668659  1  0  0.16388  0  3.801832  0  0  0.16866  0  4.051778  0  0  0.169159  0  4.076178  0  0.363234  0  0.093332  0.168399  0  4.035258  0
C  C59  1  0.39145290  0.89088727  0.41331316  1  0  0.163853  0  3.80187  0  0  0.168591  0  4.051859  0  0  0.169092  0  4.076258  0  0.363226  0  0.093295  0.168329  0  4.035343  0
C  C60  1  0.83201780  0.53658624  0.35350478  1  0  -0.121383  0  3.706038  0  0  -0.141159  0  3.956318  0  0  -0.146127  0  3.979308  0  -0.001181  0  -0.076132  -0.137823  0  3.940618  0
C  C61  1  0.66798176  0.03658628  0.64649527  1  0  -0.121387  0  3.70607  0  0  -0.141167  0  3.956322  0  0  -0.146135  0  3.979312  0  -0.001185  0  -0.076134  -0.137833  0  3.940623  0
C  C62  1  0.16798290  0.46341369  0.64649607  1  0  -0.121283  0  3.705973  0  0  -0.14104  0  3.956232  0  0  -0.146008  0  3.979218  0  -0.001173  0  -0.076114  -0.137712  0  3.940539  0
C  C63  1  0.33201597  0.96341365  0.35350432  1  0  -0.121355  0  3.70604  0  0  -0.141105  0  3.95631  0  0  -0.146073  0  3.979294  0  -0.001189  0  -0.076138  -0.137777  0  3.940616  0
C  C64  1  0.87015741  0.55534316  0.27410535  1  0  -0.056605  0  3.73444  0  0  -0.082785  0  3.98921  0  0  -0.082046  0  4.009168  0  -0.105594  0  -0.074687  -0.083078  0  3.975629  0
C  C65  1  0.62984067  0.05534163  0.72589466  1  0  -0.056654  0  3.734496  0  0  -0.082785  0  3.989306  0  0  -0.082052  0  4.009275  0  -0.105739  0  -0.07469  -0.083076  0  3.975728  0
C  C66  1  0.12984180  0.44465833  0.72589547  1  0  -0.056649  0  3.734575  0  0  -0.082808  0  3.989315  0  0  -0.082073  0  4.009276  0  -0.105605  0  -0.074676  -0.0831  0  3.975737  0
C  C67  1  0.37015707  0.94465752  0.27410492  1  0  -0.056589  0  3.734435  0  0  -0.082719  0  3.989171  0  0  -0.081985  0  4.009134  0  -0.105592  0  -0.07466  -0.08301  0  3.975591  0
C  C68  1  0.79871546  0.62928582  0.61869654  1  0  0.165538  0  3.805919  0  0  0.16999  0  4.056048  0  0  0.171352  0  4.079552  0  0.346314  0  0.091529  0.169097  0  4.040226  0
C  C69  1  0.70128707  0.12928663  0.38130299  1  0  0.165489  0  3.805902  0  0  0.169941  0  4.056035  0  0  0.17131  0  4.079534  0  0.346316  0  0.091489  0.16905  0  4.040212  0
C  C70  1  0.20128672  0.37071334  0.38130376  1  0  0.16556  0  3.805765  0  0  0.170028  0  4.055892  0  0  0.171389  0  4.079399  0  0.34646  0  0.091502  0.169136  0  4.04007  0
C  C71  1  0.29871215  0.87071252  0.61869663  1  0  0.165601  0  3.805833  0  0  0.170062  0  4.055934  0  0  0.171429  0  4.079434  0  0.346444  0  0.091556  0.16917  0  4.040113  0
C  C72  1  0.85607970  0.69690394  0.68214129  1  0  -0.127894  0  3.707187  0  0  -0.147621  0  3.955967  0  0  -0.152486  0  3.978596  0  -0.025802  0  -0.080869  -0.144401  0  3.940597  0
C  C73  1  0.64392135  0.19690397  0.31785879  1  0  -0.127843  0  3.70723  0  0  -0.147564  0  3.95602  0  0  -0.152433  0  3.97865  0  -0.0258  0  -0.080834  -0.144346  0  3.94065  0
C  C74  1  0.14392100  0.30309677  0.31785837  1  0  -0.127882  0  3.707193  0  0  -0.147628  0  3.955992  0  0  -0.152494  0  3.978626  0  -0.025789  0  -0.080836  -0.144408  0  3.940621  0
C  C75  1  0.35607787  0.80309596  0.68214142  1  0  -0.127936  0  3.70722  0  0  -0.147676  0  3.955993  0  0  -0.152543  0  3.97862  0  -0.025809  0  -0.080884  -0.144457  0  3.940623  0
C  C76  1  0.80924189  0.67306339  0.75995365  1  0  -0.060232  0  3.726371  0  0  -0.082775  0  3.974162  0  0  -0.082264  0  3.994049  0  -0.057838  0  -0.081112  -0.082683  0  3.959929  0
C  C77  1  0.69075619  0.17306342  0.24004576  1  0  -0.060266  0  3.726392  0  0  -0.082816  0  3.974182  0  0  -0.082307  0  3.994071  0  -0.057842  0  -0.081125  -0.082726  0  3.959949  0
C  C78  1  0.19075732  0.32693732  0.24004597  1  0  -0.060256  0  3.726395  0  0  -0.08278  0  3.974184  0  0  -0.082271  0  3.994075  0  -0.057847  0  -0.08111  -0.082689  0  3.959952  0
C  C79  1  0.30924154  0.82693495  0.75995382  1  0  -0.060226  0  3.726325  0  0  -0.082792  0  3.974122  0  0  -0.082281  0  3.994008  0  -0.057818  0  -0.081122  -0.082701  0  3.95989  0
C  C80  1  0.70306197  0.58183855  0.77469626  1  0  -0.070558  0  3.722962  0  0  -0.049057  0  3.953486  0  0  -0.057781  0  3.975835  0  -0.020084  0  -0.014318  -0.043044  0  3.937213  0
C  C81  1  0.79693611  0.08183780  0.22530375  1  0  -0.070534  0  3.72295  0  0  -0.049028  0  3.953466  0  0  -0.057746  0  3.975816  0  -0.020086  0  -0.014305  -0.043011  0  3.937192  0
C  C82  1  0.29693725  0.41816294  0.22530456  1  0  -0.070489  0  3.722872  0  0  -0.049009  0  3.953441  0  0  -0.057734  0  3.97579  0  -0.020061  0  -0.014316  -0.042994  0  3.937167  0
C  C83  1  0.20306458  0.91816057  0.77469650  1  0  -0.070563  0  3.722931  0  0  -0.049062  0  3.95343  0  0  -0.057777  0  3.975782  0  -0.02008  0  -0.01432  -0.043046  0  3.937157  0
C  C84  1  0.64290352  0.51566632  0.71058643  1  0  -0.056955  0  3.741701  0  0  -0.078583  0  3.986585  0  0  -0.07841  0  4.008005  0  -0.079546  0  -0.078904  -0.078286  0  3.971449  0
C  C85  1  0.85709604  0.01566636  0.28941302  1  0  -0.057007  0  3.741736  0  0  -0.078639  0  3.986624  0  0  -0.078469  0  4.008044  0  -0.079565  0  -0.078947  -0.078345  0  3.971489  0
C  C86  1  0.35709866  0.48433361  0.28941447  1  0  -0.056971  0  3.741763  0  0  -0.078575  0  3.986643  0  0  -0.078405  0  4.008064  0  -0.079299  0  -0.078901  -0.07828  0  3.971502  0
C  C87  1  0.14290317  0.98433123  0.71058660  1  0  -0.057002  0  3.741713  0  0  -0.078644  0  3.986601  0  0  -0.078474  0  4.008021  0  -0.079305  0  -0.078966  -0.078351  0  3.971469  0
C  C88  1  0.68825681  0.53900958  0.63312663  1  0  -0.126604  0  3.723879  0  0  -0.145494  0  3.970439  0  0  -0.150367  0  3.993006  0  -0.051889  0  -0.080403  -0.142358  0  3.955353  0
C  C89  1  0.81174423  0.03900884  0.36687286  1  0  -0.126528  0  3.723739  0  0  -0.145408  0  3.970286  0  0  -0.150284  0  3.992857  0  -0.051867  0  -0.080349  -0.142272  0  3.9552  0
C  C90  1  0.31174092  0.46099191  0.36687355  1  0  -0.12662  0  3.72384  0  0  -0.145521  0  3.970386  0  0  -0.150395  0  3.99296  0  -0.052295  0  -0.080391  -0.142382  0  3.955295  0
C  C91  1  0.18825943  0.96099109  0.63312747  1  0  -0.126634  0  3.723862  0  0  -0.145507  0  3.970391  0  0  -0.150381  0  3.992962  0  -0.052263  0  -0.080376  -0.14237  0  3.955306  0
C  C92  1  0.65025498  0.55235003  0.85707972  1  0  0.724717  0  3.837728  0  0  0.679913  0  4.126828  0  0  0.716475  0  4.118492  0  1.567736  0  0.234038  0.655541  0  4.133899  0
C  C93  1  0.84974310  0.05235085  0.14291969  1  0  0.724784  0  3.837658  0  0  0.67998  0  4.126755  0  0  0.716536  0  4.118424  0  1.567733  0  0.234093  0.655606  0  4.133828  0
C  C94  1  0.34974423  0.44764990  0.14291990  1  0  0.724836  0  3.837617  0  0  0.679991  0  4.12679  0  0  0.716558  0  4.118445  0  1.567752  0  0.234089  0.655618  0  4.13386  0
C  C95  1  0.15025464  0.94764830  0.85707989  1  0  0.724734  0  3.837725  0  0  0.679974  0  4.126742  0  0  0.716514  0  4.118433  0  1.567493  0  0.234102  0.655601  0  4.133815  0
C  C96  1  0.79121436  0.36919261  0.02503678  1  0  0.661818  0  3.803217  0  0  0.592088  0  4.107794  0  0  0.628043  0  4.102714  0  1.537248  0  0.183161  0.567522  0  4.117724  0
C  C97  1  0.70878669  0.86919491  0.97496330  1  0  0.661839  0  3.803347  0  0  0.592102  0  4.107941  0  0  0.628058  0  4.102858  0  1.537436  0  0.18315  0.567536  0  4.11787  0
C  C98  1  0.20878782  0.63080576  0.97496291  1  0  0.661818  0  3.803274  0  0  0.592084  0  4.107864  0  0  0.62804  0  4.102784  0  1.537448  0  0.183142  0.56752  0  4.117794  0
C  C99  1  0.29121401  0.13080658  0.02503636  1  0  0.661843  0  3.80323  0  0  0.592114  0  4.107807  0  0  0.628069  0  4.102725  0  1.537444  0  0.183179  0.567548  0  4.117737  0
N  N100  1  0.83345787  0.58495795  0.49058032  1  0  -0.143242  0  3.011203  0  0  -0.122783  0  3.298455  0  0  -0.121403  0  3.304707  0  -0.49498  0  -0.142251  -0.123429  0  3.294057  0
N  N101  1  0.66654169  0.08495876  0.50941913  1  0  -0.143233  0  3.011167  0  0  -0.122778  0  3.298401  0  0  -0.121398  0  3.304654  0  -0.49495  0  -0.142215  -0.123424  0  3.294004  0
N  N102  1  0.16654283  0.41504120  0.50941993  1  0  -0.143305  0  3.01123  0  0  -0.122842  0  3.298478  0  0  -0.121462  0  3.30473  0  -0.494596  0  -0.142274  -0.123489  0  3.294082  0
N  N103  1  0.33345456  0.91504039  0.49057982  1  0  -0.143271  0  3.011198  0  0  -0.122787  0  3.298452  0  0  -0.121406  0  3.304701  0  -0.494608  0  -0.142239  -0.123431  0  3.294054  0
N  N104  1  0.85950801  0.65707199  0.54214940  1  0  -0.148763  0  2.963925  0  0  -0.128341  0  3.248153  0  0  -0.126703  0  3.253128  0  -0.457599  0  -0.144465  -0.129234  0  3.24464  0
N  N105  1  0.64049303  0.15707203  0.45785009  1  0  -0.148785  0  2.963973  0  0  -0.12837  0  3.248206  0  0  -0.126734  0  3.25318  0  -0.457605  0  -0.1445  -0.129263  0  3.244693  0
N  N106  1  0.14049268  0.34292794  0.45785086  1  0  -0.148739  0  2.963917  0  0  -0.128328  0  3.248146  0  0  -0.12669  0  3.253122  0  -0.457736  0  -0.144452  -0.129222  0  3.244633  0
N  N107  1  0.35950470  0.84292712  0.54214889  1  0  -0.148785  0  2.963926  0  0  -0.128385  0  3.248154  0  0  -0.126748  0  3.253128  0  -0.45773  0  -0.144506  -0.129278  0  3.244641  0
O  O108  1  0.91654631  0.61225228  0.11390413  1  0  -0.762989  0  2.00847  0  0  -0.713675  0  2.270731  0  0  -0.750036  0  2.254713  0  -1.19341  0  -0.430735  -0.695308  0  2.279786  0
O  O109  1  0.58345325  0.11225232  0.88609532  1  0  -0.763008  0  2.008542  0  0  -0.713694  0  2.270786  0  0  -0.750051  0  2.254767  0  -1.193395  0  -0.430727  -0.695327  0  2.279841  0
O  O110  1  0.08345438  0.38774843  0.88609612  1  0  -0.763011  0  2.008442  0  0  -0.713707  0  2.270705  0  0  -0.750063  0  2.254685  0  -1.193071  0  -0.430739  -0.695341  0  2.279761  0
O  O111  1  0.41654596  0.88774839  0.11390371  1  0  -0.763  0  2.008467  0  0  -0.713686  0  2.27074  0  0  -0.750041  0  2.254721  0  -1.193076  0  -0.430743  -0.695321  0  2.279793  0
O  O112  1  0.08811683  0.75549592  0.15289646  1  0  -0.711098  0  2.061682  0  0  -0.662545  0  2.322136  0  0  -0.697605  0  2.309486  0  -1.185269  0  -0.384557  -0.644479  0  2.328644  0
O  O113  1  0.41188204  0.25549595  0.84710333  1  0  -0.711111  0  2.061685  0  0  -0.662553  0  2.322125  0  0  -0.697613  0  2.30948  0  -1.185276  0  -0.384555  -0.644488  0  2.328633  0
O  O114  1  0.91188386  0.24450479  0.84710320  1  0  -0.711113  0  2.061773  0  0  -0.662591  0  2.32229  0  0  -0.697628  0  2.30958  0  -1.185252  0  -0.384571  -0.644524  0  2.328797  0
O  O115  1  0.58811866  0.74450476  0.15289633  1  0  -0.711073  0  2.06168  0  0  -0.66251  0  2.322163  0  0  -0.697571  0  2.309503  0  -1.185251  0  -0.384545  -0.644445  0  2.328667  0
O  O116  1  0.56564795  0.46453455  0.86448543  1  0  -0.726807  0  2.053964  0  0  -0.67852  0  2.311729  0  0  -0.713482  0  2.297697  0  -1.190484  0  -0.403835  -0.660916  0  2.318754  0
O  O117  1  0.93435013  0.96453374  0.13551399  1  0  -0.726866  0  2.053907  0  0  -0.678585  0  2.311679  0  0  -0.713546  0  2.297646  0  -1.190466  0  -0.403873  -0.660981  0  2.318706  0
O  O118  1  0.43435275  0.53546694  0.13551423  1  0  -0.726856  0  2.053872  0  0  -0.678551  0  2.311672  0  0  -0.713521  0  2.297634  0  -1.190501  0  -0.403858  -0.660945  0  2.318697  0
O  O119  1  0.06564908  0.03546463  0.86448563  1  0  -0.726825  0  2.053968  0  0  -0.678549  0  2.31171  0  0  -0.713506  0  2.297686  0  -1.190461  0  -0.403851  -0.660944  0  2.318736  0
O  O120  1  0.69096213  0.61665155  0.91428209  1  0  -0.748824  0  2.02386  0  0  -0.701217  0  2.279549  0  0  -0.736245  0  2.264843  0  -1.197342  0  -0.402788  -0.683124  0  2.286841  0
O  O121  1  0.80903447  0.11665081  0.08571848  1  0  -0.748826  0  2.023855  0  0  -0.701226  0  2.279544  0  0  -0.736248  0  2.264841  0  -1.197352  0  -0.402799  -0.683133  0  2.286836  0
O  O122  1  0.30903561  0.38334916  0.08571869  1  0  -0.748886  0  2.023918  0  0  -0.701268  0  2.279626  0  0  -0.73629  0  2.264916  0  -1.19734  0  -0.402812  -0.683175  0  2.286917  0
O  O123  1  0.19095882  0.88334756  0.91428219  1  0  -0.748785  0  2.023834  0  0  -0.701203  0  2.279504  0  0  -0.736218  0  2.264805  0  -1.197124  0  -0.402813  -0.68311  0  2.286796  0
O  O124  1  0.68677081  0.45045907  0.03060582  1  0  -0.765984  0  2.23585  0  0  -0.70166  0  2.500047  0  0  -0.743768  0  2.4868  0  -1.211656  0  -0.42142  -0.683049  0  2.506964  0
O  O125  1  0.81322727  0.95045826  0.96939419  1  0  -0.765955  0  2.235979  0  0  -0.701632  0  2.500185  0  0  -0.743734  0  2.486937  0  -1.211675  0  -0.421374  -0.683023  0  2.507102  0
O  O126  1  0.31322988  0.54954164  0.96939444  1  0  -0.765978  0  2.235938  0  0  -0.70166  0  2.500145  0  0  -0.743763  0  2.486896  0  -1.211665  0  -0.421379  -0.68305  0  2.507062  0
O  O127  1  0.18677047  0.04954089  0.03060539  1  0  -0.766048  0  2.235895  0  0  -0.70173  0  2.500096  0  0  -0.743832  0  2.486847  0  -1.211669  0  -0.421451  -0.683119  0  2.507014  0
O  O128  1  0.71700338  0.28787782  0.99111565  1  0  -0.750296  0  2.124462  0  0  -0.697001  0  2.399111  0  0  -0.738634  0  2.386093  0  -1.20223  0  -0.395973  -0.679316  0  2.406936  0
O  O129  1  0.78299766  0.78787857  0.00888503  1  0  -0.750318  0  2.124449  0  0  -0.697024  0  2.399113  0  0  -0.738662  0  2.386095  0  -1.202233  0  -0.395999  -0.679339  0  2.40694  0
O  O130  1  0.28299880  0.71212211  0.00888464  1  0  -0.75033  0  2.124479  0  0  -0.697014  0  2.399091  0  0  -0.738654  0  2.386079  0  -1.202243  0  -0.396001  -0.67933  0  2.406918  0
O  O131  1  0.21700303  0.21212214  0.99111582  1  0  -0.75028  0  2.124467  0  0  -0.696971  0  2.399094  0  0  -0.738606  0  2.386081  0  -1.202213  0  -0.39596  -0.679286  0  2.406919  0
