# generated using pymatgen
data_Cd6H12C48S7(NO2)12
_symmetry_space_group_name_H-M   'P 1'
_cell_length_a   13.10513305
_cell_length_b   13.10604572
_cell_length_c   13.10572433
_cell_angle_alpha   98.31714518
_cell_angle_beta   98.31441701
_cell_angle_gamma   98.31775347
_symmetry_Int_Tables_number   1
_chemical_formula_structural   Cd6H12C48S7(NO2)12
_chemical_formula_sum   'Cd6 H12 C48 S7 N12 O24'
_cell_volume   2172.16246849
_cell_formula_units_Z   1
loop_
 _symmetry_equiv_pos_site_id
 _symmetry_equiv_pos_as_xyz
  1  'x, y, z'
loop_
 _atom_site_type_symbol
 _atom_site_label
 _atom_site_symmetry_multiplicity
 _atom_site_fract_x
 _atom_site_fract_y
 _atom_site_fract_z
 _atom_site_occupancy
 _atom_site_pbe_bader_spin_density
 _atom_site_pbe_cm5_charge
 _atom_site_pbe_ddec_charge
 _atom_site_pbe_ddec_spin_density
 _atom_site_pbe_ddec_sum_bond_order
 _atom_site_pbe_magmom
Cd  Cd0  1  0.69417586  0.59824953  0.46434947  1  0  0.754145  0.983224  0  2.196942  0
Cd  Cd1  1  0.46436281  0.69416311  0.59824570  1  0  0.754121  0.98314  0  2.197301  0
Cd  Cd2  1  0.59825166  0.46434664  0.69414721  1  0  0.754015  0.983146  0  2.197129  0
Cd  Cd3  1  0.30582298  0.40175083  0.53564986  1  0  0.754136  0.983213  0  2.196983  0
Cd  Cd4  1  0.53563810  0.30583571  0.40175523  1  0  0.754132  0.983178  0  2.197302  0
Cd  Cd5  1  0.40174835  0.53565138  0.30585272  1  0  0.754021  0.983129  0  2.197131  0
H  H6  1  0.99347577  0.47296433  0.76786896  1  0  0.115266  0.12478  0  0.981546  0
H  H7  1  0.76789778  0.99349303  0.47293966  1  0  0.115197  0.124678  0  0.981488  0
H  H8  1  0.47293783  0.76785044  0.99346009  1  0  0.115211  0.124783  0  0.981399  0
H  H9  1  0.00652387  0.52703606  0.23213583  1  0  0.115261  0.124772  0  0.981632  0
H  H10  1  0.23210080  0.00650577  0.52705942  1  0  0.115181  0.12465  0  0.9815  0
H  H11  1  0.52706191  0.23215070  0.00653872  1  0  0.1152  0.124762  0  0.981488  0
H  H12  1  0.17688421  0.52797734  0.74537957  1  0  0.107904  0.127809  0  1.029051  0
H  H13  1  0.74536910  0.17687314  0.52791430  1  0  0.107821  0.127767  0  1.029147  0
H  H14  1  0.52792570  0.74534053  0.17686544  1  0  0.107831  0.12782  0  1.029169  0
H  H15  1  0.82311489  0.47202460  0.25462231  1  0  0.107883  0.127839  0  1.029022  0
H  H16  1  0.25463115  0.82312644  0.47208436  1  0  0.107804  0.127747  0  1.029144  0
H  H17  1  0.47207391  0.25465983  0.82313400  1  0  0.107812  0.127768  0  1.029201  0
C  C18  1  0.81719406  0.51187380  0.67218276  1  0  0.200118  0.580808  0  4.183222  0
C  C19  1  0.67223903  0.81722128  0.51187563  1  0  0.200275  0.581204  0  4.183336  0
C  C20  1  0.51188423  0.67220117  0.81719588  1  0  0.20007  0.58064  0  4.183991  0
C  C21  1  0.18280517  0.48812422  0.32781630  1  0  0.200129  0.580859  0  4.183116  0
C  C22  1  0.32776303  0.18277988  0.48812502  1  0  0.200317  0.581234  0  4.183217  0
C  C23  1  0.48811795  0.32780077  0.18280414  1  0  0.200101  0.580585  0  4.184025  0
C  C24  1  0.92412597  0.54864466  0.64996719  1  0  -0.01158  -0.094767  0  3.922659  0
C  C25  1  0.64999515  0.92414219  0.54862574  1  0  -0.011896  -0.095268  0  3.922595  0
C  C26  1  0.54862621  0.64995760  0.92411809  1  0  -0.011517  -0.094562  0  3.922461  0
C  C27  1  0.07587082  0.45135256  0.35003141  1  0  -0.01161  -0.094792  0  3.922612  0
C  C28  1  0.35000691  0.07585897  0.45137492  1  0  -0.011913  -0.095259  0  3.922525  0
C  C29  1  0.45137610  0.35004513  0.07588206  1  0  -0.01147  -0.094566  0  3.922458  0
C  C30  1  0.00951310  0.52178901  0.70947611  1  0  -0.068302  -0.066626  0  3.940906  0
C  C31  1  0.70950295  0.00953075  0.52175629  1  0  -0.06797  -0.066174  0  3.939917  0
C  C32  1  0.52176384  0.70945627  0.00950525  1  0  -0.068308  -0.066762  0  3.940643  0
C  C33  1  0.99048704  0.47820980  0.29052471  1  0  -0.068302  -0.066632  0  3.940997  0
C  C34  1  0.29049679  0.99047040  0.47824405  1  0  -0.067939  -0.066104  0  3.939856  0
C  C35  1  0.47823680  0.29054566  0.99049379  1  0  -0.06831  -0.06674  0  3.940789  0
C  C36  1  0.11400920  0.55403033  0.69723513  1  0  -0.074137  -0.086445  0  3.931574  0
C  C37  1  0.69723154  0.11400398  0.55398645  1  0  -0.074257  -0.086364  0  3.931472  0
C  C38  1  0.55399506  0.69722085  0.11399594  1  0  -0.074211  -0.086359  0  3.93123  0
C  C39  1  0.88598966  0.44597004  0.30276726  1  0  -0.074101  -0.086466  0  3.931403  0
C  C40  1  0.30276730  0.88599637  0.44601136  1  0  -0.074242  -0.086416  0  3.931455  0
C  C41  1  0.44600532  0.30277952  0.88600361  1  0  -0.074201  -0.086307  0  3.931247  0
C  C42  1  0.13777424  0.61717845  0.62499529  1  0  0.001353  -0.061284  0  3.906243  0
C  C43  1  0.62497781  0.13775671  0.61713128  1  0  0.001572  -0.061495  0  3.906106  0
C  C44  1  0.61714810  0.62497612  0.13776011  1  0  0.00145  -0.061685  0  3.906257  0
C  C45  1  0.86222359  0.38282035  0.37500597  1  0  0.001364  -0.061314  0  3.906257  0
C  C46  1  0.37502155  0.86224209  0.38286790  1  0  0.001572  -0.061464  0  3.905966  0
C  C47  1  0.38285332  0.37502582  0.86223981  1  0  0.001409  -0.061777  0  3.90619  0
C  C48  1  0.05332020  0.64872333  0.56309816  1  0  0.112646  0.143754  0  4.008853  0
C  C49  1  0.56309622  0.05329005  0.64868664  1  0  0.112847  0.144357  0  4.009066  0
C  C50  1  0.64870531  0.56308898  0.05330051  1  0  0.112861  0.144216  0  4.009438  0
C  C51  1  0.94667827  0.35127469  0.43690232  1  0  0.112674  0.143898  0  4.008899  0
C  C52  1  0.43690327  0.94670953  0.35131268  1  0  0.112849  0.144327  0  4.009067  0
C  C53  1  0.35129611  0.43691296  0.94670093  1  0  0.112833  0.144205  0  4.009283  0
C  C54  1  0.94621328  0.61279178  0.57409094  1  0  0.112519  0.155846  0  3.996392  0
C  C55  1  0.57410965  0.94621325  0.61276765  1  0  0.112708  0.155793  0  3.997156  0
C  C56  1  0.61278921  0.57408786  0.94620463  1  0  0.112704  0.155843  0  3.996668  0
C  C57  1  0.05378531  0.38720701  0.42590890  1  0  0.112576  0.155839  0  3.996414  0
C  C58  1  0.42588919  0.05378711  0.38723168  1  0  0.112729  0.155818  0  3.997078  0
C  C59  1  0.38721310  0.42591486  0.05379628  1  0  0.112719  0.155953  0  3.996535  0
C  C60  1  0.24863524  0.65219645  0.61408709  1  0  0.21437  0.606861  0  4.159246  0
C  C61  1  0.61405969  0.24860259  0.65216693  1  0  0.214197  0.606533  0  4.159841  0
C  C62  1  0.65217767  0.61406326  0.24861167  1  0  0.214459  0.607055  0  4.15909  0
C  C63  1  0.75136272  0.34780314  0.38591430  1  0  0.214326  0.606862  0  4.159227  0
C  C64  1  0.38594108  0.75139543  0.34783311  1  0  0.214207  0.606584  0  4.159767  0
C  C65  1  0.34782425  0.38593711  0.75138734  1  0  0.214515  0.607189  0  4.158971  0
S  S66  1  0.94405976  0.71870636  0.43771577  1  0  0.443321  0.536829  0  3.257748  0
S  S67  1  0.43774612  0.94403641  0.71871564  1  0  0.4433  0.536717  0  3.256966  0
S  S68  1  0.71875046  0.43775635  0.94405137  1  0  0.443045  0.53626  0  3.257447  0
S  S69  1  0.05593921  0.28129009  0.56228303  1  0  0.443269  0.536793  0  3.257739  0
S  S70  1  0.56225182  0.05596315  0.28128193  1  0  0.443294  0.536723  0  3.256845  0
S  S71  1  0.28125032  0.56224637  0.05595009  1  0  0.443041  0.5363  0  3.257417  0
S  S72  1  0.49999935  0.49999979  0.49999922  1  0  -0.267594  -0.593451  0  2.054041  0
N  N73  1  0.87737140  0.64769467  0.50575714  1  0  -0.321577  -0.369335  0  3.361358  0
N  N74  1  0.50579267  0.87735889  0.64769081  1  0  -0.321677  -0.369545  0  3.360801  0
N  N75  1  0.64772253  0.50578231  0.87736134  1  0  -0.321453  -0.369233  0  3.361202  0
N  N76  1  0.12262783  0.35230335  0.49424191  1  0  -0.321545  -0.369318  0  3.361376  0
N  N77  1  0.49420448  0.12264066  0.35230589  1  0  -0.32169  -0.369579  0  3.360692  0
N  N78  1  0.35227812  0.49421963  0.12263923  1  0  -0.321448  -0.36931  0  3.361248  0
N  N79  1  0.06069928  0.70962292  0.48848696  1  0  -0.293603  -0.338404  0  3.159159  0
N  N80  1  0.48849369  0.06067284  0.70959593  1  0  -0.29374  -0.338417  0  3.15873  0
N  N81  1  0.70961113  0.48849659  0.06068190  1  0  -0.29374  -0.338287  0  3.159371  0
N  N82  1  0.93929879  0.29037274  0.51151160  1  0  -0.293637  -0.338468  0  3.159173  0
N  N83  1  0.51150670  0.93932753  0.29040515  1  0  -0.29375  -0.338417  0  3.15874  0
N  N84  1  0.29039028  0.51150535  0.93931877  1  0  -0.293702  -0.338279  0  3.159236  0
O  O85  1  0.73809519  0.54833182  0.62773549  1  0  -0.331417  -0.559446  0  2.340607  0
O  O86  1  0.62777231  0.73813696  0.54833560  1  0  -0.331455  -0.559475  0  2.340355  0
O  O87  1  0.54836295  0.62776997  0.73810736  1  0  -0.331484  -0.559467  0  2.340664  0
O  O88  1  0.26190418  0.45166699  0.37226522  1  0  -0.331454  -0.55948  0  2.340659  0
O  O89  1  0.37222743  0.26186418  0.45166321  1  0  -0.331472  -0.559499  0  2.340249  0
O  O90  1  0.45164065  0.37223120  0.26189352  1  0  -0.331506  -0.559425  0  2.3407  0
O  O91  1  0.80662639  0.44960645  0.73535732  1  0  -0.304072  -0.514015  0  2.125226  0
O  O92  1  0.73543803  0.80665416  0.44963230  1  0  -0.304228  -0.51431  0  2.125131  0
O  O93  1  0.44961566  0.73536982  0.80663896  1  0  -0.303999  -0.513846  0  2.125338  0
O  O94  1  0.19337208  0.55039157  0.26464316  1  0  -0.304028  -0.513999  0  2.125184  0
O  O95  1  0.26456402  0.19334700  0.55036760  1  0  -0.304246  -0.514306  0  2.125124  0
O  O96  1  0.55038549  0.26463054  0.19335994  1  0  -0.304047  -0.513859  0  2.125285  0
O  O97  1  0.28151606  0.74741493  0.61723081  1  0  -0.291812  -0.511266  0  2.174579  0
O  O98  1  0.61718796  0.28146238  0.74738199  1  0  -0.291501  -0.510757  0  2.174967  0
O  O99  1  0.74740027  0.61720138  0.28147270  1  0  -0.291711  -0.511137  0  2.174618  0
O  O100  1  0.71847894  0.25258542  0.38277103  1  0  -0.291785  -0.511244  0  2.174597  0
O  O101  1  0.38280999  0.71853720  0.25261863  1  0  -0.291557  -0.510857  0  2.175001  0
O  O102  1  0.25260153  0.38279821  0.71852693  1  0  -0.291709  -0.511128  0  2.174674  0
O  O103  1  0.30790371  0.58204203  0.60369774  1  0  -0.320502  -0.559346  0  2.33393  0
O  O104  1  0.60367827  0.30790022  0.58202985  1  0  -0.320691  -0.559467  0  2.333616  0
O  O105  1  0.58203915  0.60366770  0.30791180  1  0  -0.320705  -0.559596  0  2.333735  0
O  O106  1  0.69209424  0.41795755  0.39630288  1  0  -0.320525  -0.559411  0  2.333947  0
O  O107  1  0.39632276  0.69209938  0.41797121  1  0  -0.320653  -0.559421  0  2.333573  0
O  O108  1  0.41796212  0.39633345  0.69208646  1  0  -0.320703  -0.559664  0  2.333646  0
