# generated using pymatgen
data_ZnH10C11NO6
_symmetry_space_group_name_H-M   'P 1'
_cell_length_a   9.55956347
_cell_length_b   11.19573197
_cell_length_c   10.99388780
_cell_angle_alpha   87.07875495
_cell_angle_beta   91.26813958
_cell_angle_gamma   89.75435739
_symmetry_Int_Tables_number   1
_chemical_formula_structural   ZnH10C11NO6
_chemical_formula_sum   'Zn2 H20 C22 N2 O12'
_cell_volume   1174.80114709
_cell_formula_units_Z   2
loop_
 _symmetry_equiv_pos_site_id
 _symmetry_equiv_pos_as_xyz
  1  'x, y, z'
loop_
 _atom_site_type_symbol
 _atom_site_label
 _atom_site_symmetry_multiplicity
 _atom_site_fract_x
 _atom_site_fract_y
 _atom_site_fract_z
 _atom_site_occupancy
 _atom_site_pbe_bader_charge
 _atom_site_pbe_bader_spin_density
 _atom_site_pbe_cm5_charge
 _atom_site_pbe_ddec_charge
 _atom_site_pbe_ddec_spin_density
 _atom_site_pbe_ddec_sum_bond_order
 _atom_site_pbe_magmom
Zn  Zn0  1  0.64629140  0.49667418  0.50635632  1  1.291117  0  0.663511  0.813844  0  2.432561  0
Zn  Zn1  1  0.36324523  0.50662355  0.49741126  1  1.28404  0  0.670516  0.803856  0  2.473944  0
H  H2  1  0.28658479  0.53161146  0.88194570  1  0.073265  0  0.100829  0.101428  0  1.007533  0
H  H3  1  0.28817234  0.53766858  0.11062311  1  0.088399  0  0.104027  0.106977  0  1.003353  0
H  H4  1  0.72857260  0.46261415  0.12298511  1  0.086752  0  0.101075  0.102241  0  1.009775  0
H  H5  1  0.72897423  0.46377268  0.89410328  1  0.098349  0  0.101478  0.103494  0  1.002767  0
H  H6  1  0.13656103  0.38097535  0.36245928  1  0.160268  0  0.143944  0.128205  0  0.961798  0
H  H7  1  0.14297366  0.61087191  0.64660039  1  0.146195  0  0.141657  0.120235  0  0.965182  0
H  H8  1  0.86742306  0.37885979  0.36511331  1  0.156913  0  0.141302  0.123739  0  0.962423  0
H  H9  1  0.87455581  0.60370014  0.65356244  1  0.174514  0  0.14159  0.124045  0  0.960856  0
H  H10  1  0.26240498  0.99983070  0.21443003  1  0.049174  0  0.095398  0.054304  0  0.986328  0
H  H11  1  0.43764022  0.05095227  0.19842267  1  0.04706  0  0.101455  0.065931  0  0.964301  0
H  H12  1  0.35006108  0.25286617  0.12022173  1  0.040043  0  0.088564  0.125673  0  1.012884  0
H  H13  1  0.28053470  0.13868482  0.02979810  1  0.043814  0  0.094205  0.125621  0  0.992533  0
H  H14  1  0.17380148  0.20473394  0.13888047  1  0.029289  0  0.085801  0.11372  0  1.003395  0
H  H15  1  0.11455408  0.02988377  0.40286776  1  0.073012  0  0.096469  0.055718  0  0.993436  0
H  H16  1  0.18610495  0.01081893  0.55359300  1  0.014546  0  0.100996  0.063694  0  0.967248  0
H  H17  1  0.06314331  0.81716293  0.58518558  1  0.018824  0  0.084064  0.10941  0  1.023709  0
H  H18  1  0.93846224  0.92758530  0.53038743  1  0.034357  0  0.095485  0.133745  0  0.99161  0
H  H19  1  0.00521156  0.82271729  0.42966019  1  0.032227  0  0.090597  0.123806  0  0.993718  0
H  H20  1  0.63107185  0.14616706  0.61719601  1  0.625821  0  0.320194  0.357256  0  0.907148  0
H  H21  1  0.69883734  0.83349941  0.43237522  1  0.614992  0  0.306947  0.343124  0  0.945505  0
C  C22  1  0.50846869  0.49801482  0.73911920  1  1.60542  0  0.217  0.597014  0  4.160264  0
C  C23  1  0.50724829  0.50258121  0.26534142  1  1.529698  0  0.215194  0.591705  0  4.165038  0
C  C24  1  0.50381012  0.73434784  0.47833184  1  1.522083  0  0.198722  0.550204  0  4.206852  0
C  C25  1  0.49444093  0.26870815  0.49740975  1  1.53501  0  0.20494  0.554361  0  4.211442  0
C  C26  1  0.40915153  0.07069449  0.42168944  1  0.479153  0  0.054665  0.058207  0  4.068659  0
C  C27  1  0.39605653  0.94049992  0.43534058  1  0.557352  0  0.063746  0.079701  0  4.056061  0
C  C28  1  0.49061697  0.13566698  0.49756828  1  0.612638  0  0.057886  0.058169  0  4.014674  0
C  C29  1  0.50845652  0.86378017  0.44499670  1  0.546563  0  0.045107  0.03644  0  4.026563  0
C  C30  1  0.38299793  0.51762118  0.93563949  1  0.032601  0  -0.084274  -0.097145  0  3.983749  0
C  C31  1  0.38351123  0.52009670  0.06195530  1  -0.091866  0  -0.081955  -0.09305  0  3.986713  0
C  C32  1  0.50825877  0.50010434  0.12953794  1  0.032332  0  -0.013752  -0.026016  0  3.965437  0
C  C33  1  0.50791174  0.49797489  0.87514005  1  -0.06726  0  -0.013254  -0.018028  0  3.953737  0
C  C34  1  0.63267613  0.47847063  0.06914468  1  0.020372  0  -0.085548  -0.095481  0  3.991244  0
C  C35  1  0.63282960  0.47888480  0.94264196  1  -0.130937  0  -0.086093  -0.099023  0  3.984314  0
C  C36  1  0.07622812  0.43175906  0.42538460  1  0.50614  0  0.082922  0.066375  0  3.851373  0
C  C37  1  0.07984833  0.55902130  0.58486400  1  0.493491  0  0.082216  0.064973  0  3.871038  0
C  C38  1  0.93077294  0.42932755  0.42795468  1  0.506612  0  0.079976  0.060017  0  3.863616  0
C  C39  1  0.93453172  0.55549421  0.58836179  1  0.507288  0  0.080057  0.059318  0  3.866991  0
C  C40  1  0.32965250  0.07963277  0.21511937  1  0.394937  0  -0.069617  0.07865  0  3.907664  0
C  C41  1  0.28074122  0.17491746  0.12087996  1  -0.070196  0  -0.244362  -0.38666  0  3.981645  0
C  C42  1  0.14936643  0.96284073  0.47405613  1  0.428637  0  -0.068677  0.082068  0  3.909202  0
C  C43  1  0.03232700  0.87721549  0.50706431  1  -0.050301  0  -0.245627  -0.389209  0  3.973581  0
N  N44  1  0.86167805  0.49171299  0.50889198  1  -1.228679  0  -0.294712  -0.145365  0  3.506751  0
N  N45  1  0.14876028  0.49799251  0.50294655  1  -1.206255  0  -0.290421  -0.138516  0  3.497498  0
O  O46  1  0.62599316  0.51519991  0.68824574  1  -1.172221  0  -0.320705  -0.552136  0  2.331815  0
O  O47  1  0.62044783  0.47302183  0.32379974  1  -1.166239  0  -0.320901  -0.557371  0  2.327163  0
O  O48  1  0.39225932  0.48080904  0.68396910  1  -1.165733  0  -0.319373  -0.554449  0  2.314481  0
O  O49  1  0.39359468  0.53399414  0.31273073  1  -1.162493  0  -0.313711  -0.535636  0  2.315026  0
O  O50  1  0.62323355  0.68058905  0.47147850  1  -1.16413  0  -0.331251  -0.573518  0  2.308553  0
O  O51  1  0.60936860  0.31190594  0.53859047  1  -1.171272  0  -0.328125  -0.567658  0  2.281083  0
O  O52  1  0.39120954  0.68433547  0.51285810  1  -1.158483  0  -0.321593  -0.529578  0  2.360882  0
O  O53  1  0.38572086  0.32861166  0.46545302  1  -1.157936  0  -0.308796  -0.524341  0  2.37384  0
O  O54  1  0.32527189  0.13038702  0.33400299  1  -1.041242  0  -0.199462  -0.218551  0  2.541652  0
O  O55  1  0.26356129  0.89368570  0.42892185  1  -1.040205  0  -0.184335  -0.190994  0  2.54969  0
O  O56  1  0.57421823  0.08080432  0.58625562  1  -1.126233  0  -0.354918  -0.410617  0  2.323157  0
O  O57  1  0.64000243  0.90596994  0.42089658  1  -1.121618  0  -0.371078  -0.433926  0  2.336809  0
