# generated using pymatgen
data_NiH8(C3N2)4
_symmetry_space_group_name_H-M   'P 1'
_cell_length_a   6.86912018
_cell_length_b   9.74174381
_cell_length_c   10.42262677
_cell_angle_alpha   110.37319862
_cell_angle_beta   103.88466501
_cell_angle_gamma   104.24620152
_symmetry_Int_Tables_number   1
_chemical_formula_structural   NiH8(C3N2)4
_chemical_formula_sum   'Ni2 H16 C24 N16'
_cell_volume   591.62007217
_cell_formula_units_Z   2
loop_
 _symmetry_equiv_pos_site_id
 _symmetry_equiv_pos_as_xyz
  1  'x, y, z'
loop_
 _atom_site_type_symbol
 _atom_site_label
 _atom_site_symmetry_multiplicity
 _atom_site_fract_x
 _atom_site_fract_y
 _atom_site_fract_z
 _atom_site_occupancy
 _atom_site_hle17_ddec_charge
 _atom_site_hle17_ddec_spin_density
 _atom_site_hle17_ddec_sum_bond_order
 _atom_site_hle17_magmom
 _atom_site_hse06_10hf_ddec_charge
 _atom_site_hse06_10hf_ddec_spin_density
 _atom_site_hse06_10hf_ddec_sum_bond_order
 _atom_site_hse06_10hf_magmom
 _atom_site_hse06_ddec_charge
 _atom_site_hse06_ddec_spin_density
 _atom_site_hse06_ddec_sum_bond_order
 _atom_site_hse06_magmom
 _atom_site_pbe_cm5_charge
 _atom_site_pbe_ddec_charge
 _atom_site_pbe_ddec_spin_density
 _atom_site_pbe_ddec_sum_bond_order
 _atom_site_pbe_magmom
Ni  Ni0  1  0.59575552  0.88518142  0.89655483  1  0.656545  -1.692298  2.323979  -1.341  0.701564  -1.765181  2.717689  -1.5  0.800182  -1.885624  2.638359  -1.629  0.676698  0.633329  -1.634172  2.773574  -1.367
Ni  Ni1  1  0.40423959  0.11481461  0.10343932  1  0.656594  1.692323  2.323949  1.341  0.70159  1.765186  2.717639  1.5  0.800208  1.885627  2.638307  1.629  0.676698  0.633393  1.634112  2.773566  1.367
H  H2  1  0.63685170  0.93629918  0.62106423  1  0.084993  -0.000937  0.932415  -0.002  0.092991  -0.00071  0.99655  -0.002  0.095677  -0.000482  0.993299  -0.001  0.11992  0.090935  -0.000987  0.998785  -0.002
H  H3  1  0.36313963  0.06370403  0.37893449  1  0.085072  0.000937  0.932548  0.002  0.093071  0.000709  0.996664  0.002  0.095752  0.000481  0.99342  0.001  0.119992  0.091028  0.000986  0.998897  0.002
H  H4  1  0.48373695  0.76639701  0.35161220  1  0.104985  -0.000259  0.973188  0.0  0.112251  -0.000313  1.038599  0.0  0.115436  -0.000228  1.037611  0.0  0.103476  0.108994  -0.000298  1.040777  0.0
H  H5  1  0.51626026  0.23360020  0.64838650  1  0.10502  0.00026  0.973  0.0  0.112267  0.000313  1.03844  0.0  0.115451  0.000228  1.037455  0.0  0.103479  0.10901  0.000298  1.04062  0.0
H  H6  1  0.24150886  0.48199189  0.25745154  1  0.100089  -0.000358  0.957777  -0.001  0.109556  -0.000155  1.023344  0.0  0.112687  -0.000178  1.020979  0.0  0.104859  0.106752  -0.000122  1.025848  0.0
H  H7  1  0.75849788  0.51800640  0.74255575  1  0.099997  0.000358  0.957592  0.001  0.109529  0.000155  1.023122  0.0  0.112628  0.000178  1.020794  0.0  0.10485  0.106725  0.000121  1.025618  0.0
H  H8  1  0.05470689  0.26761324  0.31680439  1  0.112221  -0.000342  0.942329  0.0  0.120004  -0.000309  1.00653  0.0  0.123167  -0.00023  1.005621  0.0  0.106299  0.117433  -0.00039  1.00747  0.0
H  H9  1  0.94529539  0.73238508  0.68319548  1  0.112268  0.000343  0.942288  0.0  0.120031  0.000309  1.006514  0.0  0.123193  0.000231  1.005608  0.0  0.1063  0.117454  0.000389  1.007446  0.0
H  H10  1  0.98204371  0.18078917  0.50348837  1  0.103404  -0.000491  0.971043  0.0  0.110778  -0.000382  1.038607  0.0  0.113671  -0.000293  1.037554  0.0  0.102768  0.108466  -0.00052  1.039522  0.0
H  H11  1  0.01795708  0.81920918  0.49651222  1  0.103419  0.00049  0.971106  0.0  0.110777  0.000382  1.038678  0.0  0.113671  0.000293  1.037624  0.0  0.102773  0.108464  0.000521  1.039586  0.0
H  H12  1  0.02398979  0.24962458  0.76977971  1  0.104323  -0.000437  0.945283  -0.001  0.11415  -0.000116  1.008032  0.0  0.117121  -6.2e-05  1.005841  0.0  0.10902  0.111508  -0.000159  1.010597  0.0
H  H13  1  0.97601731  0.75037722  0.23022205  1  0.104324  0.000437  0.945223  0.001  0.114141  0.000116  1.007976  0.0  0.117112  6.2e-05  1.005786  0.0  0.109036  0.111504  0.000159  1.010535  0.0
H  H14  1  0.18570454  0.45435063  0.02975566  1  0.101789  -0.000631  0.974965  0.0  0.111602  -0.000675  1.036453  -0.001  0.114465  -0.000544  1.036414  0.0  0.103019  0.109696  -0.000769  1.036097  -0.001
H  H15  1  0.81430107  0.54565118  0.97024394  1  0.101742  0.000632  0.97503  0.0  0.111532  0.000675  1.036534  0.001  0.114394  0.000544  1.036496  0.0  0.103033  0.109629  0.000768  1.03617  0.001
H  H16  1  0.41268582  0.72707423  0.08758220  1  0.077603  -0.001302  0.967614  -0.002  0.083702  -0.001127  1.036435  -0.002  0.085453  -0.00087  1.034464  -0.001  0.118401  0.081765  -0.001323  1.039216  -0.002
H  H17  1  0.58731592  0.27292883  0.91241910  1  0.07762  0.001302  0.96772  0.002  0.083721  0.001126  1.03652  0.002  0.085471  0.00087  1.034549  0.001  0.118424  0.081788  0.001322  1.039296  0.002
C  C18  1  0.52612776  0.81540160  0.57627024  1  0.150149  0.010018  3.663403  0.012  0.122351  0.002806  3.920251  0.004  0.134139  0.002989  3.935869  0.004  0.06228  0.113303  0.003008  3.910185  0.004
C  C19  1  0.47386368  0.18458742  0.42372683  1  0.149992  -0.010024  3.663124  -0.012  0.122207  -0.002808  3.919974  -0.004  0.133999  -0.002992  3.935587  -0.004  0.062199  0.113155  -0.003009  3.909921  -0.004
C  C20  1  0.43819882  0.71787407  0.42446140  1  -0.116751  -0.008236  3.724588  -0.01  -0.127198  -0.003164  3.972901  -0.004  -0.134854  -0.002942  3.993273  -0.004  -0.083474  -0.121676  -0.003529  3.960334  -0.005
C  C21  1  0.56180930  0.28213838  0.57554681  1  -0.116676  0.008237  3.724474  0.01  -0.127097  0.003163  3.972763  0.004  -0.13475  0.002941  3.993126  0.004  -0.083454  -0.121575  0.00353  3.960192  0.005
C  C22  1  0.30668909  0.56325951  0.37349985  1  -0.048201  0.010208  3.686897  0.011  -0.074247  0.003608  3.937022  0.004  -0.070045  0.003238  3.953017  0.004  -0.067162  -0.077833  0.004502  3.92744  0.005
C  C23  1  0.69330893  0.43673056  0.62649189  1  -0.048223  -0.010203  3.68752  -0.011  -0.074308  -0.003605  3.937733  -0.004  -0.070088  -0.003234  3.953753  -0.004  -0.067227  -0.077884  -0.004496  3.928127  -0.005
C  C24  1  0.25750656  0.50703553  0.47425994  1  0.026673  -0.0045  3.795721  -0.006  0.043592  -0.001901  4.024477  -0.003  0.041107  -0.001716  4.047774  -0.002  -0.000975  0.044932  -0.002136  4.008727  -0.003
C  C25  1  0.74249395  0.49296525  0.52575099  1  0.026782  0.004505  3.795626  0.006  0.043535  0.001901  4.024546  0.003  0.041053  0.001716  4.047841  0.002  -0.000892  0.044875  0.002137  4.008792  0.003
C  C26  1  0.12232936  0.34942356  0.43272309  1  -0.090285  -0.000289  3.701848  0.0  -0.112812  -0.000386  3.957744  0.0  -0.115309  -0.000277  3.979387  0.0  -0.082496  -0.11044  -0.000624  3.94254  -0.001
C  C27  1  0.87767739  0.65057468  0.56727651  1  -0.090395  0.000284  3.701977  0.0  -0.112889  0.000386  3.95793  0.0  -0.115388  0.000276  3.979577  0.0  -0.082539  -0.110504  0.000625  3.942697  0.001
C  C28  1  0.08154111  0.30197855  0.53588461  1  -0.094103  -0.00193  3.723491  -0.002  -0.116864  -0.001009  3.976515  -0.001  -0.120794  -0.000884  4.000359  -0.001  -0.081994  -0.114384  -0.001021  3.960132  -0.001
C  C29  1  0.91846388  0.69802211  0.46411836  1  -0.09404  0.001935  3.723493  0.002  -0.116769  0.001009  3.976473  0.001  -0.120699  0.000884  4.000318  0.001  -0.081939  -0.114289  0.001022  3.960087  0.001
C  C30  1  0.16765233  0.40954816  0.68772892  1  0.025002  -0.003409  3.797874  -0.004  0.042456  -0.001519  4.024796  -0.002  0.039606  -0.001324  4.048853  -0.002  -0.001288  0.045141  -0.001816  4.008609  -0.003
C  C31  1  0.83235065  0.59045721  0.31226660  1  0.025103  0.003405  3.79805  0.004  0.042532  0.001519  4.024936  0.002  0.039684  0.001324  4.048993  0.002  -0.001289  0.045215  0.001816  4.00875  0.003
C  C32  1  0.12512442  0.36921781  0.79859058  1  -0.040939  0.008876  3.682354  0.009  -0.065247  0.003129  3.93039  0.003  -0.060906  0.002864  3.946095  0.003  -0.062561  -0.069481  0.003831  3.921556  0.004
C  C33  1  0.87486973  0.63077354  0.20140767  1  -0.040952  -0.008866  3.682807  -0.009  -0.065239  -0.003127  3.930821  -0.003  -0.060902  -0.002862  3.946529  -0.003  -0.062548  -0.069469  -0.003826  3.921977  -0.004
C  C34  1  0.21332025  0.48285560  0.94203127  1  -0.124397  -0.007415  3.741692  -0.009  -0.137247  -0.003334  3.992621  -0.004  -0.144578  -0.002965  4.012128  -0.004  -0.088478  -0.131667  -0.00345  3.979765  -0.005
C  C35  1  0.78668990  0.51715205  0.05796901  1  -0.124281  0.00741  3.741577  0.009  -0.13713  0.003334  3.992528  0.004  -0.144456  0.002965  4.012036  0.004  -0.088508  -0.131547  0.003451  3.979662  0.005
C  C36  1  0.34316696  0.63606269  0.97545125  1  0.14223  0.007784  3.674091  0.01  0.115376  0.00157  3.928998  0.003  0.126882  0.001996  3.9451  0.003  0.054767  0.106584  0.001441  3.920318  0.003
C  C37  1  0.65683201  0.36393208  0.02454024  1  0.142144  -0.007781  3.673852  -0.01  0.115297  -0.001571  3.92878  -0.003  0.1268  -0.001996  3.944881  -0.003  0.054756  0.106511  -0.001442  3.920106  -0.003
C  C38  1  0.30157251  0.56649324  0.73184622  1  0.126263  0.002325  3.738553  0.003  0.122128  -8e-06  3.977022  0.001  0.127561  0.000358  3.998741  0.001  0.11587  0.117982  -0.000132  3.963687  0.0
C  C39  1  0.69842381  0.43350520  0.26815848  1  0.125948  -0.00232  3.738854  -0.003  0.121852  8e-06  3.977193  -0.001  0.127283  -0.000357  3.998913  -0.001  0.115811  0.11771  0.000131  3.963864  0.0
C  C40  1  0.35008881  0.61437667  0.62452298  1  0.124503  0.003479  3.756551  0.005  0.119312  0.000595  3.997836  0.001  0.1246  0.000943  4.020081  0.002  0.116094  0.11478  0.000449  3.983978  0.001
C  C41  1  0.64991024  0.38562403  0.37547137  1  0.124479  -0.003483  3.756611  -0.005  0.119457  -0.000595  3.997719  -0.001  0.124741  -0.000943  4.019971  -0.002  0.116105  0.114927  -0.00045  3.983865  -0.001
N  N42  1  0.48515371  0.76488916  0.67379072  1  -0.29716  -0.055238  3.320746  -0.079  -0.260842  -0.039009  3.604929  -0.058  -0.290229  -0.032798  3.625775  -0.049  -0.32192  -0.24058  -0.043283  3.591697  -0.062
N  N43  1  0.51485074  0.23511624  0.32621272  1  -0.297151  0.055243  3.320863  0.079  -0.260905  0.039011  3.605021  0.058  -0.290292  0.032799  3.625874  0.049  -0.321937  -0.240642  0.043295  3.591805  0.062
N  N44  1  0.38681020  0.67719256  0.87341877  1  -0.284772  -0.054039  3.295654  -0.077  -0.246559  -0.039667  3.574036  -0.058  -0.275087  -0.033365  3.594699  -0.05  -0.314454  -0.228551  -0.043537  3.562436  -0.063
N  N45  1  0.61319636  0.32281397  0.12658249  1  -0.28455  0.054033  3.295481  0.077  -0.246387  0.039665  3.57387  0.058  -0.274909  0.033361  3.594533  0.05  -0.314388  -0.228388  0.043543  3.562288  0.063
N  N46  1  0.80630929  0.07412504  0.89110874  1  -0.424308  0.0418  2.653053  0.051  -0.463994  0.022514  2.961267  0.029  -0.496056  0.025475  2.972175  0.034  -0.246492  -0.439315  0.021691  2.952597  0.027
N  N47  1  0.19368920  0.92588045  0.10889570  1  -0.424408  -0.041823  2.652569  -0.051  -0.464098  -0.022519  2.960752  -0.029  -0.496182  -0.025477  2.971681  -0.034  -0.246586  -0.439435  -0.021679  2.952107  -0.027
N  N48  1  0.98380170  0.13801332  0.97957996  1  0.38157  -0.001907  4.161415  -0.002  0.438164  -0.001907  4.466124  -0.002  0.460337  -0.001087  4.502173  -0.001  0.087593  0.421902  -0.002789  4.439286  -0.004
N  N49  1  0.01617792  0.86198175  0.02041044  1  0.381505  0.001932  4.161513  0.003  0.438102  0.00192  4.466229  0.002  0.460275  0.001099  4.50228  0.001  0.087569  0.421841  0.002788  4.43938  0.004
N  N50  1  0.16073692  0.20800355  0.06826209  1  -0.422596  -0.041968  2.642546  -0.049  -0.463662  -0.021501  2.948911  -0.026  -0.493608  -0.025286  2.958851  -0.032  -0.240077  -0.439835  -0.018733  2.940445  -0.021
N  N51  1  0.83926720  0.79199828  0.93173728  1  -0.422376  0.041953  2.643046  0.049  -0.463454  0.021494  2.949438  0.026  -0.49338  0.025279  2.959367  0.032  -0.239956  -0.439616  0.018745  2.940935  0.021
N  N52  1  0.34045689  0.98239731  0.88171027  1  -0.488168  -0.005638  2.833238  -0.008  -0.539462  -0.004208  3.192213  -0.007  -0.587816  -0.002635  3.20801  -0.005  -0.296646  -0.504365  -0.004709  3.18053  -0.008
N  N53  1  0.65954093  0.01760107  0.11828890  1  -0.488207  0.005624  2.833098  0.008  -0.539498  0.004203  3.192059  0.007  -0.587852  0.002632  3.207847  0.005  -0.296667  -0.504396  0.00472  3.180374  0.008
N  N54  1  0.29585891  0.02482061  0.78635226  1  0.384145  0.001894  4.155898  0.003  0.432081  0.000699  4.467658  0.002  0.45261  0.000452  4.502462  0.001  0.087907  0.417565  0.000759  4.441189  0.002
N  N55  1  0.70413924  0.97518134  0.21365195  1  0.384161  -0.001894  4.155878  -0.003  0.432095  -0.000697  4.467636  -0.002  0.452626  -0.000451  4.502434  -0.001  0.087919  0.417582  -0.000764  4.441174  -0.002
N  N56  1  0.25243014  0.06323530  0.69181247  1  -0.374878  -0.001772  2.3836  -0.002  -0.383956  -0.002835  2.616279  -0.003  -0.395445  -0.001622  2.62718  -0.002  -0.180996  -0.373015  -0.003095  2.607042  -0.004
N  N57  1  0.74756592  0.93676547  0.30818719  1  -0.374842  0.001766  2.383684  0.002  -0.383932  0.00283  2.616366  0.003  -0.395415  0.00162  2.627261  0.002  -0.180972  -0.37299  0.0031  2.607136  0.004
