# generated using pymatgen
data_MnH13C15NO8
_symmetry_space_group_name_H-M   'P 1'
_cell_length_a   7.73599842
_cell_length_b   10.08166908
_cell_length_c   11.60220160
_cell_angle_alpha   66.71060988
_cell_angle_beta   76.15712381
_cell_angle_gamma   71.41220417
_symmetry_Int_Tables_number   1
_chemical_formula_structural   MnH13C15NO8
_chemical_formula_sum   'Mn2 H26 C30 N2 O16'
_cell_volume   781.09955134
_cell_formula_units_Z   2
loop_
 _symmetry_equiv_pos_site_id
 _symmetry_equiv_pos_as_xyz
  1  'x, y, z'
loop_
 _atom_site_type_symbol
 _atom_site_label
 _atom_site_symmetry_multiplicity
 _atom_site_fract_x
 _atom_site_fract_y
 _atom_site_fract_z
 _atom_site_occupancy
 _atom_site_hle17_ddec_charge
 _atom_site_hle17_ddec_spin_density
 _atom_site_hle17_ddec_sum_bond_order
 _atom_site_hle17_magmom
 _atom_site_hse06_10hf_bader_charge
 _atom_site_hse06_10hf_bader_spin_density
 _atom_site_hse06_10hf_ddec_charge
 _atom_site_hse06_10hf_ddec_spin_density
 _atom_site_hse06_10hf_ddec_sum_bond_order
 _atom_site_hse06_10hf_magmom
 _atom_site_hse06_ddec_charge
 _atom_site_hse06_ddec_spin_density
 _atom_site_hse06_ddec_sum_bond_order
 _atom_site_hse06_magmom
 _atom_site_pbe_cm5_charge
 _atom_site_pbe_ddec_charge
 _atom_site_pbe_ddec_spin_density
 _atom_site_pbe_ddec_sum_bond_order
 _atom_site_pbe_magmom
Mn  Mn0  1  0.85549755  0.90876842  0.93963440  1  1.245249  4.803128  1.680429  4.682  1.548485  4.623413  1.093565  4.731844  2.178207  4.546  1.155306  4.772278  2.100907  4.606  0.591921  1.045625  4.689723  2.236094  4.486
Mn  Mn1  1  0.14449958  0.09123500  0.06036600  1  1.24523  4.803137  1.680452  4.682  1.548533  4.623403  1.09355  4.731836  2.178232  4.546  1.155291  4.772272  2.100931  4.606  0.591915  1.04563  4.689711  2.236077  4.486
H  H2  1  0.14166556  0.54300987  0.06643430  1  0.112575  -0.000592  0.953882  0.0  0.126391  0.000189  0.119541  -0.000511  1.022713  0.0  0.123794  -0.000581  1.018752  0.0  0.110874  0.116331  -0.000448  1.025902  0.0
H  H3  1  0.85833531  0.45699463  0.93356084  1  0.112602  -0.000601  0.953794  0.0  0.126535  0.00019  0.119551  -0.000511  1.02265  0.0  0.123807  -0.000582  1.018693  0.0  0.110878  0.116341  -0.000448  1.025836  0.0
H  H4  1  0.61461692  0.20365033  0.21699777  1  0.118129  -0.000473  0.931461  0.0  0.118982  0.000274  0.127422  -0.000255  0.992039  0.0  0.131431  -0.000322  0.988885  0.0  0.112809  0.124386  -0.000189  0.994404  0.0
H  H5  1  0.38538153  0.79635309  0.78300242  1  0.118137  -0.000468  0.931554  0.0  0.118912  0.000274  0.127436  -0.000255  0.992127  0.0  0.131441  -0.000322  0.988974  0.0  0.112812  0.124401  -0.000189  0.994492  0.0
H  H6  1  0.55430348  0.66500435  0.16515348  1  0.10958  -0.000698  0.960949  0.0  0.120914  0.000164  0.114373  -0.000602  1.035441  0.0  0.118295  -0.000652  1.031871  0.0  0.106909  0.111484  -0.00047  1.037909  0.0
H  H7  1  0.44569158  0.33500130  0.83484818  1  0.109623  -0.000721  0.960956  0.0  0.120924  0.000165  0.114395  -0.000602  1.035448  0.0  0.118318  -0.000652  1.03188  0.0  0.10692  0.111499  -0.00047  1.037922  0.0
H  H8  1  0.85718929  0.26809710  0.25961368  1  0.120568  -0.000487  0.954113  0.0  0.15732  0.000121  0.130542  -0.000475  1.017189  0.0  0.133214  -0.000511  1.014782  0.0  0.121391  0.128597  -0.000402  1.01881  0.0
H  H9  1  0.14280267  0.73190180  0.74038474  1  0.120577  -0.000501  0.95407  0.0  0.157337  0.00012  0.130577  -0.000475  1.017117  0.0  0.133253  -0.000511  1.014701  0.0  0.121391  0.128632  -0.000402  1.018748  0.0
H  H10  1  0.88272460  0.44940442  0.16089571  1  0.115468  -0.000365  0.921844  0.0  0.149624  7.4e-05  0.125682  -0.000362  0.988215  0.0  0.1279  -0.000403  0.986153  0.0  0.124045  0.123886  -0.000333  0.989912  0.0
H  H11  1  0.11727564  0.55059340  0.83910442  1  0.115436  -0.000371  0.921874  0.0  0.149608  7.4e-05  0.12565  -0.000362  0.988231  0.0  0.127865  -0.000404  0.986176  0.0  0.124048  0.123856  -0.000333  0.989927  0.0
H  H12  1  0.85796052  0.62301215  0.24030723  1  0.119704  -0.000225  0.927123  0.0  0.184769  3.5e-05  0.128004  -0.000213  0.990687  0.0  0.131025  -0.000245  0.987578  0.0  0.143339  0.12553  -0.00015  0.993291  0.0
H  H13  1  0.14204383  0.37698120  0.75969125  1  0.119694  -0.000237  0.927151  0.0  0.184737  3.4e-05  0.127976  -0.000213  0.990743  0.0  0.130997  -0.000245  0.987636  0.0  0.143318  0.125501  -0.00015  0.99335  0.0
H  H14  1  0.73276312  0.53147696  0.64147989  1  0.105234  -2e-06  0.979689  0.0  0.147433  2.9e-05  0.110186  2.3e-05  1.050219  0.0  0.112294  2e-05  1.049812  0.0  0.109998  0.108431  4.2e-05  1.050758  0.0
H  H15  1  0.26724270  0.46852423  0.35851910  1  0.105255  1.5e-05  0.979713  0.0  0.147452  2.8e-05  0.110198  2.3e-05  1.050232  0.0  0.112321  2.1e-05  1.049781  0.0  0.109995  0.108441  4.2e-05  1.050772  0.0
H  H16  1  0.67205787  0.28814144  0.66570936  1  0.133658  -0.000295  0.948794  0.0  0.164997  0.000307  0.140429  -0.00026  1.008271  0.0  0.144644  -0.000316  1.006364  0.0  0.120204  0.137287  -0.000154  1.009918  0.0
H  H17  1  0.32793995  0.71185974  0.33429170  1  0.133668  -0.000282  0.948695  0.0  0.165008  0.000307  0.14043  -0.00026  1.008181  0.0  0.144645  -0.000315  1.006274  0.0  0.120193  0.137289  -0.000154  1.009829  0.0
H  H18  1  0.70477136  0.23097417  0.46677969  1  0.113969  2.7e-05  0.89442  0.0  0.142919  0.00025  0.128469  0.000168  0.943412  0.0  0.13129  9.5e-05  0.940661  0.0  0.146084  0.126103  0.000285  0.945867  0.0
H  H19  1  0.29522612  0.76902368  0.53322516  1  0.113953  2.8e-05  0.894349  0.0  0.142952  0.000249  0.128468  0.000167  0.943342  0.0  0.13129  9.6e-05  0.940591  0.0  0.146064  0.126111  0.000285  0.945797  0.0
H  H20  1  0.75623001  0.86800245  0.19521649  1  0.41945  3.4e-05  0.891359  0.001  0.666471  0.00112  0.385719  0.000743  0.960212  0.002  0.397145  0.000454  0.943751  0.002  0.28837  0.377639  0.001026  0.971818  0.002
H  H21  1  0.24377215  0.13199762  0.80478430  1  0.419356  3.4e-05  0.891467  0.001  0.666506  0.00112  0.385601  0.000744  0.960364  0.002  0.397027  0.000455  0.943901  0.002  0.288327  0.37752  0.001026  0.971972  0.002
H  H22  1  0.57825818  0.97089038  0.12927480  1  0.444629  -0.000339  0.845014  0.001  0.64684  0.001435  0.41608  0.000371  0.904075  0.002  0.42658  6.1e-05  0.888834  0.002  0.301218  0.408524  0.000674  0.915053  0.002
H  H23  1  0.42174253  0.02911417  0.87072725  1  0.444655  -0.000341  0.844977  0.001  0.646844  0.001436  0.416109  0.000371  0.904032  0.002  0.426609  6.2e-05  0.888791  0.002  0.30126  0.408555  0.000674  0.915009  0.002
H  H24  1  0.04899061  0.03927309  0.70606896  1  0.423452  -0.000119  0.886772  0.0  0.665088  0.000542  0.385912  0.000512  0.960931  0.001  0.398931  0.000291  0.942065  0.001  0.283511  0.376863  0.000739  0.974009  0.001
H  H25  1  0.95101391  0.96072365  0.29393348  1  0.42338  -0.00012  0.886845  0.0  0.665072  0.000542  0.385837  0.000512  0.961019  0.001  0.398855  0.000291  0.942155  0.001  0.283484  0.376789  0.000739  0.974097  0.001
H  H26  1  0.89987333  0.97466791  0.68328048  1  0.416965  -0.000239  0.825623  0.0  0.623417  0.001342  0.40092  0.000585  0.878847  0.001  0.409524  0.000225  0.869076  0.001  0.319708  0.394465  0.001039  0.88641  0.001
H  H27  1  0.10012239  0.02533552  0.31672357  1  0.416991  -0.000241  0.82565  0.0  0.623469  0.001342  0.400953  0.000585  0.878872  0.001  0.409556  0.000225  0.869099  0.001  0.319702  0.394495  0.001039  0.886439  0.001
C  C28  1  0.22519005  0.77736764  0.08127145  1  0.683995  0.01169  3.882986  0.012  1.621047  0.019224  0.629619  0.019234  4.175514  0.018  0.666853  0.014878  4.167452  0.014  0.229744  0.60347  0.024194  4.180107  0.022
C  C29  1  0.77480949  0.22263686  0.91872390  1  0.683888  0.011682  3.883248  0.012  1.621146  0.019221  0.629711  0.019231  4.175479  0.018  0.666943  0.014877  4.167419  0.014  0.229816  0.603559  0.02419  4.180066  0.022
C  C30  1  0.33274660  0.61796979  0.11939805  1  -0.079899  -0.002309  3.783435  -0.001  -0.019062  2e-06  -0.050674  -0.001295  4.014569  -0.001  -0.061048  -0.00237  4.03791  -0.001  -0.0204  -0.044292  -9.5e-05  3.999817  0.0
C  C31  1  0.66724796  0.38203358  0.88059844  1  -0.079869  -0.002337  3.783486  -0.001  -0.019347  6e-06  -0.050729  -0.001291  4.014595  -0.001  -0.061102  -0.002372  4.03794  -0.001  -0.0205  -0.044343  -9.5e-05  3.999833  0.0
C  C32  1  0.26840197  0.51003154  0.10727256  1  -0.064919  0.00289  3.688975  0.003  -0.063292  0.004558  -0.102961  0.003049  3.935817  0.003  -0.099817  0.002702  3.953943  0.003  -0.070644  -0.105742  0.005242  3.925244  0.004
C  C33  1  0.73159392  0.48997184  0.89272372  1  -0.064916  0.002932  3.688792  0.003  -0.063012  0.004555  -0.102953  0.003047  3.935652  0.003  -0.099816  0.002703  3.953783  0.003  -0.070611  -0.105732  0.005241  3.925075  0.004
C  C34  1  0.36893127  0.36102115  0.14301995  1  -0.055649  -0.004907  3.756755  -0.003  -0.008381  -0.002474  -0.028104  -0.0034  3.988742  -0.002  -0.036542  -0.004081  4.010883  -0.003  -0.014502  -0.023199  -0.002645  3.974744  -0.002
C  C35  1  0.63106722  0.63898225  0.85697851  1  -0.055631  -0.004951  3.756697  -0.003  -0.008391  -0.002476  -0.02804  -0.003402  3.988629  -0.002  -0.036474  -0.00408  4.010762  -0.003  -0.014492  -0.023137  -0.002644  3.974634  -0.002
C  C36  1  0.30438348  0.25030774  0.11923148  1  0.642872  0.004518  3.908662  0.003  1.586897  0.007067  0.595148  0.008433  4.192866  0.006  0.628697  0.006812  4.189287  0.005  0.209461  0.572215  0.010427  4.19384  0.007
C  C37  1  0.69562267  0.74969234  0.88076870  1  0.642859  0.004515  3.908772  0.003  1.586703  0.007067  0.595134  0.008433  4.192959  0.006  0.628681  0.00681  4.189379  0.005  0.20944  0.572204  0.010426  4.193932  0.007
C  C38  1  0.53551697  0.31981499  0.19117461  1  -0.083256  0.005  3.650231  0.004  -0.032004  0.007656  -0.121401  0.005704  3.900561  0.005  -0.118782  0.00478  3.917547  0.004  -0.069707  -0.122094  0.006001  3.888534  0.005
C  C39  1  0.46448148  0.68018842  0.80882559  1  -0.083231  0.005022  3.650301  0.004  -0.032015  0.007657  -0.121393  0.005706  3.900636  0.005  -0.118768  0.004777  3.917612  0.004  -0.069686  -0.122083  0.006  3.88861  0.005
C  C40  1  0.60422277  0.42859694  0.19817553  1  0.057053  -0.003296  3.752787  -0.002  -0.018597  -0.001347  0.079736  -0.001563  4.001852  -0.001  0.075819  -0.002253  4.02664  -0.002  -0.014024  0.082158  -0.00137  3.984462  -0.001
C  C41  1  0.39577206  0.57140534  0.80182474  1  0.056946  -0.003346  3.752957  -0.002  -0.018621  -0.001348  0.079619  -0.001565  4.002024  -0.001  0.075705  -0.002251  4.02681  -0.002  -0.014058  0.082044  -0.001369  3.984634  -0.001
C  C42  1  0.50224263  0.57739425  0.16290527  1  -0.109313  0.004845  3.699282  0.004  -0.054152  0.007478  -0.146673  0.005454  3.952293  0.005  -0.144651  0.004643  3.971216  0.004  -0.081644  -0.146814  0.005677  3.938736  0.005
C  C43  1  0.49775286  0.42261026  0.83709327  1  -0.109284  0.004915  3.699485  0.004  -0.054189  0.007473  -0.146609  0.005451  3.952504  0.005  -0.144571  0.004644  3.971385  0.004  -0.081571  -0.146746  0.005675  3.938956  0.005
C  C44  1  0.79209911  0.38785337  0.23695383  1  -0.075258  2.5e-05  3.582228  0.0  0.18746  0.000236  -0.14183  -2.7e-05  3.827013  0.0  -0.138368  -0.000116  3.836924  0.0  -0.046822  -0.143945  4e-05  3.820248  0.0
C  C45  1  0.20790012  0.61214334  0.76304770  1  -0.075132  4.8e-05  3.582179  0.0  0.187432  0.000237  -0.141739  -2.7e-05  3.827022  0.0  -0.138278  -0.000116  3.836936  0.0  -0.046807  -0.143862  4e-05  3.820274  0.0
C  C46  1  0.81487262  0.55535922  0.33623011  1  0.095515  1.1e-05  3.546435  0.0  0.374362  0.000199  0.042294  7.6e-05  3.796756  0.0  0.052569  0.0  3.810629  0.0  0.07897  0.035196  0.000583  3.788226  0.0
C  C47  1  0.18512702  0.44463636  0.66376916  1  0.095465  7e-05  3.546479  0.0  0.374615  0.000197  0.042271  7.5e-05  3.796772  0.0  0.052545  5e-06  3.810648  0.0  0.078984  0.035189  0.000583  3.788211  0.0
C  C48  1  0.79630124  0.59642014  0.44054101  1  -0.096209  3.3e-05  3.717818  0.0  0.078013  0.000246  -0.070796  0.000179  3.957612  0.0  -0.082785  7.2e-05  3.979802  0.0  -0.002799  -0.063657  0.000294  3.943334  0.0
C  C49  1  0.20370074  0.40357210  0.55946079  1  -0.095898  6e-06  3.717534  0.0  0.077475  0.000244  -0.070518  0.000177  3.957306  0.0  -0.082506  7.7e-05  3.9795  0.0  -0.002668  -0.063379  0.000294  3.943025  0.0
C  C50  1  0.74275550  0.50018108  0.55997060  1  0.002024  6.9e-05  3.665436  0.0  -0.028301  9.6e-05  -0.033826  6.4e-05  3.92178  0.0  -0.026798  1.9e-05  3.938848  0.0  -0.049504  -0.037917  0.000857  3.910274  0.001
C  C51  1  0.25724740  0.49981674  0.44002913  1  0.001903  4.7e-05  3.665483  0.0  -0.027836  9.8e-05  -0.033907  6.6e-05  3.921791  0.0  -0.026875  1.6e-05  3.938864  0.0  -0.049547  -0.037998  0.000857  3.910284  0.001
C  C52  1  0.70815376  0.36702553  0.57290482  1  -0.101264  4.3e-05  3.696723  0.0  0.039816  0.000323  -0.116775  0.000172  3.962041  0.0  -0.125039  6.5e-05  3.981766  0.0  -0.069177  -0.111961  0.000273  3.949365  0.0
C  C53  1  0.29184717  0.63297006  0.42709598  1  -0.101275  -4e-06  3.696636  0.0  0.038065  0.000324  -0.11677  0.000174  3.96195  0.0  -0.125035  6.4e-05  3.981676  0.0  -0.069158  -0.111954  0.000273  3.949277  0.0
C  C54  1  0.72813889  0.33244041  0.46559511  1  0.111411  7.6e-05  3.573656  0.0  0.390436  0.000255  0.064832  0.000211  3.829479  0.0  0.075012  0.000112  3.842615  0.0  0.077294  0.058339  0.000887  3.82092  0.001
C  C55  1  0.27185801  0.66755519  0.53440802  1  0.111512  0.000101  3.573555  0.0  0.392332  0.000255  0.064887  0.000212  3.829427  0.0  0.075066  0.000112  3.842565  0.0  0.07737  0.058382  0.000888  3.820882  0.001
C  C56  1  0.84230340  0.73838774  0.42740648  1  0.633927  6.1e-05  3.97219  0.0  1.681205  0.000164  0.585236  0.000222  4.268444  0.0  0.618271  0.000121  4.262952  0.0  0.198424  0.56312  0.000348  4.271211  0.0
C  C57  1  0.15770378  0.26160455  0.57259969  1  0.633738  8.9e-05  3.972371  0.0  1.680988  0.000163  0.585052  0.000221  4.268612  0.0  0.618087  0.000122  4.263126  0.0  0.198315  0.56293  0.000348  4.27138  0.0
N  N58  1  0.78006094  0.42636978  0.35016521  1  0.01508  -8.6e-05  3.541494  0.0  -1.257197  2e-05  0.112116  1.5e-05  3.750759  0.0  0.098113  -4.3e-05  3.776614  0.0  -0.198951  0.120847  0.000541  3.733409  0.001
N  N59  1  0.21993967  0.57362247  0.64983851  1  0.014925  -0.000121  3.541747  0.0  -1.257418  2e-05  0.111958  1.5e-05  3.75105  0.0  0.097953  -4.5e-05  3.776908  0.0  -0.199042  0.120689  0.000542  3.733708  0.001
O  O60  1  0.10552067  0.81933295  0.00733041  1  -0.672637  0.039649  2.073321  0.022  -1.255287  0.072007  -0.606048  0.051962  2.36139  0.028  -0.63784  0.045808  2.342155  0.023  -0.31398  -0.581944  0.057297  2.373913  0.033
O  O61  1  0.89448554  0.18067600  0.99265894  1  -0.672647  0.039644  2.073437  0.022  -1.255183  0.072008  -0.606118  0.051964  2.361373  0.028  -0.637906  0.045808  2.342135  0.023  -0.314088  -0.582035  0.057299  2.37393  0.033
O  O62  1  0.26319663  0.86130230  0.12468567  1  -0.651324  0.037091  2.060714  0.024  -1.222707  0.064216  -0.585904  0.044068  2.328682  0.027  -0.617153  0.038662  2.313617  0.022  -0.308283  -0.562677  0.048955  2.339072  0.031
O  O63  1  0.73679612  0.13870223  0.87531672  1  -0.651311  0.037096  2.060976  0.024  -1.222818  0.064219  -0.585947  0.044069  2.328822  0.027  -0.617197  0.038665  2.313759  0.022  -0.308293  -0.562716  0.048958  2.33921  0.031
O  O64  1  0.38528830  0.11197044  0.15812762  1  -0.658061  0.016725  1.939533  0.012  -1.235145  0.034713  -0.598447  0.024811  2.162907  0.019  -0.625051  0.021234  2.150753  0.016  -0.313014  -0.578705  0.028247  2.171302  0.022
O  O65  1  0.61471689  0.88803296  0.84186812  1  -0.658102  0.016731  1.939491  0.012  -1.234931  0.034716  -0.598485  0.024814  2.162857  0.019  -0.62509  0.021235  2.150705  0.016  -0.313013  -0.578737  0.028249  2.171252  0.022
O  O66  1  0.16662246  0.30057035  0.05710108  1  -0.652598  0.031228  1.978051  0.022  -1.216677  0.050208  -0.589165  0.034365  2.235177  0.022  -0.621681  0.030482  2.225433  0.018  -0.316308  -0.564327  0.037887  2.24033  0.025
O  O67  1  0.83337610  0.69942858  0.94289892  1  -0.652583  0.031218  1.978232  0.022  -1.216712  0.050203  -0.589169  0.034363  2.23539  0.022  -0.621683  0.030481  2.225646  0.018  -0.316302  -0.564331  0.037884  2.240544  0.025
O  O68  1  0.86838156  0.82841210  0.31300893  1  -0.65246  -0.000281  2.029546  0.0  -1.216422  0.001204  -0.583103  -6.7e-05  2.242258  0.001  -0.611381  -0.00028  2.231961  0.0  -0.314852  -0.563705  0.000366  2.248762  0.001
O  O69  1  0.13162906  0.17158238  0.68698993  1  -0.652488  -0.000285  2.029718  0.0  -1.216503  0.001205  -0.583093  -6.6e-05  2.242396  0.001  -0.611371  -0.00028  2.2321  0.0  -0.314897  -0.563699  0.000366  2.248903  0.001
O  O70  1  0.85657552  0.75342715  0.52597730  1  -0.598999  0.00015  1.873759  0.0  -1.189947  0.000852  -0.566867  0.000495  2.083314  0.0  -0.588362  0.000292  2.076913  0.0  -0.340675  -0.551887  0.000749  2.087392  0.001
O  O71  1  0.14342289  0.24656394  0.47402198  1  -0.598938  0.000132  1.873775  0.0  -1.189785  0.000856  -0.566812  0.000498  2.083322  0.0  -0.588312  0.000285  2.076923  0.0  -0.340573  -0.551831  0.000749  2.087398  0.001
O  O72  1  0.68814734  0.88846986  0.12391583  1  -0.860355  0.031733  1.858094  0.019  -1.313303  0.056638  -0.801043  0.041522  2.066979  0.025  -0.826066  0.037073  2.029797  0.022  -0.572543  -0.782052  0.045605  2.093293  0.028
O  O73  1  0.31185374  0.11153358  0.87608568  1  -0.860293  0.031734  1.858135  0.019  -1.313338  0.056637  -0.800975  0.04152  2.067033  0.025  -0.825998  0.037071  2.029853  0.022  -0.572546  -0.781988  0.045603  2.093342  0.028
O  O74  1  0.99564003  0.94873053  0.73533644  1  -0.828268  0.025707  1.875448  0.016  -1.292451  0.047172  -0.772173  0.03475  2.076706  0.022  -0.795323  0.030992  2.044377  0.019  -0.556435  -0.755544  0.038262  2.099591  0.024
O  O75  1  0.00435638  0.05127067  0.26466828  1  -0.828237  0.025709  1.875514  0.016  -1.292512  0.047175  -0.772143  0.03475  2.076743  0.022  -0.795291  0.030991  2.044417  0.019  -0.556396  -0.755517  0.038262  2.09963  0.024
