# generated using pymatgen
data_AgH3C3SN2O3
_symmetry_space_group_name_H-M   'P 1'
_cell_length_a   5.41287026
_cell_length_b   7.66242742
_cell_length_c   14.05419608
_cell_angle_alpha   89.64355502
_cell_angle_beta   90.00018973
_cell_angle_gamma   90.00006242
_symmetry_Int_Tables_number   1
_chemical_formula_structural   AgH3C3SN2O3
_chemical_formula_sum   'Ag4 H12 C12 S4 N8 O12'
_cell_volume   582.89669832
_cell_formula_units_Z   4
loop_
 _symmetry_equiv_pos_site_id
 _symmetry_equiv_pos_as_xyz
  1  'x, y, z'
loop_
 _atom_site_type_symbol
 _atom_site_label
 _atom_site_symmetry_multiplicity
 _atom_site_fract_x
 _atom_site_fract_y
 _atom_site_fract_z
 _atom_site_occupancy
 _atom_site_hle17_bader_spin_density
 _atom_site_hle17_ddec_charge
 _atom_site_hle17_ddec_spin_density
 _atom_site_hle17_ddec_sum_bond_order
 _atom_site_hle17_magmom
 _atom_site_hse06_10hf_bader_spin_density
 _atom_site_hse06_10hf_ddec_charge
 _atom_site_hse06_10hf_ddec_spin_density
 _atom_site_hse06_10hf_ddec_sum_bond_order
 _atom_site_hse06_10hf_magmom
 _atom_site_hse06_bader_spin_density
 _atom_site_hse06_ddec_charge
 _atom_site_hse06_ddec_spin_density
 _atom_site_hse06_ddec_sum_bond_order
 _atom_site_hse06_magmom
 _atom_site_pbe_bader_spin_density
 _atom_site_pbe_cm5_charge
 _atom_site_pbe_ddec_charge
 _atom_site_pbe_ddec_spin_density
 _atom_site_pbe_ddec_sum_bond_order
 _atom_site_pbe_magmom
Ag  Ag0  1  0.00000109  0.00000026  0.00000808  1  0  0.551826  0  1.385734  0  0  0.399262  0  1.825347  0  0  0.428247  0  1.781153  0  0  0.486923  0.379067  0  1.855911  0
Ag  Ag1  1  0.50001029  0.00000779  0.50000292  1  0  0.551874  0  1.385838  0  0  0.399329  0  1.825418  0  0  0.428295  0  1.781262  0  0  0.486963  0.379138  0  1.855979  0
Ag  Ag2  1  0.49999975  0.49999430  0.49999984  1  0  0.736275  0  1.105166  0  0  0.623903  0  1.514547  0  0  0.655937  0  1.46262  0  0  0.456507  0.600069  0  1.551476  0
Ag  Ag3  1  0.99998972  0.50000475  0.99999920  1  0  0.736209  0  1.10513  0  0  0.623884  0  1.514488  0  0  0.655915  0  1.462561  0  0  0.456488  0.600049  0  1.551416  0
H  H4  1  0.59951638  0.77544855  0.91418257  1  0  0.312884  0  0.894583  0  0  0.292533  0  0.957603  0  0  0.300312  0  0.951521  0  0  0.327675  0.287013  0  0.961994  0
H  H5  1  0.09952095  0.22454643  0.58581450  1  0  0.312967  0  0.894498  0  0  0.292541  0  0.957538  0  0  0.300321  0  0.951455  0  0  0.327723  0.28702  0  0.961928  0
H  H6  1  0.40047758  0.22455955  0.08582423  1  0  0.312837  0  0.894804  0  0  0.292478  0  0.95776  0  0  0.300248  0  0.951721  0  0  0.327666  0.286957  0  0.962152  0
H  H7  1  0.90049148  0.77543697  0.41418447  1  0  0.312883  0  0.894582  0  0  0.292513  0  0.957604  0  0  0.300298  0  0.951513  0  0  0.327602  0.28699  0  0.961999  0
H  H8  1  0.55242963  0.63244541  0.74753174  1  0  0.136748  0  0.946783  0  0  0.146745  0  1.006106  0  0  0.149477  0  1.003757  0  0  0.132575  0.14468  0  1.007916  0
H  H9  1  0.05238597  0.36756256  0.75246955  1  0  0.136764  0  0.946741  0  0  0.146818  0  1.006024  0  0  0.149554  0  1.003671  0  0  0.13254  0.144752  0  1.007832  0
H  H10  1  0.44760128  0.36758094  0.25247720  1  0  0.136745  0  0.946662  0  0  0.146821  0  1.005897  0  0  0.149561  0  1.003537  0  0  0.132565  0.144754  0  1.007707  0
H  H11  1  0.94759505  0.63242217  0.24752729  1  0  0.136696  0  0.946655  0  0  0.146759  0  1.005907  0  0  0.149497  0  1.00355  0  0  0.132563  0.144694  0  1.007715  0
H  H12  1  0.24519382  0.91275711  0.78230135  1  0  0.108672  0  0.957899  0  0  0.117687  0  1.022395  0  0  0.118844  0  1.022557  0  0  0.12208  0.116769  0  1.022355  0
H  H13  1  0.74517693  0.08723661  0.71769806  1  0  0.108745  0  0.957901  0  0  0.117738  0  1.022396  0  0  0.118906  0  1.022562  0  0  0.122083  0.116822  0  1.022356  0
H  H14  1  0.75482231  0.08723541  0.21769834  1  0  0.108747  0  0.957968  0  0  0.117751  0  1.022435  0  0  0.118918  0  1.022596  0  0  0.122069  0.116836  0  1.022395  0
H  H15  1  0.25485213  0.91278196  0.28230660  1  0  0.108878  0  0.957821  0  0  0.117848  0  1.022324  0  0  0.11902  0  1.022489  0  0  0.122137  0.116932  0  1.022284  0
C  C16  1  0.70841359  0.70957579  0.77089692  1  0  0.088985  0  3.621077  0  0  0.029066  0  3.884314  0  0  0.04139  0  3.895493  0  0  0.040828  0.021119  0  3.876819  0
C  C17  1  0.20839175  0.29041539  0.72909462  1  0  0.088798  0  3.62036  0  0  0.028739  0  3.883558  0  0  0.041058  0  3.894756  0  0  0.040844  0.020796  0  3.876049  0
C  C18  1  0.29159145  0.29042725  0.22909636  1  0  0.088804  0  3.620672  0  0  0.028854  0  3.883809  0  0  0.041176  0  3.895003  0  0  0.040837  0.02091  0  3.87631  0
C  C19  1  0.79158743  0.70957585  0.27090364  1  0  0.089109  0  3.621313  0  0  0.029153  0  3.884371  0  0  0.041469  0  3.895564  0  0  0.040922  0.021208  0  3.876875  0
C  C20  1  0.92892493  0.75152276  0.72487073  1  0  -0.24454  0  3.755573  0  0  -0.211496  0  4.014642  0  0  -0.22659  0  4.035525  0  0  -0.040042  -0.201826  0  4.000803  0
C  C21  1  0.42893292  0.24846839  0.77513249  1  0  -0.244269  0  3.754604  0  0  -0.211319  0  4.013877  0  0  -0.226407  0  4.034765  0  0  -0.040084  -0.201653  0  4.000035  0
C  C22  1  0.07105979  0.24847370  0.27512753  1  0  -0.244076  0  3.754361  0  0  -0.211162  0  4.013607  0  0  -0.226244  0  4.034492  0  0  -0.040051  -0.201497  0  3.999767  0
C  C23  1  0.57107766  0.75153060  0.22487289  1  0  -0.244545  0  3.755431  0  0  -0.211418  0  4.014377  0  0  -0.226509  0  4.035266  0  0  -0.040045  -0.20175  0  4.000538  0
C  C24  1  0.06371520  0.85430279  0.78942566  1  0  0.061538  0  3.673773  0  0  0.010754  0  3.937978  0  0  0.021227  0  3.953504  0  0  0.026563  0.004028  0  3.927345  0
C  C25  1  0.56370209  0.14568312  0.71056425  1  0  0.061442  0  3.673685  0  0  0.010686  0  3.937951  0  0  0.021147  0  3.953489  0  0  0.02653  0.00396  0  3.927317  0
C  C26  1  0.93628799  0.14568333  0.21056335  1  0  0.061273  0  3.673666  0  0  0.010505  0  3.938012  0  0  0.020967  0  3.953549  0  0  0.026503  0.003779  0  3.927382  0
C  C27  1  0.43632143  0.85433556  0.28943117  1  0  0.061306  0  3.673922  0  0  0.010462  0  3.938228  0  0  0.02092  0  3.953761  0  0  0.026517  0.003735  0  3.927597  0
S  S28  1  0.01530191  0.67696339  0.61177225  1  0  1.335668  0  5.674518  0  0  1.23959  0  6.175485  0  0  1.28901  0  6.154139  0  0  0.508303  1.205367  0  6.189056  0
S  S29  1  0.51531461  0.32305343  0.88825176  1  0  1.334671  0  5.673712  0  0  1.23862  0  6.174755  0  0  1.28805  0  6.153434  0  0  0.507958  1.20439  0  6.188319  0
S  S30  1  0.98467542  0.32305883  0.38825448  1  0  1.33425  0  5.67327  0  0  1.238216  0  6.174355  0  0  1.28764  0  6.153031  0  0  0.507754  1.20399  0  6.187909  0
S  S31  1  0.48468858  0.67696242  0.11176287  1  0  1.335226  0  5.674232  0  0  1.23917  0  6.175173  0  0  1.288595  0  6.153837  0  0  0.508119  1.204947  0  6.18874  0
N  N32  1  0.93262978  0.87367710  0.86967424  1  0  -0.212913  0  3.264192  0  0  -0.143093  0  3.57191  0  0  -0.158256  0  3.585264  0  0  -0.275873  -0.132755  0  3.562747  0
N  N33  1  0.43263819  0.12629730  0.63031048  1  0  -0.213079  0  3.264437  0  0  -0.143397  0  3.572155  0  0  -0.158552  0  3.585497  0  0  -0.276223  -0.133064  0  3.562997  0
N  N34  1  0.06734755  0.12630254  0.13031192  1  0  -0.212973  0  3.26417  0  0  -0.14328  0  3.571974  0  0  -0.158433  0  3.585324  0  0  -0.276241  -0.132946  0  3.56282  0
N  N35  1  0.56739456  0.87368747  0.36968280  1  0  -0.21287  0  3.264603  0  0  -0.143092  0  3.57227  0  0  -0.158247  0  3.58562  0  0  -0.276005  -0.132756  0  3.563108  0
N  N36  1  0.71773255  0.78583570  0.85666021  1  0  -0.162728  0  3.481797  0  0  -0.099385  0  3.711206  0  0  -0.111988  0  3.729727  0  0  -0.278994  -0.091184  0  3.698893  0
N  N37  1  0.21774496  0.21414120  0.64332564  1  0  -0.162668  0  3.481379  0  0  -0.098971  0  3.710493  0  0  -0.111582  0  3.729029  0  0  -0.278815  -0.090766  0  3.698173  0
N  N38  1  0.28223924  0.21414904  0.14333520  1  0  -0.162577  0  3.481864  0  0  -0.099045  0  3.711094  0  0  -0.111675  0  3.729634  0  0  -0.278796  -0.090837  0  3.698773  0
N  N39  1  0.78226193  0.78584112  0.35665412  1  0  -0.162841  0  3.482506  0  0  -0.099429  0  3.711838  0  0  -0.112037  0  3.730378  0  0  -0.27897  -0.091225  0  3.699517  0
O  O40  1  0.28427750  0.64572524  0.61999471  1  0  -0.699656  0  2.071127  0  0  -0.63595  0  2.363042  0  0  -0.661975  0  2.346002  0  0  -0.347463  -0.617289  0  2.374175  0
O  O41  1  0.78431792  0.35426997  0.87999052  1  0  -0.699192  0  2.070573  0  0  -0.635657  0  2.362654  0  0  -0.661692  0  2.345627  0  0  -0.347359  -0.616992  0  2.37378  0
O  O42  1  0.71566473  0.35427523  0.37999501  1  0  -0.699089  0  2.070565  0  0  -0.635525  0  2.362604  0  0  -0.66155  0  2.345575  0  0  -0.347268  -0.61686  0  2.373727  0
O  O43  1  0.21570375  0.64573956  0.12000632  1  0  -0.699444  0  2.070991  0  0  -0.635881  0  2.363022  0  0  -0.661915  0  2.345991  0  0  -0.347371  -0.617216  0  2.374149  0
O  O44  1  0.87110826  0.51594529  0.59879204  1  0  -0.686232  0  2.031475  0  0  -0.625514  0  2.311492  0  0  -0.650107  0  2.295831  0  0  -0.346318  -0.607858  0  2.321548  0
O  O45  1  0.37107528  0.48408383  0.90119829  1  0  -0.685954  0  2.031  0  0  -0.625146  0  2.310897  0  0  -0.649746  0  2.295253  0  0  -0.34617  -0.607489  0  2.320945  0
O  O46  1  0.12892634  0.48408775  0.40120267  1  0  -0.685794  0  2.03107  0  0  -0.624978  0  2.310936  0  0  -0.649597  0  2.295347  0  0  -0.346021  -0.607321  0  2.320979  0
O  O47  1  0.62890020  0.51593222  0.09879854  1  0  -0.686083  0  2.03112  0  0  -0.625372  0  2.311139  0  0  -0.649957  0  2.295459  0  0  -0.346274  -0.607716  0  2.321194  0
O  O48  1  0.95700549  0.81488916  0.54221413  1  0  -0.682569  0  2.015075  0  0  -0.632609  0  2.292745  0  0  -0.653517  0  2.274052  0  0  -0.341036  -0.617728  0  2.305131  0
O  O49  1  0.45697970  0.18508756  0.95779623  1  0  -0.682198  0  2.015355  0  0  -0.632214  0  2.293013  0  0  -0.653101  0  2.274251  0  0  -0.340757  -0.617325  0  2.305387  0
O  O50  1  0.04301064  0.18507454  0.45779551  1  0  -0.682149  0  2.015094  0  0  -0.632145  0  2.292672  0  0  -0.653052  0  2.273979  0  0  -0.340771  -0.617254  0  2.305039  0
O  O51  1  0.54299763  0.81490228  0.04220985  1  0  -0.682379  0  2.01534  0  0  -0.63235  0  2.292876  0  0  -0.65327  0  2.274196  0  0  -0.340886  -0.617466  0  2.305255  0
