# generated using pymatgen
data_ZnH21C17SN3O7
_symmetry_space_group_name_H-M   'P 1'
_cell_length_a   9.30560704
_cell_length_b   9.79093791
_cell_length_c   11.45376452
_cell_angle_alpha   89.99995992
_cell_angle_beta   94.05779655
_cell_angle_gamma   89.99982995
_symmetry_Int_Tables_number   1
_chemical_formula_structural   ZnH21C17SN3O7
_chemical_formula_sum   'Zn2 H42 C34 S2 N6 O14'
_cell_volume   1040.94357564
_cell_formula_units_Z   2
loop_
 _symmetry_equiv_pos_site_id
 _symmetry_equiv_pos_as_xyz
  1  'x, y, z'
loop_
 _atom_site_type_symbol
 _atom_site_label
 _atom_site_symmetry_multiplicity
 _atom_site_fract_x
 _atom_site_fract_y
 _atom_site_fract_z
 _atom_site_occupancy
 _atom_site_hle17_bader_spin_density
 _atom_site_hle17_ddec_charge
 _atom_site_hle17_ddec_spin_density
 _atom_site_hle17_ddec_sum_bond_order
 _atom_site_hle17_magmom
 _atom_site_hse06_10hf_bader_spin_density
 _atom_site_hse06_10hf_ddec_charge
 _atom_site_hse06_10hf_ddec_spin_density
 _atom_site_hse06_10hf_ddec_sum_bond_order
 _atom_site_hse06_10hf_magmom
 _atom_site_hse06_bader_spin_density
 _atom_site_hse06_ddec_charge
 _atom_site_hse06_ddec_spin_density
 _atom_site_hse06_ddec_sum_bond_order
 _atom_site_hse06_magmom
 _atom_site_pbe_bader_spin_density
 _atom_site_pbe_cm5_charge
 _atom_site_pbe_ddec_charge
 _atom_site_pbe_ddec_spin_density
 _atom_site_pbe_ddec_sum_bond_order
 _atom_site_pbe_magmom
Zn  Zn0  1  0.19532706  0.16886074  0.57564336  1  0  1.091031  0  1.757364  0  0  0.89956  0  2.231698  0  0  0.948408  0  2.172118  0  0  0.692138  0.864936  0  2.273346  0
Zn  Zn1  1  0.80467334  0.66885698  0.42435641  1  0  1.090992  0  1.757372  0  0  0.89951  0  2.231718  0  0  0.948336  0  2.17212  0  0  0.692103  0.864884  0  2.273348  0
H  H2  1  0.76110137  0.73772776  0.70556871  1  0  0.10737  0  0.949837  0  0  0.116067  0  1.013309  0  0  0.119975  0  1.010048  0  0  0.104123  0.113289  0  1.015682  0
H  H3  1  0.23889456  0.23772651  0.29442636  1  0  0.10735  0  0.94991  0  0  0.116051  0  1.013364  0  0  0.119959  0  1.010105  0  0  0.104128  0.113274  0  1.015734  0
H  H4  1  0.83280317  0.97697030  0.75035658  1  0  0.083278  0  0.973408  0  0  0.094098  0  1.037651  0  0  0.09627  0  1.037703  0  0  0.096828  0.0927  0  1.037437  0
H  H5  1  0.16719525  0.47697133  0.24963764  1  0  0.083325  0  0.973374  0  0  0.094134  0  1.037623  0  0  0.096308  0  1.037674  0  0  0.096844  0.092738  0  1.037412  0
H  H6  1  0.44871914  0.03650826  0.93195595  1  0  0.094404  0  0.964692  0  0  0.103601  0  1.028441  0  0  0.105766  0  1.029471  0  0  0.098262  0.102331  0  1.027532  0
H  H7  1  0.55128799  0.53650449  0.06805483  1  0  0.094323  0  0.964789  0  0  0.103464  0  1.028587  0  0  0.105629  0  1.029619  0  0  0.098201  0.102191  0  1.027679  0
H  H8  1  0.37476083  0.79676548  0.88718542  1  0  0.103132  0  0.959083  0  0  0.111306  0  1.023163  0  0  0.114668  0  1.021286  0  0  0.104795  0.109085  0  1.024382  0
H  H9  1  0.62524012  0.29676431  0.11282305  1  0  0.103149  0  0.95907  0  0  0.111322  0  1.023151  0  0  0.114686  0  1.021269  0  0  0.104781  0.109099  0  1.02437  0
H  H10  1  0.60246108  0.23542670  0.88337641  1  0  0.119718  0  0.937679  0  0  0.141605  0  0.996063  0  0  0.143171  0  0.995959  0  0  0.094937  0.140659  0  0.995869  0
H  H11  1  0.39754562  0.73542332  0.11662025  1  0  0.119711  0  0.937804  0  0  0.14161  0  0.996145  0  0  0.143177  0  0.996037  0  0  0.094921  0.140669  0  0.995947  0
H  H12  1  0.76217584  0.20908786  0.81033730  1  0  0.110206  0  0.940828  0  0  0.134169  0  0.996488  0  0  0.135601  0  0.996457  0  0  0.091344  0.132992  0  0.997123  0
H  H13  1  0.23782662  0.70908998  0.18966085  1  0  0.110172  0  0.940745  0  0  0.134111  0  0.996429  0  0  0.13554  0  0.996405  0  0  0.091332  0.132938  0  0.997057  0
H  H14  1  0.75762541  0.16812340  0.96085731  1  0  0.112321  0  0.949511  0  0  0.130042  0  1.017479  0  0  0.132197  0  1.016585  0  0  0.089233  0.129054  0  1.01749  0
H  H15  1  0.24237936  0.66812052  0.03913926  1  0  0.112279  0  0.949465  0  0  0.129993  0  1.017458  0  0  0.132149  0  1.016564  0  0  0.089215  0.129007  0  1.017471  0
H  H16  1  0.25642797  0.65446988  0.64421553  1  0  0.069821  0  0.927878  0  0  0.079213  0  0.986913  0  0  0.081122  0  0.985962  0  0  0.115244  0.078298  0  0.987156  0
H  H17  1  0.74357030  0.15446818  0.35578586  1  0  0.0698  0  0.927839  0  0  0.079216  0  0.986908  0  0  0.081128  0  0.985959  0  0  0.115213  0.078289  0  0.987155  0
H  H18  1  0.36329592  0.58454087  0.40499306  1  0  0.084398  0  0.933082  0  0  0.103546  0  0.989774  0  0  0.104379  0  0.991046  0  0  0.097576  0.103223  0  0.988602  0
H  H19  1  0.63670258  0.08453928  0.59500838  1  0  0.084361  0  0.933095  0  0  0.103512  0  0.989793  0  0  0.104347  0  0.991061  0  0  0.097567  0.103196  0  0.988621  0
H  H20  1  0.18726134  0.64203101  0.42615344  1  0  0.06878  0  0.944477  0  0  0.086801  0  1.006919  0  0  0.087638  0  1.006841  0  0  0.095019  0.086056  0  1.007209  0
H  H21  1  0.81273696  0.14202383  0.57384883  1  0  0.068765  0  0.944452  0  0  0.086778  0  1.006928  0  0  0.087615  0  1.006847  0  0  0.094996  0.086039  0  1.00722  0
H  H22  1  0.46724706  0.80294673  0.48941556  1  0  0.127118  0  0.943871  0  0  0.138259  0  1.006876  0  0  0.141649  0  1.005055  0  0  0.10314  0.135764  0  1.008229  0
H  H23  1  0.53275716  0.30294653  0.51058876  1  0  0.127167  0  0.943876  0  0  0.138262  0  1.006899  0  0  0.141653  0  1.005078  0  0  0.103126  0.135764  0  1.008259  0
H  H24  1  0.35322035  0.82915179  0.36487464  1  0  0.12395  0  0.938045  0  0  0.138685  0  0.996531  0  0  0.141312  0  0.995501  0  0  0.106786  0.136251  0  0.998067  0
H  H25  1  0.64678163  0.32914810  0.63512951  1  0  0.123915  0  0.938105  0  0  0.138666  0  0.996536  0  0  0.141291  0  0.995512  0  0  0.106751  0.136234  0  0.998071  0
H  H26  1  0.26325904  0.33831317  0.78477889  1  0  0.09158  0  0.980431  0  0  0.096217  0  1.05004  0  0  0.099179  0  1.047508  0  0  0.112797  0.093969  0  1.051987  0
H  H27  1  0.73674080  0.83831488  0.21522250  1  0  0.091587  0  0.98039  0  0  0.096226  0  1.049996  0  0  0.099189  0  1.047464  0  0  0.112795  0.093978  0  1.051937  0
H  H28  1  0.26296310  0.31233743  0.00032789  1  0  0.099743  0  0.987485  0  0  0.107415  0  1.051897  0  0  0.108779  0  1.054106  0  0  0.104296  0.106397  0  1.050509  0
H  H29  1  0.73703573  0.81234464  0.99967432  1  0  0.099736  0  0.987469  0  0  0.107408  0  1.051883  0  0  0.108776  0  1.054086  0  0  0.104286  0.106388  0  1.050495  0
H  H30  1  0.16919080  0.09587103  0.08454546  1  0  0.117648  0  0.949577  0  0  0.128723  0  1.00658  0  0  0.13237  0  1.003798  0  0  0.109724  0.125933  0  1.008869  0
H  H31  1  0.83080449  0.59587804  0.91545140  1  0  0.117723  0  0.949419  0  0  0.128744  0  1.00648  0  0  0.13241  0  1.00367  0  0  0.109733  0.125935  0  1.008795  0
H  H32  1  0.08607478  0.95246809  0.72825985  1  0  0.102255  0  0.969109  0  0  0.109665  0  1.032083  0  0  0.113641  0  1.028456  0  0  0.117322  0.106598  0  1.035288  0
H  H33  1  0.91392050  0.45246598  0.27173331  1  0  0.102308  0  0.969018  0  0  0.10973  0  1.031988  0  0  0.113703  0  1.028362  0  0  0.117348  0.106667  0  1.03519  0
H  H34  1  0.00063306  0.82731875  0.89864777  1  0  0.310466  0  0.902342  0  0  0.303023  0  0.956431  0  0  0.307335  0  0.954397  0  0  0.307761  0.299786  0  0.95813  0
H  H35  1  0.99936373  0.32732163  0.10134294  1  0  0.310529  0  0.902142  0  0  0.30309  0  0.956239  0  0  0.3074  0  0.954209  0  0  0.307784  0.299856  0  0.957935  0
H  H36  1  0.04104162  0.87931099  0.03862875  1  0  0.319645  0  0.885722  0  0  0.31613  0  0.929119  0  0  0.320607  0  0.927252  0  0  0.314909  0.312651  0  0.931029  0
H  H37  1  0.95895496  0.37931636  0.96136541  1  0  0.319634  0  0.885814  0  0  0.316122  0  0.929199  0  0  0.320598  0  0.92733  0  0  0.314887  0.312643  0  0.931111  0
H  H38  1  0.53989801  0.55259571  0.56973286  1  0  0.325769  0  0.934624  0  0  0.303421  0  1.002193  0  0  0.312526  0  0.995089  0  0  0.302104  0.297229  0  1.006912  0
H  H39  1  0.46010056  0.05259679  0.43027035  1  0  0.325859  0  0.934431  0  0  0.303374  0  1.002209  0  0  0.312475  0  0.99511  0  0  0.302075  0.297188  0  1.006918  0
H  H40  1  0.96803502  0.24974266  0.45012670  1  0  0.433273  0  0.870837  0  0  0.398589  0  0.940462  0  0  0.410158  0  0.92373  0  0  0.289689  0.390442  0  0.952172  0
H  H41  1  0.03196407  0.74974711  0.54987119  1  0  0.433308  0  0.870777  0  0  0.398583  0  0.940461  0  0  0.410151  0  0.92373  0  0  0.289695  0.390435  0  0.952173  0
H  H42  1  0.98812402  0.08600858  0.42691303  1  0  0.428255  0  0.880242  0  0  0.394972  0  0.94673  0  0  0.407159  0  0.929338  0  0  0.28468  0.386254  0  0.959149  0
H  H43  1  0.01187881  0.58601205  0.57308608  1  0  0.428241  0  0.880269  0  0  0.39495  0  0.946773  0  0  0.407137  0  0.929381  0  0  0.284679  0.386228  0  0.959199  0
C  C44  1  0.69278507  0.80286664  0.75569496  1  0  -0.068492  0  3.763111  0  0  -0.093507  0  4.016564  0  0  -0.092021  0  4.035239  0  0  -0.089716  -0.094397  0  4.004013  0
C  C45  1  0.30721280  0.30286524  0.24430107  1  0  -0.068394  0  3.763004  0  0  -0.093433  0  4.016404  0  0  -0.091933  0  4.035077  0  0  -0.089659  -0.094319  0  4.003844  0
C  C46  1  0.73283833  0.93712848  0.78146382  1  0  -0.141709  0  3.751243  0  0  -0.158844  0  3.999977  0  0  -0.163004  0  4.020751  0  0  -0.095683  -0.156027  0  3.985652  0
C  C47  1  0.26716235  0.43712926  0.21853232  1  0  -0.141846  0  3.751183  0  0  -0.158966  0  3.999947  0  0  -0.163124  0  4.020718  0  0  -0.095773  -0.156151  0  3.98563  0
C  C48  1  0.64675543  0.02352050  0.84550594  1  0  0.156339  0  3.735496  0  0  0.181234  0  3.96985  0  0  0.184663  0  3.991947  0  0  -0.001728  0.178871  0  3.954628  0
C  C49  1  0.35324978  0.52351823  0.15449163  1  0  0.156499  0  3.735357  0  0  0.181339  0  3.969741  0  0  0.184767  0  3.991837  0  0  -0.001662  0.17897  0  3.954531  0
C  C50  1  0.51685724  0.97154731  0.88181399  1  0  -0.111271  0  3.701951  0  0  -0.129107  0  3.945422  0  0  -0.133365  0  3.966271  0  0  -0.088468  -0.126178  0  3.931136  0
C  C51  1  0.48315184  0.47154245  0.11819055  1  0  -0.111163  0  3.701953  0  0  -0.128909  0  3.945414  0  0  -0.133165  0  3.966262  0  0  -0.088383  -0.12597  0  3.931121  0
C  C52  1  0.47469375  0.83724462  0.85702951  1  0  -0.064227  0  3.759317  0  0  -0.08944  0  4.010012  0  0  -0.087818  0  4.029564  0  0  -0.086741  -0.090625  0  3.997088  0
C  C53  1  0.52531035  0.33724268  0.14297565  1  0  -0.064342  0  3.759607  0  0  -0.089596  0  4.010243  0  0  -0.087966  0  4.029798  0  0  -0.086835  -0.09078  0  3.997306  0
C  C54  1  0.56352453  0.75311979  0.79495697  1  0  -0.137078  0  3.77567  0  0  -0.113411  0  4.0297  0  0  -0.121532  0  4.05322  0  0  -0.027674  -0.108349  0  4.014255  0
C  C55  1  0.43647667  0.25311908  0.20504368  1  0  -0.137161  0  3.775812  0  0  -0.113387  0  4.029698  0  0  -0.121538  0  4.053255  0  0  -0.027663  -0.108313  0  4.014232  0
C  C56  1  0.69425410  0.16643625  0.87596277  1  0  -0.336829  0  3.717808  0  0  -0.418998  0  3.955444  0  0  -0.421712  0  3.96393  0  0  -0.240032  -0.417262  0  3.949298  0
C  C57  1  0.30575173  0.66643414  0.12403475  1  0  -0.336789  0  3.717793  0  0  -0.418932  0  3.955479  0  0  -0.421651  0  3.963966  0  0  -0.239976  -0.417202  0  3.949331  0
C  C58  1  0.31145773  0.58693799  0.58510261  1  0  0.054605  0  3.657284  0  0  0.036005  0  3.897531  0  0  0.03593  0  3.910019  0  0  0.00937  0.035957  0  3.888359  0
C  C59  1  0.68854289  0.08693639  0.41489985  1  0  0.054562  0  3.657328  0  0  0.035818  0  3.897762  0  0  0.03572  0  3.910292  0  0  0.009395  0.035813  0  3.888584  0
C  C60  1  0.23154021  0.44972857  0.58344740  1  0  0.634332  0  3.850643  0  0  0.581425  0  4.157182  0  0  0.613742  0  4.151672  0  0  0.209126  0.559652  0  4.160046  0
C  C61  1  0.76845821  0.94972594  0.41655295  1  0  0.63432  0  3.850883  0  0  0.581469  0  4.157423  0  0  0.613789  0  4.151911  0  0  0.209099  0.559667  0  4.160316  0
C  C62  1  0.30005508  0.64851336  0.46138637  1  0  -0.112427  0  3.675189  0  0  -0.160326  0  3.931178  0  0  -0.160566  0  3.944438  0  0  -0.159808  -0.159983  0  3.921446  0
C  C63  1  0.69994535  0.14850959  0.53861603  1  0  -0.112298  0  3.675189  0  0  -0.16021  0  3.931243  0  0  -0.160439  0  3.944496  0  0  -0.159791  -0.159897  0  3.921528  0
C  C64  1  0.35372443  0.79486597  0.45652191  1  0  -0.286109  0  3.677499  0  0  -0.321738  0  3.927469  0  0  -0.328598  0  3.935288  0  0  -0.172162  -0.316819  0  3.921758  0
C  C65  1  0.64627768  0.29486235  0.54348140  1  0  -0.286171  0  3.677569  0  0  -0.321713  0  3.927409  0  0  -0.328576  0  3.93523  0  0  -0.172093  -0.316791  0  3.921707  0
C  C66  1  0.26880553  0.90009806  0.51920438  1  0  0.722483  0  3.786925  0  0  0.670406  0  4.085795  0  0  0.704015  0  4.079506  0  0  0.221484  0.647839  0  4.08878  0
C  C67  1  0.73119732  0.40009630  0.48079892  1  0  0.722531  0  3.787005  0  0  0.670466  0  4.085817  0  0  0.704076  0  4.079526  0  0  0.221515  0.647897  0  4.088804  0
C  C68  1  0.22007942  0.24672036  0.82284884  1  0  0.085141  0  3.715149  0  0  0.046782  0  3.972381  0  0  0.05271  0  3.989014  0  0  0.024321  0.043093  0  3.961246  0
C  C69  1  0.77991965  0.74672096  0.17715167  1  0  0.085139  0  3.715068  0  0  0.046797  0  3.972277  0  0  0.052723  0  3.988913  0  0  0.024354  0.043112  0  3.961132  0
C  C70  1  0.21928489  0.23094450  0.94359377  1  0  -0.104765  0  3.793355  0  0  -0.116215  0  4.049262  0  0  -0.11941  0  4.069956  0  0  -0.08781  -0.11478  0  4.035507  0
C  C71  1  0.78071425  0.73094825  0.05640501  1  0  -0.104825  0  3.793411  0  0  -0.116292  0  4.049298  0  0  -0.119489  0  4.069999  0  0  -0.087843  -0.114849  0  4.035533  0
C  C72  1  0.16562696  0.11176905  0.99009700  1  0  -0.141461  0  3.682687  0  0  -0.164401  0  3.930522  0  0  -0.164921  0  3.946656  0  0  -0.082671  -0.163453  0  3.919356  0
C  C73  1  0.83437149  0.61177269  0.00990094  1  0  -0.141414  0  3.682688  0  0  -0.164264  0  3.930463  0  0  -0.1648  0  3.946599  0  0  -0.082599  -0.1633  0  3.919309  0
C  C74  1  0.11315174  0.00766983  0.91366610  1  0  0.278419  0  3.860435  0  0  0.278075  0  4.110242  0  0  0.284122  0  4.132851  0  0  0.105939  0.273646  0  4.094431  0
C  C75  1  0.88684493  0.50767326  0.08632916  1  0  0.278259  0  3.860609  0  0  0.277915  0  4.110432  0  0  0.283956  0  4.133045  0  0  0.10585  0.273487  0  4.094629  0
C  C76  1  0.11846526  0.03072385  0.79269855  1  0  -0.010706  0  3.671286  0  0  -0.045968  0  3.924511  0  0  -0.043834  0  3.942456  0  0  0.030187  -0.047558  0  3.912987  0
C  C77  1  0.88153027  0.53072311  0.20729574  1  0  -0.010722  0  3.671195  0  0  -0.046043  0  3.924499  0  0  -0.043899  0  3.942432  0  0  0.030163  -0.047641  0  3.912987  0
S  S78  1  0.51406369  0.58082790  0.76440737  1  0  1.220968  0  5.465848  0  0  1.122281  0  5.985512  0  0  1.167134  0  5.968552  0  0  0.558551  1.091342  0  5.996006  0
S  S79  1  0.48592833  0.08082498  0.23559538  1  0  1.220887  0  5.466004  0  0  1.122181  0  5.985598  0  0  1.167046  0  5.968632  0  0  0.558509  1.091232  0  5.996102  0
N  N80  1  0.17017904  0.14694146  0.74951946  1  0  -0.330644  0  3.400806  0  0  -0.24307  0  3.685902  0  0  -0.26083  0  3.701304  0  0  -0.332586  -0.231078  0  3.675613  0
N  N81  1  0.82982039  0.64693981  0.25047765  1  0  -0.330567  0  3.400754  0  0  -0.242971  0  3.685863  0  0  -0.260727  0  3.701248  0  0  -0.332547  -0.230981  0  3.675578  0
N  N82  1  0.06553004  0.88471252  0.95393942  1  0  -0.65017  0  3.131339  0  0  -0.619575  0  3.345188  0  0  -0.639101  0  3.350728  0  0  -0.583546  -0.605468  0  3.341046  0
N  N83  1  0.93446547  0.38471665  0.04605292  1  0  -0.650227  0  3.131289  0  0  -0.619634  0  3.345139  0  0  -0.639159  0  3.350681  0  0  -0.583558  -0.605525  0  3.340997  0
N  N84  1  0.46165745  0.57550882  0.62732533  1  0  -0.578656  0  3.249571  0  0  -0.521688  0  3.523135  0  0  -0.541542  0  3.525044  0  0  -0.461497  -0.507441  0  3.520794  0
N  N85  1  0.53834104  0.07550871  0.37267786  1  0  -0.578692  0  3.249443  0  0  -0.521576  0  3.523137  0  0  -0.541423  0  3.52505  0  0  -0.46147  -0.507344  0  3.520798  0
O  O86  1  0.64561476  0.50116016  0.77974106  1  0  -0.610453  0  1.930178  0  0  -0.563519  0  2.168106  0  0  -0.5836  0  2.156616  0  0  -0.320017  -0.549238  0  2.175851  0
O  O87  1  0.35438504  0.00116069  0.22026314  1  0  -0.610417  0  1.930379  0  0  -0.563489  0  2.168299  0  0  -0.583571  0  2.156801  0  0  -0.319996  -0.549207  0  2.176051  0
O  O88  1  0.39183761  0.54956546  0.83162509  1  0  -0.603973  0  1.920119  0  0  -0.554403  0  2.156793  0  0  -0.57418  0  2.145572  0  0  -0.317461  -0.540698  0  2.164204  0
O  O89  1  0.60816311  0.04956021  0.16837915  1  0  -0.603908  0  1.919997  0  0  -0.554362  0  2.156698  0  0  -0.574141  0  2.145474  0  0  -0.317434  -0.540651  0  2.164107  0
O  O90  1  0.30617530  0.34162953  0.56805954  1  0  -0.626994  0  2.046356  0  0  -0.549838  0  2.312998  0  0  -0.578775  0  2.299559  0  0  -0.319922  -0.530097  0  2.321925  0
O  O91  1  0.69382454  0.84162812  0.43194097  1  0  -0.626921  0  2.046477  0  0  -0.5498  0  2.313148  0  0  -0.578729  0  2.299696  0  0  -0.319908  -0.530052  0  2.322078  0
O  O92  1  0.09804151  0.44896683  0.59593165  1  0  -0.617972  0  1.976675  0  0  -0.565184  0  2.195985  0  0  -0.589707  0  2.186333  0  0  -0.317866  -0.547976  0  2.202196  0
O  O93  1  0.90195583  0.94896383  0.40406863  1  0  -0.617985  0  1.976709  0  0  -0.565198  0  2.195992  0  0  -0.589715  0  2.186336  0  0  -0.317841  -0.547981  0  2.20221  0
O  O94  1  0.32403804  0.02240577  0.52218069  1  0  -0.659613  0  2.045809  0  0  -0.575235  0  2.306594  0  0  -0.605915  0  2.292416  0  0  -0.324665  -0.554582  0  2.316206  0
O  O95  1  0.67596600  0.52240335  0.47782378  1  0  -0.659646  0  2.045916  0  0  -0.575321  0  2.306675  0  0  -0.606004  0  2.292497  0  0  -0.324682  -0.554659  0  2.31628  0
O  O96  1  0.15268802  0.87370033  0.56405918  1  0  -0.628388  0  2.001044  0  0  -0.566596  0  2.224239  0  0  -0.592057  0  2.214353  0  0  -0.304064  -0.548581  0  2.229744  0
O  O97  1  0.84731279  0.37369725  0.43594224  1  0  -0.628381  0  2.001098  0  0  -0.566603  0  2.224256  0  0  -0.59206  0  2.214365  0  0  -0.304068  -0.54859  0  2.229765  0
O  O98  1  0.04182712  0.17510760  0.44654757  1  0  -0.854535  0  1.919953  0  0  -0.780222  0  2.147819  0  0  -0.803709  0  2.106359  0  0  -0.577576  -0.763686  0  2.176755  0
O  O99  1  0.95817544  0.67511148  0.55345060  1  0  -0.854536  0  1.919885  0  0  -0.780175  0  2.147796  0  0  -0.803653  0  2.10633  0  0  -0.577558  -0.763635  0  2.176734  0
