# generated using pymatgen
data_ZnH12C14NO5
_symmetry_space_group_name_H-M   'P 1'
_cell_length_a   7.50537761
_cell_length_b   11.01277076
_cell_length_c   16.55494836
_cell_angle_alpha   90.00002189
_cell_angle_beta   89.99977025
_cell_angle_gamma   102.47485067
_symmetry_Int_Tables_number   1
_chemical_formula_structural   ZnH12C14NO5
_chemical_formula_sum   'Zn4 H48 C56 N4 O20'
_cell_volume   1336.04383483
_cell_formula_units_Z   4
loop_
 _symmetry_equiv_pos_site_id
 _symmetry_equiv_pos_as_xyz
  1  'x, y, z'
loop_
 _atom_site_type_symbol
 _atom_site_label
 _atom_site_symmetry_multiplicity
 _atom_site_fract_x
 _atom_site_fract_y
 _atom_site_fract_z
 _atom_site_occupancy
 _atom_site_hle17_bader_spin_density
 _atom_site_hle17_ddec_charge
 _atom_site_hle17_ddec_spin_density
 _atom_site_hle17_ddec_sum_bond_order
 _atom_site_hle17_magmom
 _atom_site_hse06_10hf_bader_spin_density
 _atom_site_hse06_10hf_ddec_charge
 _atom_site_hse06_10hf_ddec_spin_density
 _atom_site_hse06_10hf_ddec_sum_bond_order
 _atom_site_hse06_10hf_magmom
 _atom_site_hse06_bader_spin_density
 _atom_site_hse06_ddec_charge
 _atom_site_hse06_ddec_spin_density
 _atom_site_hse06_ddec_sum_bond_order
 _atom_site_hse06_magmom
 _atom_site_pbe_bader_spin_density
 _atom_site_pbe_cm5_charge
 _atom_site_pbe_ddec_charge
 _atom_site_pbe_ddec_spin_density
 _atom_site_pbe_ddec_sum_bond_order
 _atom_site_pbe_magmom
Zn  Zn0  1  0.40846386  0.97870658  0.92249675  1  0  1.109394  0  1.805623  0  0  0.950557  0  2.26663  0  0  1.003923  0  2.198397  0  0  0.678086  0.913346  0  2.313309  0
Zn  Zn1  1  0.09153971  0.52129356  0.42249481  1  0  1.109475  0  1.805456  0  0  0.950607  0  2.266459  0  0  1.003971  0  2.198227  0  0  0.678131  0.913396  0  2.313136  0
Zn  Zn2  1  0.59153936  0.02128508  0.07750498  1  0  1.109458  0  1.80552  0  0  0.950642  0  2.266516  0  0  1.004  0  2.198293  0  0  0.67817  0.913433  0  2.313193  0
Zn  Zn3  1  0.90846004  0.47871208  0.57750148  1  0  1.109345  0  1.805673  0  0  0.950541  0  2.266664  0  0  1.003901  0  2.19844  0  0  0.678138  0.913332  0  2.313341  0
H  H4  1  0.15513196  0.86209586  0.23056971  1  0  0.093115  0  0.959096  0  0  0.102056  0  1.02472  0  0  0.105549  0  1.022033  0  0  0.099421  0.099532  0  1.026719  0
H  H5  1  0.34485929  0.63790635  0.73056804  1  0  0.093192  0  0.959096  0  0  0.102158  0  1.024659  0  0  0.10565  0  1.021975  0  0  0.099486  0.099632  0  1.02666  0
H  H6  1  0.84486658  0.13790606  0.76943444  1  0  0.093174  0  0.958973  0  0  0.102052  0  1.024689  0  0  0.105545  0  1.022001  0  0  0.09942  0.099526  0  1.02669  0
H  H7  1  0.65513260  0.36209559  0.26942886  1  0  0.093141  0  0.959133  0  0  0.102089  0  1.024742  0  0  0.105581  0  1.022056  0  0  0.099417  0.099564  0  1.026742  0
H  H8  1  0.91818179  0.69722578  0.29614333  1  0  0.10814  0  0.968374  0  0  0.114992  0  1.032276  0  0  0.118742  0  1.030242  0  0  0.10027  0.112286  0  1.033827  0
H  H9  1  0.58181281  0.80277402  0.79614280  1  0  0.108163  0  0.968333  0  0  0.115016  0  1.032237  0  0  0.118765  0  1.030204  0  0  0.100286  0.11231  0  1.033788  0
H  H10  1  0.08181972  0.30277706  0.70386081  1  0  0.10813  0  0.968462  0  0  0.114967  0  1.032368  0  0  0.118717  0  1.030336  0  0  0.100286  0.11226  0  1.03392  0
H  H11  1  0.41818097  0.19722140  0.20385772  1  0  0.108108  0  0.968401  0  0  0.114959  0  1.032304  0  0  0.118707  0  1.030273  0  0  0.100278  0.112253  0  1.033856  0
H  H12  1  0.67009705  0.57049374  0.21335863  1  0  0.094413  0  0.948228  0  0  0.106431  0  1.008357  0  0  0.109444  0  1.006901  0  0  0.101745  0.104232  0  1.009511  0
H  H13  1  0.82990332  0.92950518  0.71336009  1  0  0.094369  0  0.948216  0  0  0.106382  0  1.008367  0  0  0.109394  0  1.006913  0  0  0.101713  0.104183  0  1.009521  0
H  H14  1  0.32990931  0.42950350  0.78664491  1  0  0.094403  0  0.948156  0  0  0.106415  0  1.008305  0  0  0.109429  0  1.006846  0  0  0.101724  0.104216  0  1.00946  0
H  H15  1  0.17009566  0.07049394  0.28664345  1  0  0.094397  0  0.948258  0  0  0.106434  0  1.008376  0  0  0.109447  0  1.00692  0  0  0.101727  0.104234  0  1.00953  0
H  H16  1  0.89583619  0.77438091  0.00105999  1  0  0.097971  0  0.966554  0  0  0.105537  0  1.035724  0  0  0.108576  0  1.033854  0  0  0.10252  0.10331  0  1.037197  0
H  H17  1  0.60416668  0.72562003  0.50105879  1  0  0.098018  0  0.966507  0  0  0.105568  0  1.035685  0  0  0.108609  0  1.033811  0  0  0.102537  0.103342  0  1.037158  0
H  H18  1  0.10416708  0.22561913  0.99894416  1  0  0.097926  0  0.966561  0  0  0.105533  0  1.035694  0  0  0.108567  0  1.033837  0  0  0.102522  0.103305  0  1.037169  0
H  H19  1  0.39583573  0.27438560  0.49894052  1  0  0.098037  0  0.966513  0  0  0.105595  0  1.035661  0  0  0.108634  0  1.033796  0  0  0.102528  0.103367  0  1.037136  0
H  H20  1  0.69541683  0.41803112  0.09606616  1  0  0.104334  0  0.959435  0  0  0.113626  0  1.023802  0  0  0.11718  0  1.02164  0  0  0.1057  0.111053  0  1.025462  0
H  H21  1  0.80458567  0.08196788  0.59606516  1  0  0.104345  0  0.959379  0  0  0.113617  0  1.023768  0  0  0.117171  0  1.021606  0  0  0.105686  0.111021  0  1.025454  0
H  H22  1  0.30459867  0.58196144  0.90393376  1  0  0.104293  0  0.95962  0  0  0.113558  0  1.023976  0  0  0.117155  0  1.021765  0  0  0.105738  0.110964  0  1.025656  0
H  H23  1  0.19540536  0.91803965  0.40393235  1  0  0.104337  0  0.959569  0  0  0.113567  0  1.023966  0  0  0.117141  0  1.021783  0  0  0.105744  0.110972  0  1.025644  0
H  H24  1  0.47725190  0.17749817  0.80888281  1  0  0.052728  0  0.942969  0  0  0.058661  0  1.015494  0  0  0.060448  0  1.011085  0  0  0.127121  0.057104  0  1.01889  0
H  H25  1  0.02275119  0.32248995  0.30888108  1  0  0.052735  0  0.942979  0  0  0.05866  0  1.015486  0  0  0.060448  0  1.011076  0  0  0.127105  0.057099  0  1.018891  0
H  H26  1  0.52274999  0.82249349  0.19111892  1  0  0.052732  0  0.942927  0  0  0.058665  0  1.015454  0  0  0.060453  0  1.011045  0  0  0.127105  0.0571  0  1.018866  0
H  H27  1  0.97725959  0.67750448  0.69111702  1  0  0.052718  0  0.943058  0  0  0.058663  0  1.01555  0  0  0.060452  0  1.011139  0  0  0.127127  0.057105  0  1.018952  0
H  H28  1  0.39349603  0.27636316  0.63412125  1  0  0.107427  0  0.92166  0  0  0.129044  0  0.979747  0  0  0.129493  0  0.979816  0  0  0.107013  0.128556  0  0.979921  0
H  H29  1  0.10649433  0.22363446  0.13411331  1  0  0.107439  0  0.921553  0  0  0.129024  0  0.979678  0  0  0.129476  0  0.979748  0  0  0.106988  0.128535  0  0.979854  0
H  H30  1  0.60649036  0.72363414  0.36588470  1  0  0.107445  0  0.921612  0  0  0.129044  0  0.979722  0  0  0.129495  0  0.979795  0  0  0.107  0.128554  0  0.9799  0
H  H31  1  0.89350228  0.77636560  0.86588057  1  0  0.107504  0  0.921621  0  0  0.129114  0  0.979721  0  0  0.129565  0  0.979794  0  0  0.107051  0.128625  0  0.979897  0
H  H32  1  0.59401134  0.22059024  0.61038133  1  0  0.113522  0  0.943998  0  0  0.129663  0  1.011294  0  0  0.131186  0  1.010132  0  0  0.106188  0.128479  0  1.012195  0
H  H33  1  0.90598292  0.27941249  0.11037647  1  0  0.113476  0  0.944015  0  0  0.12963  0  1.011294  0  0  0.131154  0  1.010131  0  0  0.106174  0.128446  0  1.012195  0
H  H34  1  0.40598085  0.77941263  0.38962161  1  0  0.113541  0  0.943997  0  0  0.12968  0  1.01129  0  0  0.131203  0  1.01013  0  0  0.106211  0.128497  0  1.012189  0
H  H35  1  0.09402070  0.72059686  0.88961982  1  0  0.113621  0  0.943903  0  0  0.129753  0  1.011209  0  0  0.131276  0  1.010051  0  0  0.106201  0.128569  0  1.01211  0
H  H36  1  0.57564705  0.29267976  0.70514759  1  0  0.112452  0  0.93965  0  0  0.131096  0  1.00524  0  0  0.132526  0  1.004166  0  0  0.111585  0.129907  0  1.00624  0
H  H37  1  0.92434764  0.20731451  0.20513965  1  0  0.11249  0  0.93971  0  0  0.131096  0  1.005322  0  0  0.132534  0  1.00424  0  0  0.111625  0.129907  0  1.006321  0
H  H38  1  0.42434600  0.70731752  0.29485837  1  0  0.112428  0  0.939647  0  0  0.131039  0  1.005273  0  0  0.132483  0  1.004185  0  0  0.111575  0.129849  0  1.006273  0
H  H39  1  0.07565356  0.79268740  0.79485362  1  0  0.112457  0  0.939696  0  0  0.131106  0  1.005275  0  0  0.132552  0  1.004184  0  0  0.111564  0.129916  0  1.006275  0
H  H40  1  0.43045369  0.99865784  0.59301397  1  0  0.096847  0  0.93119  0  0  0.117852  0  0.993445  0  0  0.117568  0  0.994847  0  0  0.103606  0.11791  0  0.992575  0
H  H41  1  0.06954811  0.50134445  0.09301570  1  0  0.096879  0  0.931144  0  0  0.11788  0  0.993415  0  0  0.117598  0  0.994814  0  0  0.103623  0.117939  0  0.992545  0
H  H42  1  0.56954353  0.00134409  0.40698474  1  0  0.096898  0  0.931178  0  0  0.117877  0  0.993477  0  0  0.117597  0  0.994876  0  0  0.103612  0.117935  0  0.992605  0
H  H43  1  0.93046761  0.49866114  0.90698603  1  0  0.096868  0  0.931099  0  0  0.117861  0  0.993407  0  0  0.117584  0  0.994797  0  0  0.103615  0.11792  0  0.992536  0
H  H44  1  0.21249731  0.03443862  0.61042153  1  0  0.090325  0  0.983896  0  0  0.108154  0  1.052688  0  0  0.10653  0  1.056766  0  0  0.096952  0.10913  0  1.049952  0
H  H45  1  0.28750572  0.46556456  0.11042298  1  0  0.090343  0  0.983876  0  0  0.108161  0  1.052691  0  0  0.106538  0  1.056765  0  0  0.096964  0.109138  0  1.049956  0
H  H46  1  0.78749960  0.96556237  0.38957900  1  0  0.090296  0  0.983952  0  0  0.108181  0  1.052695  0  0  0.106559  0  1.056772  0  0  0.096968  0.109157  0  1.049958  0
H  H47  1  0.71251001  0.53444102  0.88957755  1  0  0.090223  0  0.98386  0  0  0.108128  0  1.052595  0  0  0.106506  0  1.056668  0  0  0.096954  0.109104  0  1.049859  0
H  H48  1  0.29069571  0.92530937  0.67424056  1  0  0.113334  0  0.942492  0  0  0.130506  0  1.00709  0  0  0.131756  0  1.006652  0  0  0.109886  0.129442  0  1.007633  0
H  H49  1  0.20929896  0.57468542  0.17424567  1  0  0.113294  0  0.942536  0  0  0.130493  0  1.007101  0  0  0.13174  0  1.006667  0  0  0.109896  0.129432  0  1.007644  0
H  H50  1  0.70929940  0.07468605  0.32575694  1  0  0.113268  0  0.942529  0  0  0.130478  0  1.007099  0  0  0.131729  0  1.006661  0  0  0.109886  0.129414  0  1.007644  0
H  H51  1  0.79071393  0.42531551  0.82575847  1  0  0.113243  0  0.942646  0  0  0.130464  0  1.007193  0  0  0.13171  0  1.006759  0  0  0.109899  0.129403  0  1.007735  0
C  C52  1  0.19039975  0.91738127  0.07040307  1  0  0.668286  0  3.876845  0  0  0.617578  0  4.164879  0  0  0.653883  0  4.156613  0  0  0.212955  0.593016  0  4.169834  0
C  C53  1  0.30960092  0.58262103  0.57039964  1  0  0.668354  0  3.876965  0  0  0.617649  0  4.164999  0  0  0.653952  0  4.156732  0  0  0.212978  0.593088  0  4.169952  0
C  C54  1  0.80960145  0.08262064  0.92960168  1  0  0.668723  0  3.876372  0  0  0.617927  0  4.164507  0  0  0.654231  0  4.156234  0  0  0.213118  0.593364  0  4.169465  0
C  C55  1  0.69039853  0.41738368  0.42959605  1  0  0.668371  0  3.876791  0  0  0.617636  0  4.164879  0  0  0.653939  0  4.156612  0  0  0.212963  0.593074  0  4.169834  0
C  C56  1  0.03855023  0.82775633  0.11165068  1  0  -0.062085  0  3.752209  0  0  -0.035476  0  3.981295  0  0  -0.043836  0  4.004219  0  0  -0.019509  -0.030148  0  3.966034  0
C  C57  1  0.46144711  0.67224502  0.61164881  1  0  -0.061901  0  3.751912  0  0  -0.03535  0  3.981037  0  0  -0.043706  0  4.003956  0  0  -0.01947  -0.030022  0  3.965777  0
C  C58  1  0.96145395  0.17224650  0.88835346  1  0  -0.062438  0  3.752208  0  0  -0.035799  0  3.981351  0  0  -0.044159  0  4.004276  0  0  -0.019662  -0.030467  0  3.966087  0
C  C59  1  0.53854714  0.32775598  0.38834930  1  0  -0.062094  0  3.752133  0  0  -0.035497  0  3.981227  0  0  -0.043853  0  4.004148  0  0  -0.019572  -0.030169  0  3.965966  0
C  C60  1  0.04407250  0.80695236  0.19522448  1  0  -0.071384  0  3.727005  0  0  -0.097531  0  3.975266  0  0  -0.096854  0  3.994622  0  0  -0.08709  -0.097862  0  3.962319  0
C  C61  1  0.45592070  0.69305080  0.69522262  1  0  -0.071574  0  3.727018  0  0  -0.097708  0  3.975295  0  0  -0.097033  0  3.994651  0  0  -0.08716  -0.098038  0  3.962351  0
C  C62  1  0.95593197  0.19305140  0.80478027  1  0  -0.071333  0  3.727062  0  0  -0.097418  0  3.975305  0  0  -0.096739  0  3.994659  0  0  -0.087039  -0.097747  0  3.962358  0
C  C63  1  0.54407149  0.30695207  0.30477488  1  0  -0.071493  0  3.727028  0  0  -0.097635  0  3.975275  0  0  -0.096963  0  3.994638  0  0  -0.087062  -0.097964  0  3.962329  0
C  C64  1  0.91161604  0.71482690  0.23155299  1  0  -0.070856  0  3.76192  0  0  -0.083773  0  4.018982  0  0  -0.08634  0  4.039296  0  0  -0.094778  -0.08206  0  4.005148  0
C  C65  1  0.58837914  0.78517295  0.73155244  1  0  -0.070881  0  3.761899  0  0  -0.083804  0  4.018976  0  0  -0.086372  0  4.039292  0  0  -0.094796  -0.082089  0  4.005139  0
C  C66  1  0.08839019  0.28517406  0.76845056  1  0  -0.070799  0  3.762154  0  0  -0.083693  0  4.019155  0  0  -0.08626  0  4.039474  0  0  -0.094726  -0.08198  0  4.005322  0
C  C67  1  0.41161421  0.21482526  0.26844688  1  0  -0.070724  0  3.761921  0  0  -0.083633  0  4.018981  0  0  -0.086199  0  4.039297  0  0  -0.094762  -0.081919  0  4.005141  0
C  C68  1  0.77299100  0.64288984  0.18470488  1  0  -0.107591  0  3.717493  0  0  -0.131382  0  3.97015  0  0  -0.132583  0  3.989863  0  0  -0.088315  -0.130271  0  3.956633  0
C  C69  1  0.72700889  0.85711097  0.68470288  1  0  -0.107512  0  3.717302  0  0  -0.131293  0  3.969954  0  0  -0.132496  0  3.989668  0  0  -0.088262  -0.130183  0  3.956436  0
C  C70  1  0.22701639  0.35710647  0.81529806  1  0  -0.107672  0  3.717537  0  0  -0.131431  0  3.970225  0  0  -0.132636  0  3.989943  0  0  -0.088371  -0.130321  0  3.956705  0
C  C71  1  0.27298536  0.14289003  0.31529583  1  0  -0.107715  0  3.71753  0  0  -0.131523  0  3.970217  0  0  -0.132726  0  3.989933  0  0  -0.088363  -0.13041  0  3.956694  0
C  C72  1  0.76374630  0.66423389  0.10136727  1  0  0.045728  0  3.803129  0  0  0.062417  0  4.040528  0  0  0.060838  0  4.064176  0  0  -0.010792  0.063247  0  4.024643  0
C  C73  1  0.73625301  0.83576699  0.60136585  1  0  0.045784  0  3.803047  0  0  0.062451  0  4.040428  0  0  0.060877  0  4.064062  0  0  -0.010817  0.063281  0  4.024544  0
C  C74  1  0.23626212  0.33576148  0.89863386  1  0  0.045863  0  3.803048  0  0  0.062399  0  4.040519  0  0  0.060822  0  4.064156  0  0  -0.010777  0.063235  0  4.024627  0
C  C75  1  0.26374202  0.16424053  0.39863165  1  0  0.045878  0  3.802942  0  0  0.062487  0  4.040325  0  0  0.060907  0  4.06397  0  0  -0.010741  0.063321  0  4.024433  0
C  C76  1  0.89771157  0.75702980  0.06570894  1  0  -0.090005  0  3.692216  0  0  -0.123471  0  3.938479  0  0  -0.122674  0  3.957398  0  0  -0.081468  -0.123785  0  3.925765  0
C  C77  1  0.60228806  0.74297110  0.56570835  1  0  -0.090176  0  3.692208  0  0  -0.123592  0  3.938458  0  0  -0.122795  0  3.957372  0  0  -0.081507  -0.123906  0  3.925743  0
C  C78  1  0.10229570  0.24297023  0.93429400  1  0  -0.089889  0  3.692102  0  0  -0.123402  0  3.938502  0  0  -0.122604  0  3.957418  0  0  -0.081413  -0.123718  0  3.925784  0
C  C79  1  0.39771138  0.25703361  0.43429097  1  0  -0.090144  0  3.692267  0  0  -0.123568  0  3.938526  0  0  -0.122774  0  3.957445  0  0  -0.081467  -0.123881  0  3.925808  0
C  C80  1  0.62345451  0.58410975  0.05046720  1  0  0.047  0  3.75808  0  0  0.053066  0  3.993641  0  0  0.055005  0  4.015033  0  0  0.001068  0.051765  0  3.979154  0
C  C81  1  0.87655119  0.91589300  0.55046736  1  0  0.046992  0  3.758017  0  0  0.053045  0  3.993528  0  0  0.054984  0  4.014919  0  0  0.001086  0.051745  0  3.979034  0
C  C82  1  0.37656473  0.41589023  0.94953091  1  0  0.047222  0  3.758099  0  0  0.053528  0  3.993253  0  0  0.055469  0  4.014655  0  0  0.001148  0.052218  0  3.978762  0
C  C83  1  0.12344071  0.08410894  0.44953135  1  0  0.047313  0  3.757868  0  0  0.053518  0  3.993188  0  0  0.055473  0  4.014546  0  0  0.001193  0.052199  0  3.978728  0
C  C84  1  0.51034884  0.62882855  0.99467382  1  0  -0.085853  0  3.708363  0  0  -0.069574  0  3.943224  0  0  -0.074972  0  3.96111  0  0  -0.010817  -0.065725  0  3.930738  0
C  C85  1  0.98965034  0.87117013  0.49467124  1  0  -0.085895  0  3.708593  0  0  -0.069499  0  3.943233  0  0  -0.074891  0  3.961123  0  0  -0.010787  -0.065649  0  3.930741  0
C  C86  1  0.48966932  0.37116399  0.00532490  1  0  -0.086411  0  3.708551  0  0  -0.070025  0  3.943181  0  0  -0.075425  0  3.961055  0  0  -0.010924  -0.066168  0  3.930701  0
C  C87  1  0.01033804  0.12883740  0.50532143  1  0  -0.086394  0  3.708372  0  0  -0.070098  0  3.94315  0  0  -0.075496  0  3.961029  0  0  -0.010987  -0.066238  0  3.930662  0
C  C88  1  0.60854894  0.45539420  0.05438203  1  0  -0.122666  0  3.727203  0  0  -0.152657  0  3.977518  0  0  -0.153177  0  3.994369  0  0  -0.083436  -0.152169  0  3.966013  0
C  C89  1  0.89145483  0.04460761  0.55438025  1  0  -0.122674  0  3.727031  0  0  -0.152632  0  3.977379  0  0  -0.153153  0  3.994232  0  0  -0.083429  -0.152125  0  3.965884  0
C  C90  1  0.39146492  0.54459742  0.94561487  1  0  -0.122953  0  3.727546  0  0  -0.152918  0  3.97781  0  0  -0.153477  0  3.994641  0  0  -0.083573  -0.152406  0  3.966316  0
C  C91  1  0.10853946  0.95540176  0.44561483  1  0  -0.122989  0  3.727597  0  0  -0.152942  0  3.977868  0  0  -0.153485  0  3.994707  0  0  -0.083595  -0.152426  0  3.96637  0
C  C92  1  0.49937265  0.76318328  0.98854516  1  0  0.663131  0  3.885436  0  0  0.611198  0  4.176952  0  0  0.646789  0  4.168838  0  0  0.215542  0.587118  0  4.181303  0
C  C93  1  0.00063256  0.73681960  0.48854285  1  0  0.663081  0  3.885526  0  0  0.611193  0  4.176917  0  0  0.64676  0  4.168831  0  0  0.21552  0.587112  0  4.18127  0
C  C94  1  0.50063916  0.23681022  0.01145536  1  0  0.663313  0  3.885328  0  0  0.61133  0  4.176844  0  0  0.646921  0  4.168724  0  0  0.215586  0.587243  0  4.181206  0
C  C95  1  0.99936428  0.26319350  0.51145405  1  0  0.663094  0  3.885635  0  0  0.611186  0  4.177069  0  0  0.646758  0  4.168978  0  0  0.215509  0.587101  0  4.181425  0
C  C96  1  0.40697302  0.09661997  0.77363721  1  0  0.40349  0  3.776265  0  0  0.324792  0  4.063486  0  0  0.353446  0  4.065013  0  0  0.181641  0.305604  0  4.061984  0
C  C97  1  0.09302742  0.40336726  0.27363356  1  0  0.403367  0  3.775976  0  0  0.324761  0  4.063182  0  0  0.353414  0  4.064706  0  0  0.181658  0.305572  0  4.061682  0
C  C98  1  0.59302886  0.90337169  0.22636392  1  0  0.403499  0  3.776019  0  0  0.324781  0  4.063285  0  0  0.353434  0  4.064813  0  0  0.181641  0.305592  0  4.061786  0
C  C99  1  0.90698753  0.59663181  0.72636454  1  0  0.403429  0  3.776017  0  0  0.324735  0  4.063201  0  0  0.353391  0  4.064725  0  0  0.181645  0.305546  0  4.061702  0
C  C100  1  0.49922433  0.23156299  0.65891313  1  0  -0.175593  0  3.632939  0  0  -0.277873  0  3.887029  0  0  -0.274351  0  3.89649  0  0  -0.128836  -0.279973  0  3.880752  0
C  C101  1  0.00077174  0.26843645  0.15890962  1  0  -0.175657  0  3.632812  0  0  -0.277805  0  3.886979  0  0  -0.274293  0  3.896433  0  0  -0.128821  -0.279905  0  3.880703  0
C  C102  1  0.50076829  0.76843709  0.34109162  1  0  -0.175609  0  3.63282  0  0  -0.277813  0  3.88693  0  0  -0.274306  0  3.896383  0  0  -0.128851  -0.27991  0  3.880651  0
C  C103  1  0.99923479  0.73156544  0.84108667  1  0  -0.17585  0  3.632938  0  0  -0.278136  0  3.887033  0  0  -0.274635  0  3.896486  0  0  -0.128887  -0.280233  0  3.880757  0
C  C104  1  0.33211115  0.01140737  0.63964953  1  0  -0.164056  0  3.641872  0  0  -0.26438  0  3.885605  0  0  -0.260889  0  3.897893  0  0  -0.134406  -0.266411  0  3.877302  0
C  C105  1  0.16788745  0.48859115  0.13965181  1  0  -0.164101  0  3.641732  0  0  -0.264387  0  3.885553  0  0  -0.260892  0  3.897842  0  0  -0.134412  -0.266421  0  3.877252  0
C  C106  1  0.66788293  0.98858898  0.36035099  1  0  -0.164011  0  3.641894  0  0  -0.264383  0  3.885645  0  0  -0.260897  0  3.897937  0  0  -0.134413  -0.266414  0  3.877342  0
C  C107  1  0.83212574  0.51141072  0.86034871  1  0  -0.163817  0  3.641681  0  0  -0.264245  0  3.885389  0  0  -0.260752  0  3.897681  0  0  -0.134362  -0.266278  0  3.877086  0
N  N108  1  0.41684107  0.11112565  0.69397341  1  0  -0.083292  0  3.510483  0  0  0.021592  0  3.743164  0  0  0.000866  0  3.769079  0  0  -0.276366  0.035428  0  3.72517  0
N  N109  1  0.08315584  0.38886911  0.19397280  1  0  -0.082989  0  3.510263  0  0  0.021643  0  3.743196  0  0  0.000918  0  3.769116  0  0  -0.27638  0.035481  0  3.725201  0
N  N110  1  0.58315700  0.88887069  0.30602712  1  0  -0.083205  0  3.510345  0  0  0.021584  0  3.743153  0  0  0.000857  0  3.769074  0  0  -0.276366  0.03542  0  3.725161  0
N  N111  1  0.91685644  0.61112997  0.80602350  1  0  -0.083129  0  3.51038  0  0  0.021739  0  3.743093  0  0  0.001015  0  3.769019  0  0  -0.27638  0.035573  0  3.725101  0
O  O112  1  0.18479386  0.92317132  0.99331142  1  0  -0.633851  0  2.050381  0  0  -0.566417  0  2.310267  0  0  -0.59595  0  2.296411  0  0  -0.3154  -0.546434  0  2.319397  0
O  O113  1  0.31520924  0.57683342  0.49330909  1  0  -0.633948  0  2.050443  0  0  -0.566459  0  2.31027  0  0  -0.596008  0  2.296448  0  0  -0.315401  -0.546475  0  2.319401  0
O  O114  1  0.81520915  0.07683617  0.00669333  1  0  -0.634025  0  2.050346  0  0  -0.566532  0  2.310206  0  0  -0.596092  0  2.296402  0  0  -0.315439  -0.546547  0  2.319338  0
O  O115  1  0.68479166  0.42316756  0.50668781  1  0  -0.633861  0  2.050316  0  0  -0.566401  0  2.310166  0  0  -0.595949  0  2.296348  0  0  -0.315365  -0.546417  0  2.319297  0
O  O116  1  0.31795484  0.97733864  0.11479392  1  0  -0.655215  0  2.072426  0  0  -0.592513  0  2.331018  0  0  -0.621903  0  2.31869  0  0  -0.320232  -0.572256  0  2.338753  0
O  O117  1  0.18204762  0.52265803  0.61479010  1  0  -0.655234  0  2.072505  0  0  -0.592568  0  2.331117  0  0  -0.621954  0  2.318792  0  0  -0.320279  -0.572324  0  2.338879  0
O  O118  1  0.68206182  0.02264925  0.88520902  1  0  -0.655338  0  2.072143  0  0  -0.592612  0  2.330781  0  0  -0.621993  0  2.318441  0  0  -0.320282  -0.572373  0  2.338554  0
O  O119  1  0.81794238  0.47735043  0.38520498  1  0  -0.655216  0  2.072331  0  0  -0.592522  0  2.330953  0  0  -0.621905  0  2.318619  0  0  -0.320236  -0.572276  0  2.33871  0
O  O120  1  0.54876925  0.83230154  0.04948874  1  0  -0.649056  0  2.13928  0  0  -0.581417  0  2.401112  0  0  -0.611714  0  2.38999  0  0  -0.302467  -0.560113  0  2.40788  0
O  O121  1  0.95123392  0.66769751  0.54948628  1  0  -0.649072  0  2.139201  0  0  -0.581449  0  2.400995  0  0  -0.611739  0  2.389891  0  0  -0.302496  -0.560144  0  2.407765  0
O  O122  1  0.45124359  0.16769103  0.95050997  1  0  -0.649167  0  2.139276  0  0  -0.581478  0  2.401114  0  0  -0.61178  0  2.389997  0  0  -0.302461  -0.560171  0  2.407886  0
O  O123  1  0.04876021  0.33230722  0.45051243  1  0  -0.649067  0  2.139532  0  0  -0.5814  0  2.401323  0  0  -0.611691  0  2.390214  0  0  -0.302417  -0.560094  0  2.408094  0
O  O124  1  0.43439028  0.79628047  0.92309591  1  0  -0.61979  0  2.074912  0  0  -0.554332  0  2.331294  0  0  -0.58308  0  2.318826  0  0  -0.305964  -0.534059  0  2.338825  0
O  O125  1  0.06561152  0.70372247  0.42309287  1  0  -0.619732  0  2.074888  0  0  -0.55432  0  2.331254  0  0  -0.583053  0  2.318793  0  0  -0.305947  -0.534047  0  2.338785  0
O  O126  1  0.56560761  0.20371120  0.07690642  1  0  -0.61962  0  2.074863  0  0  -0.554264  0  2.331355  0  0  -0.583002  0  2.318882  0  0  -0.305958  -0.533994  0  2.338894  0
O  O127  1  0.93438544  0.29628690  0.57690765  1  0  -0.61953  0  2.074898  0  0  -0.554132  0  2.331279  0  0  -0.582867  0  2.318821  0  0  -0.305888  -0.533858  0  2.338809  0
O  O128  1  0.32398558  0.99811552  0.80823431  1  0  -0.530173  0  2.082902  0  0  -0.457955  0  2.344477  0  0  -0.485354  0  2.334177  0  0  -0.30144  -0.439122  0  2.351092  0
O  O129  1  0.17601763  0.50187634  0.30823463  1  0  -0.530281  0  2.082401  0  0  -0.457999  0  2.343857  0  0  -0.485401  0  2.333564  0  0  -0.301481  -0.439165  0  2.350472  0
O  O130  1  0.67602163  0.00187613  0.19176681  1  0  -0.530301  0  2.082664  0  0  -0.457979  0  2.344121  0  0  -0.485367  0  2.333806  0  0  -0.301445  -0.439148  0  2.350738  0
O  O131  1  0.82399224  0.49811530  0.69176347  1  0  -0.530242  0  2.082382  0  0  -0.458009  0  2.343897  0  0  -0.485414  0  2.333596  0  0  -0.301469  -0.439173  0  2.350513  0
