# generated using pymatgen
data_UH2C5(NO3)2
_symmetry_space_group_name_H-M   'P 1'
_cell_length_a   6.80672654
_cell_length_b   10.85844523
_cell_length_c   12.22148200
_cell_angle_alpha   72.52371570
_cell_angle_beta   73.84942260
_cell_angle_gamma   71.74922631
_symmetry_Int_Tables_number   1
_chemical_formula_structural   UH2C5(NO3)2
_chemical_formula_sum   'U4 H8 C20 N8 O24'
_cell_volume   801.17867833
_cell_formula_units_Z   4
loop_
 _symmetry_equiv_pos_site_id
 _symmetry_equiv_pos_as_xyz
  1  'x, y, z'
loop_
 _atom_site_type_symbol
 _atom_site_label
 _atom_site_symmetry_multiplicity
 _atom_site_fract_x
 _atom_site_fract_y
 _atom_site_fract_z
 _atom_site_occupancy
 _atom_site_hle17_bader_spin_density
 _atom_site_hle17_ddec_charge
 _atom_site_hle17_ddec_spin_density
 _atom_site_hle17_ddec_sum_bond_order
 _atom_site_hle17_magmom
 _atom_site_hse06_10hf_bader_spin_density
 _atom_site_hse06_10hf_ddec_charge
 _atom_site_hse06_10hf_ddec_spin_density
 _atom_site_hse06_10hf_ddec_sum_bond_order
 _atom_site_hse06_10hf_magmom
 _atom_site_hse06_bader_spin_density
 _atom_site_hse06_ddec_charge
 _atom_site_hse06_ddec_spin_density
 _atom_site_hse06_ddec_sum_bond_order
 _atom_site_hse06_magmom
 _atom_site_pbe_bader_spin_density
 _atom_site_pbe_cm5_charge
 _atom_site_pbe_ddec_charge
 _atom_site_pbe_ddec_spin_density
 _atom_site_pbe_ddec_sum_bond_order
 _atom_site_pbe_magmom
U  U0  1  0.77794690  0.76828103  0.49110910  1  0  2.474725  0  4.164989  0  0  2.52259  0  4.838818  0  0  2.63302  0  4.797047  0  0  2.217611  2.442277  0  4.871415  0
U  U1  1  0.03746789  0.73176320  0.00889944  1  0  2.47463  0  4.166062  0  0  2.521497  0  4.841093  0  0  2.63272  0  4.798064  0  0  2.21783  2.441461  0  4.873241  0
U  U2  1  0.22204885  0.23171903  0.50889583  1  0  2.474741  0  4.164806  0  0  2.522657  0  4.838504  0  0  2.633004  0  4.796839  0  0  2.217593  2.442398  0  4.871035  0
U  U3  1  0.96252420  0.26824284  0.99110399  1  0  2.47453  0  4.166136  0  0  2.52146  0  4.841158  0  0  2.632665  0  4.798163  0  0  2.217829  2.441381  0  4.873385  0
H  H4  1  0.28348949  0.63183432  0.56739409  1  0  0.107477  0  0.968345  0  0  0.112074  0  1.034063  0  0  0.115983  0  1.02896  0  0  0.14953  0.109105  0  1.037885  0
H  H5  1  0.48324428  0.86803620  0.93253929  1  0  0.107681  0  0.968656  0  0  0.112122  0  1.034791  0  0  0.116136  0  1.029564  0  0  0.149376  0.109051  0  1.0387  0
H  H6  1  0.71650910  0.36815870  0.43260459  1  0  0.107518  0  0.968443  0  0  0.112099  0  1.034153  0  0  0.116007  0  1.029055  0  0  0.14956  0.109131  0  1.037973  0
H  H7  1  0.51675108  0.13196981  0.06746087  1  0  0.107674  0  0.968674  0  0  0.112174  0  1.034742  0  0  0.116146  0  1.02957  0  0  0.149367  0.1091  0  1.038654  0
H  H8  1  0.19659155  0.45936186  0.75511546  1  0  0.322253  0  0.912343  0  0  0.299995  0  0.97709  0  0  0.309667  0  0.968817  0  0  0.329521  0.293126  0  0.982967  0
H  H9  1  0.41131817  0.04049603  0.74485690  1  0  0.322044  0  0.911449  0  0  0.299042  0  0.977138  0  0  0.308728  0  0.968874  0  0  0.32955  0.292157  0  0.982995  0
H  H10  1  0.80340498  0.54063621  0.24488988  1  0  0.322218  0  0.912332  0  0  0.299964  0  0.977093  0  0  0.30965  0  0.968813  0  0  0.329488  0.293096  0  0.982971  0
H  H11  1  0.58868617  0.95949895  0.25513482  1  0  0.322025  0  0.911427  0  0  0.299048  0  0.977093  0  0  0.308734  0  0.968833  0  0  0.32957  0.292165  0  0.982948  0
C  C12  1  0.38616948  0.57977717  0.62919957  1  0  0.301585  0  3.581795  0  0  0.240102  0  3.862178  0  0  0.257685  0  3.868653  0  0  0.18698  0.228439  0  3.857619  0
C  C13  1  0.59553059  0.92023974  0.87080027  1  0  0.301917  0  3.585214  0  0  0.239896  0  3.866064  0  0  0.257427  0  3.872551  0  0  0.187429  0.228313  0  3.861486  0
C  C14  1  0.61383056  0.42021787  0.37080102  1  0  0.301536  0  3.58174  0  0  0.240137  0  3.862057  0  0  0.25771  0  3.868549  0  0  0.187  0.228475  0  3.857497  0
C  C15  1  0.40446793  0.07976326  0.12919702  1  0  0.301904  0  3.585147  0  0  0.239839  0  3.866016  0  0  0.257412  0  3.872518  0  0  0.187472  0.228275  0  3.861425  0
C  C16  1  0.49637567  0.44346300  0.78755869  1  0  0.020668  0  3.662208  0  0  0.003752  0  3.909204  0  0  0.001186  0  3.926205  0  0  0.11063  0.005496  0  3.897912  0
C  C17  1  0.72749640  0.05667176  0.71252266  1  0  0.021072  0  3.664751  0  0  0.0036  0  3.911749  0  0  0.000972  0  3.928854  0  0  0.110504  0.00532  0  3.9004  0
C  C18  1  0.50362662  0.55653702  0.21243970  1  0  0.02067  0  3.662151  0  0  0.003699  0  3.909212  0  0  0.001169  0  3.926207  0  0  0.11062  0.005449  0  3.897915  0
C  C19  1  0.27251031  0.94332325  0.28747433  1  0  0.02095  0  3.664806  0  0  0.003572  0  3.911676  0  0  0.000948  0  3.928774  0  0  0.110446  0.005252  0  3.900381  0
C  C20  1  0.47310764  0.34643599  0.90042628  1  0  0.714984  0  3.847318  0  0  0.686355  0  4.131142  0  0  0.728307  0  4.114937  0  0  0.264764  0.657145  0  4.141296  0
C  C21  1  0.72010342  0.15362358  0.59961451  1  0  0.716553  0  3.842059  0  0  0.687781  0  4.126288  0  0  0.729711  0  4.110021  0  0  0.26533  0.658581  0  4.136406  0
C  C22  1  0.52688981  0.65356803  0.09957454  1  0  0.714978  0  3.847363  0  0  0.686369  0  4.13117  0  0  0.728311  0  4.114983  0  0  0.264745  0.657158  0  4.141332  0
C  C23  1  0.27990195  0.84637241  0.40038016  1  0  0.716594  0  3.841798  0  0  0.687822  0  4.125967  0  0  0.72976  0  4.109695  0  0  0.26531  0.658634  0  4.136085  0
C  C24  1  0.64053970  0.51925255  0.72433607  1  0  0.024708  0  3.735038  0  0  0.01689  0  3.993652  0  0  0.01569  0  4.012924  0  0  0.107727  0.017756  0  3.980426  0
C  C25  1  0.88424052  0.98099935  0.77575005  1  0  0.02434  0  3.738493  0  0  0.017116  0  3.996191  0  0  0.015947  0  4.015523  0  0  0.108123  0.017979  0  3.983034  0
C  C26  1  0.35946662  0.48074346  0.27566070  1  0  0.024607  0  3.735044  0  0  0.016816  0  3.993668  0  0  0.015625  0  4.012915  0  0  0.107751  0.017709  0  3.980419  0
C  C27  1  0.11576467  0.01899867  0.22424817  1  0  0.02439  0  3.738547  0  0  0.017163  0  3.996157  0  0  0.015996  0  4.015492  0  0  0.108161  0.018029  0  3.983013  0
C  C28  1  0.84226845  0.52843852  0.73740949  1  0  0.712133  0  3.829136  0  0  0.680714  0  4.110691  0  0  0.721666  0  4.093759  0  0  0.259417  0.652243  0  4.12153  0
C  C29  1  0.10814520  0.97178995  0.76272893  1  0  0.712141  0  3.829934  0  0  0.680583  0  4.110732  0  0  0.721498  0  4.093855  0  0  0.259338  0.65207  0  4.12171  0
C  C30  1  0.15773339  0.47155851  0.26259116  1  0  0.712236  0  3.829039  0  0  0.680822  0  4.110589  0  0  0.721773  0  4.093652  0  0  0.259442  0.652343  0  4.121444  0
C  C31  1  0.89185605  0.02821307  0.23727176  1  0  0.71207  0  3.829945  0  0  0.680555  0  4.110654  0  0  0.721476  0  4.093777  0  0  0.259348  0.652054  0  4.121617  0
N  N32  1  0.56856123  0.60351423  0.62653075  1  0  -0.460187  0  3.217387  0  0  -0.44149  0  3.524702  0  0  -0.466237  0  3.546944  0  0  -0.390452  -0.423733  0  3.508615  0
N  N33  1  0.79886757  0.89665025  0.87352675  1  0  -0.459264  0  3.220549  0  0  -0.440421  0  3.527702  0  0  -0.465283  0  3.549991  0  0  -0.390624  -0.422706  0  3.511604  0
N  N34  1  0.43143963  0.39648081  0.37346903  1  0  -0.460162  0  3.217387  0  0  -0.441521  0  3.5247  0  0  -0.466237  0  3.546924  0  0  -0.390473  -0.42377  0  3.508607  0
N  N35  1  0.20112980  0.10335277  0.12647323  1  0  -0.459261  0  3.220539  0  0  -0.440421  0  3.527696  0  0  -0.465292  0  3.549979  0  0  -0.390636  -0.422706  0  3.511594  0
N  N36  1  0.34075324  0.48393745  0.72402338  1  0  -0.261619  0  3.412501  0  0  -0.196888  0  3.63623  0  0  -0.211629  0  3.647819  0  0  -0.349397  -0.186948  0  3.628505  0
N  N37  1  0.54895881  0.01603318  0.77600338  1  0  -0.262369  0  3.41432  0  0  -0.196487  0  3.638123  0  0  -0.211253  0  3.649805  0  0  -0.349765  -0.18643  0  3.630232  0
N  N38  1  0.65924691  0.51606058  0.27597682  1  0  -0.26148  0  3.412267  0  0  -0.196793  0  3.636025  0  0  -0.211583  0  3.647664  0  0  -0.349344  -0.18685  0  3.628303  0
N  N39  1  0.45104292  0.98396582  0.22399312  1  0  -0.262245  0  3.414242  0  0  -0.196456  0  3.638077  0  0  -0.211229  0  3.649751  0  0  -0.34977  -0.186391  0  3.630192  0
O  O40  1  0.65262206  0.88717141  0.58050790  1  0  -0.67226  0  1.604118  0  0  -0.691716  0  1.905888  0  0  -0.713652  0  1.894075  0  0  -0.748378  -0.678322  0  1.915302  0
O  O41  1  0.11991790  0.61313700  0.91928040  1  0  -0.671582  0  1.605273  0  0  -0.690885  0  1.907106  0  0  -0.712966  0  1.8951  0  0  -0.74861  -0.677607  0  1.916423  0
O  O42  1  0.34738083  0.11282367  0.41949902  1  0  -0.672299  0  1.603957  0  0  -0.691723  0  1.905634  0  0  -0.71364  0  1.893834  0  0  -0.748372  -0.678347  0  1.915045  0
O  O43  1  0.88006848  0.38687404  0.08072420  1  0  -0.671629  0  1.605212  0  0  -0.690958  0  1.907061  0  0  -0.71302  0  1.895021  0  0  -0.748625  -0.677675  0  1.916396  0
O  O44  1  0.90519071  0.64720545  0.40354276  1  0  -0.689562  0  1.595447  0  0  -0.706924  0  1.898229  0  0  -0.729754  0  1.886547  0  0  -0.750948  -0.692879  0  1.907559  0
O  O45  1  0.95635986  0.85266092  0.09663228  1  0  -0.689852  0  1.59699  0  0  -0.706919  0  1.900158  0  0  -0.729837  0  1.888112  0  0  -0.750744  -0.692911  0  1.909412  0
O  O46  1  0.09480117  0.35279957  0.59645691  1  0  -0.689531  0  1.595524  0  0  -0.7069  0  1.898274  0  0  -0.72971  0  1.886604  0  0  -0.750889  -0.692872  0  1.9076  0
O  O47  1  0.04363035  0.14735111  0.90337096  1  0  -0.689744  0  1.597006  0  0  -0.706822  0  1.900198  0  0  -0.729739  0  1.888159  0  0  -0.750715  -0.692785  0  1.909425  0
O  O48  1  0.61336299  0.31080113  0.96208301  1  0  -0.655516  0  2.045184  0  0  -0.639504  0  2.302985  0  0  -0.674216  0  2.29299  0  0  -0.353154  -0.613702  0  2.308619  0
O  O49  1  0.88633773  0.18926887  0.53799787  1  0  -0.656565  0  2.045699  0  0  -0.640675  0  2.303603  0  0  -0.675238  0  2.293602  0  0  -0.353695  -0.614908  0  2.309369  0
O  O50  1  0.38664129  0.68920489  0.03791588  1  0  -0.655523  0  2.045199  0  0  -0.639506  0  2.302979  0  0  -0.674228  0  2.29299  0  0  -0.353121  -0.613709  0  2.308612  0
O  O51  1  0.11367585  0.81071617  0.46199981  1  0  -0.656595  0  2.045554  0  0  -0.640704  0  2.303462  0  0  -0.675283  0  2.293456  0  0  -0.353617  -0.614922  0  2.309225  0
O  O52  1  0.30782108  0.30261183  0.93042626  1  0  -0.656999  0  2.064574  0  0  -0.642006  0  2.331127  0  0  -0.677625  0  2.322546  0  0  -0.355606  -0.615377  0  2.335574  0
O  O53  1  0.54108218  0.19739952  0.56951601  1  0  -0.657243  0  2.060679  0  0  -0.642154  0  2.327213  0  0  -0.67762  0  2.318629  0  0  -0.355509  -0.615501  0  2.33169  0
O  O54  1  0.69216802  0.69739924  0.06958174  1  0  -0.657055  0  2.064617  0  0  -0.641999  0  2.331066  0  0  -0.677628  0  2.322494  0  0  -0.355631  -0.615372  0  2.335508  0
O  O55  1  0.45892245  0.80259748  0.43048032  1  0  -0.657229  0  2.060601  0  0  -0.642158  0  2.32716  0  0  -0.677641  0  2.318574  0  0  -0.355505  -0.615493  0  2.331633  0
O  O56  1  0.93543634  0.44902678  0.81879867  1  0  -0.660946  0  2.102916  0  0  -0.638787  0  2.360829  0  0  -0.672042  0  2.349896  0  0  -0.34518  -0.614055  0  2.367224  0
O  O57  1  0.20348748  0.05101145  0.68127286  1  0  -0.660011  0  2.105418  0  0  -0.637827  0  2.363168  0  0  -0.670945  0  2.352321  0  0  -0.344702  -0.61312  0  2.369628  0
O  O58  1  0.06456592  0.55097124  0.18120095  1  0  -0.661004  0  2.102888  0  0  -0.638834  0  2.360796  0  0  -0.672102  0  2.349862  0  0  -0.345193  -0.614106  0  2.367198  0
O  O59  1  0.79651495  0.94898859  0.31872845  1  0  -0.659973  0  2.105296  0  0  -0.637804  0  2.363018  0  0  -0.670937  0  2.352173  0  0  -0.344705  -0.613086  0  2.369475  0
O  O60  1  0.91842162  0.61992443  0.66044639  1  0  -0.621927  0  1.990883  0  0  -0.605487  0  2.241041  0  0  -0.638707  0  2.232676  0  0  -0.333308  -0.580921  0  2.245903  0
O  O61  1  0.19867918  0.88038862  0.83980211  1  0  -0.622968  0  1.990342  0  0  -0.605973  0  2.240226  0  0  -0.639324  0  2.231854  0  0  -0.333676  -0.581469  0  2.245093  0
O  O62  1  0.08157774  0.38007560  0.33955340  1  0  -0.621985  0  1.990889  0  0  -0.605564  0  2.241042  0  0  -0.638778  0  2.232678  0  0  -0.333324  -0.581005  0  2.245912  0
O  O63  1  0.80132035  0.11961341  0.16019937  1  0  -0.622962  0  1.990418  0  0  -0.605999  0  2.240295  0  0  -0.639351  0  2.231918  0  0  -0.333694  -0.581486  0  2.245154  0
