# generated using pymatgen
data_CdH20C18(NO2)2
_symmetry_space_group_name_H-M   'P 1'
_cell_length_a   9.62943487
_cell_length_b   10.08877254
_cell_length_c   10.43809309
_cell_angle_alpha   110.10020753
_cell_angle_beta   92.26852755
_cell_angle_gamma   106.38812884
_symmetry_Int_Tables_number   1
_chemical_formula_structural   CdH20C18(NO2)2
_chemical_formula_sum   'Cd2 H40 C36 N4 O8'
_cell_volume   903.04649705
_cell_formula_units_Z   2
loop_
 _symmetry_equiv_pos_site_id
 _symmetry_equiv_pos_as_xyz
  1  'x, y, z'
loop_
 _atom_site_type_symbol
 _atom_site_label
 _atom_site_symmetry_multiplicity
 _atom_site_fract_x
 _atom_site_fract_y
 _atom_site_fract_z
 _atom_site_occupancy
 _atom_site_hle17_bader_spin_density
 _atom_site_hle17_ddec_charge
 _atom_site_hle17_ddec_spin_density
 _atom_site_hle17_ddec_sum_bond_order
 _atom_site_hle17_magmom
 _atom_site_hse06_10hf_bader_spin_density
 _atom_site_hse06_10hf_ddec_charge
 _atom_site_hse06_10hf_ddec_spin_density
 _atom_site_hse06_10hf_ddec_sum_bond_order
 _atom_site_hse06_10hf_magmom
 _atom_site_hse06_bader_spin_density
 _atom_site_hse06_ddec_charge
 _atom_site_hse06_ddec_spin_density
 _atom_site_hse06_ddec_sum_bond_order
 _atom_site_hse06_magmom
 _atom_site_pbe_bader_spin_density
 _atom_site_pbe_cm5_charge
 _atom_site_pbe_ddec_charge
 _atom_site_pbe_ddec_spin_density
 _atom_site_pbe_ddec_sum_bond_order
 _atom_site_pbe_magmom
Cd  Cd0  1  0.37715860  0.86816642  0.08514621  1  0  1.09903  0  1.728267  0  0  0.904314  0  2.181595  0  0  0.964121  0  2.129016  0  0  0.762209  0.861423  0  2.217395  0
Cd  Cd1  1  0.62284752  0.13183651  0.91485199  1  0  1.098947  0  1.728337  0  0  0.904231  0  2.181643  0  0  0.96404  0  2.129066  0  0  0.762195  0.86134  0  2.21743  0
H  H2  1  0.31862222  0.77114341  0.75356737  1  0  0.073278  0  0.968477  0  0  0.08051  0  1.036462  0  0  0.082299  0  1.035364  0  0  0.115239  0.079517  0  1.036691  0
H  H3  1  0.68137173  0.22885430  0.24642868  1  0  0.073324  0  0.96844  0  0  0.08056  0  1.036402  0  0  0.082358  0  1.035293  0  0  0.115264  0.079567  0  1.03663  0
H  H4  1  0.31759547  0.56570709  0.53723127  1  0  0.1001  0  0.96661  0  0  0.108877  0  1.032381  0  0  0.111721  0  1.031949  0  0  0.10689  0.106829  0  1.032792  0
H  H5  1  0.68240091  0.43429167  0.46276425  1  0  0.100004  0  0.966616  0  0  0.108773  0  1.032412  0  0  0.111615  0  1.031984  0  0  0.106877  0.106723  0  1.032821  0
H  H6  1  0.40484587  0.32693032  0.78955807  1  0  0.131563  0  0.985005  0  0  0.137426  0  1.04968  0  0  0.141563  0  1.047726  0  0  0.111427  0.134394  0  1.051357  0
H  H7  1  0.59514500  0.67306749  0.21043983  1  0  0.131568  0  0.984975  0  0  0.137435  0  1.049648  0  0  0.141569  0  1.047696  0  0  0.111437  0.134407  0  1.051325  0
H  H8  1  0.39511012  0.54318465  0.99572746  1  0  0.081767  0  0.944631  0  0  0.090167  0  1.008466  0  0  0.092365  0  1.00699  0  0  0.11919  0.088512  0  1.009641  0
H  H9  1  0.60487626  0.45681217  0.00426901  1  0  0.081814  0  0.944583  0  0  0.090208  0  1.008413  0  0  0.092406  0  1.006936  0  0  0.119204  0.088552  0  1.00959  0
H  H10  1  0.22234513  0.34162857  0.38151072  1  0  0.107967  0  0.944777  0  0  0.122709  0  0.99723  0  0  0.125802  0  0.996363  0  0  0.113111  0.120797  0  0.997395  0
H  H11  1  0.77764976  0.65836573  0.61848613  1  0  0.108027  0  0.944743  0  0  0.122764  0  0.997211  0  0  0.125858  0  0.996342  0  0  0.113139  0.120855  0  0.997374  0
H  H12  1  0.24104319  0.13342071  0.17498627  1  0  0.090072  0  0.924244  0  0  0.102374  0  0.979225  0  0  0.104567  0  0.97765  0  0  0.1236  0.100497  0  0.981078  0
H  H13  1  0.75894994  0.86657137  0.82501648  1  0  0.090074  0  0.924281  0  0  0.102307  0  0.97932  0  0  0.104499  0  0.977749  0  0  0.123575  0.100436  0  0.981172  0
H  H14  1  0.53023537  0.03376276  0.40097254  1  0  0.085164  0  0.95662  0  0  0.092941  0  1.022432  0  0  0.095079  0  1.021249  0  0  0.118997  0.09145  0  1.023203  0
H  H15  1  0.46976628  0.96623917  0.59903093  1  0  0.085174  0  0.956617  0  0  0.092955  0  1.022427  0  0  0.095094  0  1.021242  0  0  0.119004  0.091464  0  1.023194  0
H  H16  1  0.52714093  0.23844674  0.61994447  1  0  0.136043  0  0.949755  0  0  0.14316  0  1.013143  0  0  0.147461  0  1.010489  0  0  0.115233  0.140034  0  1.015327  0
H  H17  1  0.47285558  0.76155536  0.38005889  1  0  0.136054  0  0.949779  0  0  0.143169  0  1.013178  0  0  0.147471  0  1.010523  0  0  0.115236  0.140045  0  1.015359  0
H  H18  1  0.09277272  0.93973870  0.88833260  1  0  0.100154  0  0.923088  0  0  0.118066  0  0.97846  0  0  0.12023  0  0.977671  0  0  0.097371  0.116443  0  0.979342  0
H  H19  1  0.90723107  0.06026654  0.11166918  1  0  0.100134  0  0.923088  0  0  0.118055  0  0.978475  0  0  0.120217  0  0.977686  0  0  0.097373  0.116435  0  0.97936  0
H  H20  1  0.11900626  0.12674369  0.90805802  1  0  0.115628  0  0.91615  0  0  0.131095  0  0.974192  0  0  0.134287  0  0.972166  0  0  0.103051  0.12887  0  0.975731  0
H  H21  1  0.88099789  0.87326269  0.09193841  1  0  0.115635  0  0.916081  0  0  0.131114  0  0.974129  0  0  0.134307  0  0.972099  0  0  0.103048  0.128895  0  0.975668  0
H  H22  1  0.97231160  0.97811600  0.68454911  1  0  0.057096  0  0.95755  0  0  0.073214  0  1.024096  0  0  0.073698  0  1.025505  0  0  0.08321  0.072659  0  1.023558  0
H  H23  1  0.02768752  0.02188152  0.31545183  1  0  0.057123  0  0.957571  0  0  0.073246  0  1.024104  0  0  0.073726  0  1.025512  0  0  0.083213  0.072689  0  1.023567  0
H  H24  1  0.14902395  0.06516680  0.65785671  1  0  0.064544  0  0.943574  0  0  0.081405  0  1.007768  0  0  0.082719  0  1.0076  0  0  0.086877  0.080528  0  1.007824  0
H  H25  1  0.85097271  0.93482970  0.34213807  1  0  0.064507  0  0.943665  0  0  0.081391  0  1.007828  0  0  0.082703  0  1.007658  0  0  0.086872  0.080519  0  1.007876  0
H  H26  1  0.03475526  0.74166259  0.63975901  1  0  0.047662  0  0.941218  0  0  0.069607  0  1.000741  0  0  0.070029  0  1.001402  0  0  0.081486  0.069319  0  0.999875  0
H  H27  1  0.96524525  0.25833601  0.36024234  1  0  0.047685  0  0.941163  0  0  0.069626  0  1.000698  0  0  0.070047  0  1.001359  0  0  0.081486  0.069339  0  0.999829  0
H  H28  1  0.21343940  0.83101691  0.61920403  1  0  0.04751  0  0.960973  0  0  0.068644  0  1.024039  0  0  0.0686  0  1.025295  0  0  0.081976  0.068416  0  1.023157  0
H  H29  1  0.78655970  0.16898062  0.38079405  1  0  0.047547  0  0.960982  0  0  0.068688  0  1.024032  0  0  0.06864  0  1.025293  0  0  0.082002  0.068459  0  1.02315  0
H  H30  1  0.94027042  0.79639621  0.43520415  1  0  0.052816  0  0.954488  0  0  0.071546  0  1.018822  0  0  0.071586  0  1.020645  0  0  0.08176  0.07128  0  1.01766  0
H  H31  1  0.05972561  0.20360141  0.56479673  1  0  0.052791  0  0.954507  0  0  0.071509  0  1.018858  0  0  0.071551  0  1.020677  0  0  0.081726  0.071243  0  1.017696  0
H  H32  1  0.12346087  0.86941019  0.41636313  1  0  0.06399  0  0.928426  0  0  0.086048  0  0.983165  0  0  0.08638  0  0.984438  0  0  0.08763  0.085767  0  0.98227  0
H  H33  1  0.87653683  0.13058626  0.58363646  1  0  0.064052  0  0.92848  0  0  0.0861  0  0.983208  0  0  0.086432  0  0.984481  0  0  0.087656  0.085819  0  0.982312  0
H  H34  1  0.15714411  0.61816753  0.38169853  1  0  0.05505  0  0.947479  0  0  0.073099  0  1.012704  0  0  0.074666  0  1.011609  0  0  0.080436  0.071651  0  1.014005  0
H  H35  1  0.84284669  0.38182687  0.61830493  1  0  0.055123  0  0.947336  0  0  0.073137  0  1.012628  0  0  0.074702  0  1.011535  0  0  0.080433  0.071691  0  1.013932  0
H  H36  1  0.96776889  0.54760208  0.38777512  1  0  0.045123  0  0.959435  0  0  0.062053  0  1.028373  0  0  0.062504  0  1.029665  0  0  0.076663  0.061592  0  1.0276  0
H  H37  1  0.03222121  0.45239352  0.61221627  1  0  0.045129  0  0.959442  0  0  0.062113  0  1.028317  0  0  0.062565  0  1.029609  0  0  0.076686  0.061656  0  1.027542  0
H  H38  1  0.91664984  0.62387250  0.18328952  1  0  0.089668  0  0.944186  0  0  0.104858  0  1.004289  0  0  0.106186  0  1.00503  0  0  0.089408  0.103788  0  1.004035  0
H  H39  1  0.08336262  0.37613700  0.81670344  1  0  0.089775  0  0.944045  0  0  0.104893  0  1.004172  0  0  0.106217  0  1.004911  0  0  0.089433  0.103828  0  1.003917  0
H  H40  1  0.00169510  0.48317973  0.14442030  1  0  0.108577  0  0.924231  0  0  0.124137  0  0.980667  0  0  0.126475  0  0.979731  0  0  0.097863  0.122551  0  0.981247  0
H  H41  1  0.99831166  0.51682206  0.85557562  1  0  0.108642  0  0.92419  0  0  0.124174  0  0.980606  0  0  0.126509  0  0.979668  0  0  0.097877  0.12259  0  0.981184  0
C  C42  1  0.33680682  0.67059819  0.75669933  1  0  0.135384  0  3.717989  0  0  0.103906  0  3.972416  0  0  0.110633  0  3.99182  0  0  0.049096  0.09946  0  3.958729  0
C  C43  1  0.66318789  0.32940175  0.24329654  1  0  0.13517  0  3.718124  0  0  0.103734  0  3.972518  0  0  0.110453  0  3.991922  0  0  0.049008  0.099292  0  3.958822  0
C  C44  1  0.33652194  0.55520423  0.63631033  1  0  -0.161574  0  3.722286  0  0  -0.180907  0  3.972857  0  0  -0.188171  0  3.99488  0  0  -0.081465  -0.176014  0  3.957918  0
C  C45  1  0.66347445  0.44479453  0.36368615  1  0  -0.161338  0  3.722218  0  0  -0.18069  0  3.972782  0  0  -0.187952  0  3.99481  0  0  -0.081436  -0.175796  0  3.957839  0
C  C46  1  0.36548185  0.42965393  0.64501403  1  0  0.096304  0  3.748757  0  0  0.108481  0  3.978809  0  0  0.111925  0  4.000537  0  0  0.01589  0.106299  0  3.96378  0
C  C47  1  0.63451388  0.57034597  0.35498282  1  0  0.096163  0  3.748928  0  0  0.108409  0  3.978919  0  0  0.111852  0  4.000648  0  0  0.0159  0.106226  0  3.963889  0
C  C48  1  0.38819681  0.42469541  0.77685388  1  0  -0.153542  0  3.661152  0  0  -0.171057  0  3.905223  0  0  -0.177963  0  3.924229  0  0  -0.075766  -0.166404  0  3.892315  0
C  C49  1  0.61179725  0.57530567  0.22314427  1  0  -0.15343  0  3.661285  0  0  -0.170975  0  3.905338  0  0  -0.177877  0  3.924339  0  0  -0.075755  -0.166326  0  3.892433  0
C  C50  1  0.38298394  0.54398819  0.89166820  1  0  0.129373  0  3.704676  0  0  0.099893  0  3.954105  0  0  0.106644  0  3.972727  0  0  0.051023  0.095314  0  3.941649  0
C  C51  1  0.61700730  0.45601073  0.10832913  1  0  0.12937  0  3.704602  0  0  0.099908  0  3.954029  0  0  0.106656  0  3.972649  0  0  0.051076  0.095327  0  3.941577  0
C  C52  1  0.37182147  0.30701789  0.51982979  1  0  0.095086  0  3.751125  0  0  0.104837  0  3.985406  0  0  0.108729  0  4.006629  0  0  0.014776  0.102321  0  3.970591  0
C  C53  1  0.62817530  0.69298197  0.48016900  1  0  0.095081  0  3.751195  0  0  0.104794  0  3.985505  0  0  0.108684  0  4.00673  0  0  0.014745  0.102278  0  3.970691  0
C  C54  1  0.29275303  0.27705134  0.39172853  1  0  -0.15517  0  3.696718  0  0  -0.173961  0  3.945382  0  0  -0.181116  0  3.965944  0  0  -0.075712  -0.168695  0  3.930623  0
C  C55  1  0.70724224  0.72294406  0.60827063  1  0  -0.155277  0  3.696776  0  0  -0.174071  0  3.945437  0  0  -0.181226  0  3.965999  0  0  -0.07576  -0.168804  0  3.930682  0
C  C56  1  0.30137899  0.16072787  0.27611174  1  0  0.140998  0  3.707385  0  0  0.109885  0  3.961189  0  0  0.117338  0  3.978953  0  0  0.054622  0.104472  0  3.949855  0
C  C57  1  0.69861628  0.83926753  0.72388741  1  0  0.140964  0  3.707518  0  0  0.109929  0  3.961276  0  0  0.117382  0  3.979042  0  0  0.054667  0.104502  0  3.949957  0
C  C58  1  0.46217570  0.10434676  0.40340584  1  0  0.119344  0  3.715029  0  0  0.088877  0  3.969288  0  0  0.09543  0  3.988191  0  0  0.047623  0.084427  0  3.956235  0
C  C59  1  0.53782557  0.89565406  0.59659629  1  0  0.11923  0  3.71514  0  0  0.088761  0  3.969408  0  0  0.095312  0  3.988311  0  0  0.047588  0.084313  0  3.956351  0
C  C60  1  0.45925563  0.21781398  0.52448924  1  0  -0.154096  0  3.663097  0  0  -0.172126  0  3.911764  0  0  -0.178604  0  3.929984  0  0  -0.075094  -0.167561  0  3.899192  0
C  C61  1  0.54074152  0.78218699  0.47551184  1  0  -0.154044  0  3.663145  0  0  -0.172078  0  3.911846  0  0  -0.178557  0  3.930067  0  0  -0.075082  -0.167517  0  3.899277  0
C  C62  1  0.30966510  0.06014613  0.87408900  1  0  0.692717  0  3.850953  0  0  0.644586  0  4.151022  0  0  0.67878  0  4.144475  0  0  0.199622  0.621703  0  4.153924  0
C  C63  1  0.69033934  0.93985798  0.12590954  1  0  0.692489  0  3.851241  0  0  0.644391  0  4.151274  0  0  0.678581  0  4.144736  0  0  0.199537  0.621516  0  4.154174  0
C  C64  1  0.14494472  0.02547753  0.84721584  1  0  -0.26728  0  3.681918  0  0  -0.305921  0  3.936623  0  0  -0.312261  0  3.944833  0  0  -0.167025  -0.301781  0  3.931249  0
C  C65  1  0.85505831  0.97452550  0.15278230  1  0  -0.267111  0  3.681814  0  0  -0.305817  0  3.936562  0  0  -0.312151  0  3.944761  0  0  -0.16699  -0.301697  0  3.931211  0
C  C66  1  0.08681391  0.97954731  0.69487410  1  0  -0.083585  0  3.703031  0  0  -0.124709  0  3.967264  0  0  -0.124911  0  3.981318  0  0  -0.169584  -0.12433  0  3.957752  0
C  C67  1  0.91318725  0.02045016  0.30512307  1  0  -0.083706  0  3.703125  0  0  -0.124829  0  3.96735  0  0  -0.125024  0  3.981392  0  0  -0.169625  -0.124444  0  3.957837  0
C  C68  1  0.09868938  0.82888979  0.60467093  1  0  -0.106039  0  3.707591  0  0  -0.147368  0  3.971031  0  0  -0.148519  0  3.986804  0  0  -0.170213  -0.146408  0  3.959596  0
C  C69  1  0.90130935  0.17110662  0.39532867  1  0  -0.106071  0  3.707573  0  0  -0.147421  0  3.971017  0  0  -0.148571  0  3.986789  0  0  -0.170233  -0.146466  0  3.959592  0
C  C70  1  0.05038696  0.78697410  0.45128191  1  0  -0.107011  0  3.6882  0  0  -0.142433  0  3.946429  0  0  -0.143692  0  3.961985  0  0  -0.169171  -0.141205  0  3.935517  0
C  C71  1  0.94961178  0.21302231  0.54871961  1  0  -0.107048  0  3.688183  0  0  -0.142442  0  3.946403  0  0  -0.143701  0  3.961955  0  0  -0.169147  -0.141209  0  3.935482  0
C  C72  1  0.04959537  0.63110209  0.36099331  1  0  -0.082981  0  3.708671  0  0  -0.126186  0  3.972102  0  0  -0.126592  0  3.98622  0  0  -0.171377  -0.126089  0  3.962903  0
C  C73  1  0.95040310  0.36889656  0.63901088  1  0  -0.083026  0  3.708644  0  0  -0.126307  0  3.972056  0  0  -0.126719  0  3.986171  0  0  -0.171417  -0.126213  0  3.962863  0
C  C74  1  0.01759054  0.60088145  0.20681976  1  0  -0.25941  0  3.66499  0  0  -0.292641  0  3.911103  0  0  -0.298803  0  3.920421  0  0  -0.171675  -0.288457  0  3.904773  0
C  C75  1  0.98242185  0.39912465  0.79317972  1  0  -0.259603  0  3.664988  0  0  -0.292688  0  3.910909  0  0  -0.298832  0  3.920204  0  0  -0.171701  -0.288513  0  3.904584  0
C  C76  1  0.14258623  0.69494093  0.15964651  1  0  0.684398  0  3.868493  0  0  0.643354  0  4.16278  0  0  0.676329  0  4.158384  0  0  0.185953  0.621133  0  4.164734  0
C  C77  1  0.85743189  0.30506044  0.84036306  1  0  0.684271  0  3.86867  0  0  0.643301  0  4.162764  0  0  0.676272  0  4.158366  0  0  0.185882  0.62109  0  4.164709  0
N  N78  1  0.36040871  0.66613732  0.88240272  1  0  -0.312448  0  3.250646  0  0  -0.235555  0  3.512116  0  0  -0.25498  0  3.531053  0  0  -0.322302  -0.2221  0  3.498821  0
N  N79  1  0.63958356  0.33386157  0.11759368  1  0  -0.312416  0  3.250586  0  0  -0.23556  0  3.512092  0  0  -0.254983  0  3.531032  0  0  -0.322332  -0.222105  0  3.498789  0
N  N80  1  0.38459471  0.07557525  0.28157217  1  0  -0.322579  0  3.263022  0  0  -0.248045  0  3.529701  0  0  -0.267454  0  3.54874  0  0  -0.325541  -0.23444  0  3.516598  0
N  N81  1  0.61540412  0.92442453  0.71842857  1  0  -0.322424  0  3.263037  0  0  -0.247883  0  3.529663  0  0  -0.267291  0  3.548701  0  0  -0.325518  -0.234278  0  3.516563  0
O  O82  1  0.27319440  0.69953213  0.19592745  1  0  -0.675479  0  1.911753  0  0  -0.616218  0  2.149943  0  0  -0.644813  0  2.140562  0  0  -0.355789  -0.596189  0  2.155535  0
O  O83  1  0.72682261  0.30046589  0.80408574  1  0  -0.675481  0  1.911695  0  0  -0.616223  0  2.149809  0  0  -0.644823  0  2.140428  0  0  -0.355804  -0.596197  0  2.155395  0
O  O84  1  0.38984512  0.11974967  0.80202255  1  0  -0.641714  0  1.972393  0  0  -0.576633  0  2.213027  0  0  -0.60428  0  2.203926  0  0  -0.324777  -0.557107  0  2.218208  0
O  O85  1  0.61015794  0.88026572  0.19798166  1  0  -0.6416  0  1.972422  0  0  -0.576503  0  2.213012  0  0  -0.604146  0  2.203915  0  0  -0.324723  -0.556977  0  2.218197  0
O  O86  1  0.36649060  0.03140083  0.97049610  1  0  -0.694932  0  2.068846  0  0  -0.623453  0  2.34264  0  0  -0.655135  0  2.330977  0  0  -0.344643  -0.601134  0  2.349445  0
O  O87  1  0.63351418  0.96859204  0.02949485  1  0  -0.694844  0  2.06888  0  0  -0.623387  0  2.342661  0  0  -0.655068  0  2.331003  0  0  -0.344618  -0.601068  0  2.349464  0
O  O88  1  0.11468482  0.76567638  0.08663629  1  0  -0.668569  0  1.883731  0  0  -0.612876  0  2.113213  0  0  -0.640873  0  2.103949  0  0  -0.352099  -0.593556  0  2.1187  0
O  O89  1  0.88534389  0.23433476  0.91337595  1  0  -0.668443  0  1.884068  0  0  -0.61278  0  2.11345  0  0  -0.640775  0  2.104187  0  0  -0.351997  -0.593462  0  2.118926  0
