# generated using pymatgen
data_Zn4H4C22N2O13F4
_symmetry_space_group_name_H-M   'P 1'
_cell_length_a   18.85533352
_cell_length_b   18.97928479
_cell_length_c   18.97948948
_cell_angle_alpha   94.29265897
_cell_angle_beta   117.47339720
_cell_angle_gamma   117.47093583
_symmetry_Int_Tables_number   1
_chemical_formula_structural   Zn4H4C22N2O13F4
_chemical_formula_sum   'Zn8 H8 C44 N4 O26 F8'
_cell_volume   4976.79345887
_cell_formula_units_Z   2
loop_
 _symmetry_equiv_pos_site_id
 _symmetry_equiv_pos_as_xyz
  1  'x, y, z'
loop_
 _atom_site_type_symbol
 _atom_site_label
 _atom_site_symmetry_multiplicity
 _atom_site_fract_x
 _atom_site_fract_y
 _atom_site_fract_z
 _atom_site_occupancy
 _atom_site_pbe_bader_charge
 _atom_site_pbe_bader_spin_density
 _atom_site_pbe_cm5_charge
 _atom_site_pbe_ddec_charge
 _atom_site_pbe_ddec_spin_density
 _atom_site_pbe_ddec_sum_bond_order
 _atom_site_pbe_magmom
Zn  Zn0  1  0.92139637  0.12419323  0.70579760  1  1.297339  0  0.677544  0.964663  0  2.352041  0
Zn  Zn1  1  0.08392416  0.70772629  0.29029747  1  1.322838  0  0.681082  0.968689  0  2.360403  0
Zn  Zn2  1  0.08393223  0.29031034  0.70774395  1  1.322332  0  0.681107  0.968681  0  2.360523  0
Zn  Zn3  1  0.91606219  0.70969091  0.29225626  1  1.322446  0  0.681075  0.968632  0  2.360511  0
Zn  Zn4  1  0.91607245  0.29227369  0.70970102  1  1.322807  0  0.681097  0.968756  0  2.36036  0
Zn  Zn5  1  0.07860203  0.87580866  0.29420712  1  1.297264  0  0.677649  0.964771  0  2.35185  0
Zn  Zn6  1  0.07859721  0.29419682  0.87580815  1  1.297261  0  0.677623  0.964742  0  2.351965  0
Zn  Zn7  1  0.92140402  0.70580762  0.12419332  1  1.297396  0  0.677617  0.964779  0  2.351877  0
H  H8  1  0.06046375  0.93200734  0.66274094  1  0.4276  0  0.303089  0.297901  0  0.939002  0
H  H9  1  0.00325944  0.97425723  0.67202122  1  0.438967  0  0.296394  0.29608  0  0.955769  0
H  H10  1  0.93953786  0.06799583  0.33726587  1  0.427619  0  0.30309  0.29796  0  0.93873  0
H  H11  1  0.99673954  0.02574274  0.32798521  1  0.43913  0  0.296365  0.29615  0  0.955467  0
H  H12  1  0.94045710  0.33760520  0.06859786  1  0.420967  0  0.302687  0.297573  0  0.938762  0
H  H13  1  0.99719163  0.32817748  0.02586119  1  0.437764  0  0.296789  0.296504  0  0.955083  0
H  H14  1  0.05950320  0.66239029  0.93138147  1  0.420707  0  0.302668  0.297601  0  0.938581  0
H  H15  1  0.00281494  0.67183077  0.97416726  1  0.437732  0  0.296898  0.296704  0  0.955057  0
C  C16  1  0.99363886  0.38831981  0.88511335  1  1.587024  0  0.23601  0.652595  0  4.142013  0
C  C17  1  0.07204307  0.08112628  0.51861051  1  0.600079  0  0.095698  0.146976  0  3.74356  0
C  C18  1  0.07224578  0.51883574  0.08110821  1  0.598963  0  0.095565  0.146043  0  3.741712  0
C  C19  1  0.92775586  0.48116934  0.91889244  1  0.598953  0  0.095548  0.146621  0  3.742663  0
C  C20  1  0.92795311  0.91887305  0.48139406  1  0.600383  0  0.095635  0.145314  0  3.7418  0
C  C21  1  0.36313559  0.43279528  0.93551675  1  0.183067  0  -0.001445  -0.134137  0  3.841539  0
C  C22  1  0.63686701  0.56720280  0.06447803  1  0.183055  0  -0.001413  -0.13416  0  3.841143  0
C  C23  1  0.63686102  0.06450691  0.56722044  1  0.183861  0  -0.001415  -0.133948  0  3.841587  0
C  C24  1  0.00636253  0.61168017  0.11488787  1  1.587024  0  0.236087  0.652753  0  4.141918  0
C  C25  1  0.36313119  0.93549179  0.43277540  1  0.183803  0  -0.001529  -0.134121  0  3.841416  0
C  C26  1  0.45132803  0.47610203  0.97700493  1  -0.175233  0  0.003616  0.041883  0  4.211089  0
C  C27  1  0.54866437  0.52389031  0.02297787  1  -0.337084  0  0.003558  0.041926  0  4.210502  0
C  C28  1  0.54867126  0.02300240  0.52390582  1  -0.175568  0  0.00352  0.041753  0  4.210964  0
C  C29  1  0.45133340  0.97700651  0.47609545  1  -0.33867  0  0.00367  0.041939  0  4.210449  0
C  C30  1  0.00632108  0.11489766  0.61164895  1  1.587359  0  0.235983  0.652992  0  4.141231  0
C  C31  1  0.99999124  0.43183509  0.56815712  1  0.095969  0  -0.001296  -0.132301  0  3.849085  0
C  C32  1  0.00000969  0.56817828  0.43183803  1  0.09596  0  -0.001406  -0.132502  0  3.848304  0
C  C33  1  0.99999573  0.47576290  0.52423604  1  -0.080757  0  8.4e-05  0.037884  0  4.221298  0
C  C34  1  0.00000583  0.52423644  0.47577416  1  -0.209155  0  0.000225  0.037889  0  4.219861  0
C  C35  1  0.99367753  0.88510550  0.38835702  1  1.586727  0  0.235887  0.652852  0  4.14116  0
C  C36  1  0.74080263  0.11660844  0.61880636  1  1.67715  0  0.239233  0.671346  0  4.243641  0
C  C37  1  0.25919617  0.88339026  0.38119093  1  1.67668  0  0.239154  0.671332  0  4.24365  0
C  C38  1  0.25919399  0.38121896  0.88341489  1  1.67644  0  0.239223  0.671444  0  4.24309  0
C  C39  1  0.74080503  0.61878293  0.11658379  1  1.676059  0  0.239175  0.671429  0  4.243199  0
C  C40  1  0.99999190  0.38007747  0.61991378  1  1.642921  0  0.237278  0.665207  0  4.250243  0
C  C41  1  0.00000974  0.61992761  0.38008845  1  1.642407  0  0.237134  0.665058  0  4.25063  0
C  C42  1  0.00000501  0.12004806  0.87995025  1  1.640187  0  0.237831  0.668371  0  4.242761  0
C  C43  1  0.00000064  0.87995701  0.12005607  1  1.639848  0  0.237853  0.668434  0  4.242709  0
C  C44  1  0.00000513  0.06820876  0.93177754  1  0.086922  0  -0.002919  -0.135713  0  3.847383  0
C  C45  1  0.00001212  0.93179951  0.06822857  1  0.087291  0  -0.002877  -0.135741  0  3.847456  0
C  C46  1  0.00000829  0.02425733  0.97574043  1  -0.20477  0  -0.001367  0.036927  0  4.220678  0
C  C47  1  0.00001392  0.97574839  0.02426882  1  -0.076132  0  -0.001386  0.037012  0  4.220844  0
C  C48  1  0.02046992  0.98443888  0.57476840  1  0.441364  0  0.08612  0.155958  0  3.786499  0
C  C49  1  0.97952828  0.01556364  0.42523786  1  0.441191  0  0.086205  0.147067  0  3.80295  0
C  C50  1  0.97981796  0.42535403  0.01576889  1  0.435257  0  0.086756  0.156638  0  3.78816  0
C  C51  1  0.02018067  0.57464914  0.98423076  1  0.435498  0  0.086691  0.155873  0  3.787451  0
C  C52  1  0.08502163  0.00743740  0.53865957  1  0.599397  0  0.106896  0.179681  0  3.712957  0
C  C53  1  0.91497435  0.99256257  0.46134705  1  0.599321  0  0.106787  0.180922  0  3.715233  0
C  C54  1  0.91509473  0.46129353  0.99276482  1  0.605906  0  0.106503  0.174435  0  3.720726  0
C  C55  1  0.08490551  0.53871028  0.00723456  1  0.606053  0  0.106558  0.178429  0  3.713801  0
C  C56  1  0.99328955  0.94169474  0.44643943  1  -0.017019  0  -0.017848  -0.203231  0  3.688396  0
C  C57  1  0.00671105  0.05830779  0.55356740  1  -0.016981  0  -0.017935  -0.204796  0  3.686342  0
C  C58  1  0.00676005  0.55362631  0.05828262  1  -0.016147  0  -0.017733  -0.204019  0  3.689114  0
C  C59  1  0.99324118  0.44637814  0.94171675  1  -0.01616  0  -0.017796  -0.204706  0  3.688143  0
N  N60  1  0.05019838  0.97998495  0.65639070  1  -1.167528  0  -0.612174  -0.62876  0  3.245908  0
N  N61  1  0.94980022  0.02001630  0.34361459  1  -1.167584  0  -0.612185  -0.626257  0  3.24933  0
N  N62  1  0.95033176  0.34381527  0.02039398  1  -1.159507  0  -0.612683  -0.628757  0  3.245051  0
N  N63  1  0.04966228  0.65618726  0.97960457  1  -1.159239  0  -0.612791  -0.629028  0  3.244992  0
O  O64  1  0.99999709  0.24979186  0.75021264  1  -1.196264  0  -0.56946  -1.038949  0  2.52491  0
O  O65  1  0.95396332  0.63890776  0.07654812  1  -1.158213  0  -0.309026  -0.542696  0  2.303933  0
O  O66  1  0.95389664  0.07654021  0.63884539  1  -1.157974  0  -0.308748  -0.542577  0  2.303831  0
O  O67  1  0.04610177  0.92346168  0.36115880  1  -1.157733  0  -0.30877  -0.54255  0  2.303752  0
O  O68  1  0.77967502  0.19694052  0.64318476  1  -1.131689  0  -0.299659  -0.523981  0  2.278174  0
O  O69  1  0.22032481  0.80305883  0.35680409  1  -1.131754  0  -0.299587  -0.523924  0  2.278018  0
O  O70  1  0.22032498  0.35683991  0.80308316  1  -1.131002  0  -0.299702  -0.524004  0  2.278047  0
O  O71  1  0.77966929  0.64316772  0.19691588  1  -1.131001  0  -0.299625  -0.5239  0  2.278128  0
O  O72  1  0.99999969  0.75021005  0.24978909  1  -1.196266  0  -0.569447  -1.038993  0  2.524951  0
O  O73  1  0.93494363  0.35507549  0.63517945  1  -1.135748  0  -0.300246  -0.524173  0  2.276149  0
O  O74  1  0.06506060  0.64493087  0.36482460  1  -1.135495  0  -0.300209  -0.524052  0  2.276087  0
O  O75  1  0.06504819  0.36482052  0.64492504  1  -1.135459  0  -0.300216  -0.524114  0  2.276008  0
O  O76  1  0.93494842  0.63517946  0.35507134  1  -1.135566  0  -0.300204  -0.524039  0  2.276039  0
O  O77  1  0.05552548  0.20055283  0.92020693  1  -1.137048  0  -0.302739  -0.528196  0  2.271149  0
O  O78  1  0.94447454  0.79945161  0.07979820  1  -1.136847  0  -0.302726  -0.52815  0  2.271239  0
O  O79  1  0.94447913  0.07979137  0.79944232  1  -1.137274  0  -0.302796  -0.528227  0  2.271022  0
O  O80  1  0.05552867  0.92021308  0.20056428  1  -1.137379  0  -0.302831  -0.528289  0  2.270952  0
O  O81  1  0.78265864  0.07730489  0.63465320  1  -1.147926  0  -0.300715  -0.52692  0  2.27503  0
O  O82  1  0.21733853  0.92269317  0.36535383  1  -1.147576  0  -0.300729  -0.526937  0  2.274819  0
O  O83  1  0.21733256  0.36535064  0.92271472  1  -1.148168  0  -0.300717  -0.526934  0  2.274734  0
O  O84  1  0.78267035  0.63464041  0.07728706  1  -1.147869  0  -0.300691  -0.526993  0  2.274628  0
O  O85  1  0.94381035  0.37192320  0.80545455  1  -1.161992  0  -0.305125  -0.530427  0  2.316443  0
O  O86  1  0.05617456  0.62806401  0.19454550  1  -1.162182  0  -0.305104  -0.530431  0  2.316355  0
O  O87  1  0.05621136  0.19456276  0.62810959  1  -1.162179  0  -0.305159  -0.530528  0  2.316159  0
O  O88  1  0.94378723  0.80543849  0.37189517  1  -1.16221  0  -0.305161  -0.53049  0  2.316072  0
O  O89  1  0.04605355  0.36110626  0.92345705  1  -1.158256  0  -0.308865  -0.542562  0  2.303968  0
F  F90  1  0.16885532  0.01144214  0.57565442  1  -0.623511  0  -0.11241  -0.142253  0  1.291841  0
F  F91  1  0.14325633  0.16131295  0.53673608  1  -0.629726  0  -0.114417  -0.138142  0  1.316574  0
F  F92  1  0.14364560  0.53717075  0.16128123  1  -0.62955  0  -0.114429  -0.138438  0  1.316434  0
F  F93  1  0.85635623  0.46283369  0.83871999  1  -0.629575  0  -0.114399  -0.138339  0  1.316343  0
F  F94  1  0.85673945  0.83868574  0.46326878  1  -0.629713  0  -0.114385  -0.138134  0  1.316915  0
F  F95  1  0.83114007  0.98855783  0.42435193  1  -0.623499  0  -0.112348  -0.142088  0  1.291674  0
F  F96  1  0.83138727  0.42428534  0.98897100  1  -0.624046  0  -0.112214  -0.140753  0  1.293445  0
F  F97  1  0.16861354  0.57571656  0.01103009  1  -0.624067  0  -0.112199  -0.141813  0  1.291807  0
