# generated using pymatgen
data_CuP3H19C14NO10
_symmetry_space_group_name_H-M   'P 1'
_cell_length_a   9.54960262
_cell_length_b   9.97271191
_cell_length_c   10.16611824
_cell_angle_alpha   80.43844257
_cell_angle_beta   72.89420059
_cell_angle_gamma   88.83845686
_symmetry_Int_Tables_number   1
_chemical_formula_structural   CuP3H19C14NO10
_chemical_formula_sum   'Cu2 P6 H38 C28 N2 O20'
_cell_volume   912.07078246
_cell_formula_units_Z   2
loop_
 _symmetry_equiv_pos_site_id
 _symmetry_equiv_pos_as_xyz
  1  'x, y, z'
loop_
 _atom_site_type_symbol
 _atom_site_label
 _atom_site_symmetry_multiplicity
 _atom_site_fract_x
 _atom_site_fract_y
 _atom_site_fract_z
 _atom_site_occupancy
 _atom_site_hle17_ddec_charge
 _atom_site_hle17_ddec_spin_density
 _atom_site_hle17_ddec_sum_bond_order
 _atom_site_hle17_magmom
 _atom_site_hse06_10hf_ddec_charge
 _atom_site_hse06_10hf_ddec_spin_density
 _atom_site_hse06_10hf_ddec_sum_bond_order
 _atom_site_hse06_10hf_magmom
 _atom_site_hse06_ddec_charge
 _atom_site_hse06_ddec_spin_density
 _atom_site_hse06_ddec_sum_bond_order
 _atom_site_hse06_magmom
 _atom_site_pbe_cm5_charge
 _atom_site_pbe_ddec_charge
 _atom_site_pbe_ddec_spin_density
 _atom_site_pbe_ddec_sum_bond_order
 _atom_site_pbe_magmom
Cu  Cu0  1  0.27414143  0.63983500  0.48589647  1  1.071882  0.722193  1.684745  0.552  1.08307  0.812941  2.050654  0.679  1.158554  0.871864  1.996687  0.76  0.772493  1.023672  0.769228  2.106937  0.623
Cu  Cu1  1  0.72585538  0.36016868  0.51409996  1  1.072057  0.722235  1.684795  0.552  1.074634  0.81289  2.066176  0.679  1.15864  0.871859  1.996795  0.76  0.772538  1.023732  0.769238  2.107128  0.623
P  P2  1  0.81516651  0.10587570  0.33634240  1  1.528691  0.001882  4.655999  0.001  1.379465  0.003649  5.161355  0.003  1.42976  0.00233  5.121624  0.002  0.388742  1.343946  0.004906  5.189042  0.003
P  P3  1  0.18483236  0.89412903  0.66366315  1  1.528914  0.001882  4.655976  0.001  1.379645  0.003641  5.161715  0.003  1.430018  0.002325  5.121578  0.002  0.388915  1.344205  0.004903  5.188953  0.003
P  P4  1  0.11870101  0.46992875  0.79822252  1  1.549074  0.001772  4.6672  0.001  1.39186  0.00253  5.169417  0.002  1.441626  0.00181  5.130411  0.002  0.383646  1.357178  0.003204  5.1952  0.002
P  P5  1  0.88128914  0.53007383  0.20177978  1  1.549078  0.001773  4.667039  0.001  1.391878  0.002532  5.168809  0.002  1.44155  0.001811  5.130265  0.002  0.383541  1.357103  0.003206  5.195079  0.002
P  P6  1  0.40196611  0.35954172  0.38789310  1  1.52072  0.000682  4.738846  -0.002  1.387269  0.003675  5.235513  0.002  1.440328  0.002227  5.194679  0.002  0.354621  1.350223  0.00519  5.262049  0.002
P  P7  1  0.59803500  0.64045897  0.61210465  1  1.520576  0.000687  4.739054  -0.002  1.387175  0.003672  5.235361  0.002  1.440132  0.002223  5.194966  0.002  0.354565  1.350048  0.005191  5.262269  0.002
H  H8  1  0.80150716  0.28163039  0.17714650  1  0.453521  -0.0  0.851164  0.0  0.414599  -7e-06  0.925803  0.0  0.426555  -1.3e-05  0.908937  0.0  0.311332  0.406275  -1e-06  0.937618  0.0
H  H9  1  0.19848507  0.71836815  0.82285887  1  0.453459  -0.0  0.851257  0.0  0.414512  -7e-06  0.92594  0.0  0.426474  -1.3e-05  0.909062  0.0  0.311313  0.406195  -1e-06  0.937741  0.0
H  H10  1  0.17517562  0.27686877  0.51440083  1  0.424714  4.5e-05  0.891782  0.0  0.391501  2.2e-05  0.957965  0.0  0.40384  1.1e-05  0.940656  0.0  0.302375  0.382954  4.5e-05  0.970048  0.0
H  H11  1  0.82483291  0.72312286  0.48560138  1  0.424656  4.5e-05  0.891879  0.0  0.391389  2.2e-05  0.958144  0.0  0.40373  1.1e-05  0.940835  0.0  0.302328  0.38284  4.5e-05  0.970233  0.0
H  H12  1  0.91198472  0.41957914  0.96965512  1  0.440178  0.000172  0.866282  0.0  0.405542  0.000201  0.934762  0.001  0.417146  0.000145  0.918307  0.0  0.308928  0.397442  0.00027  0.946221  0.001
H  H13  1  0.08801083  0.58041638  0.03034397  1  0.440106  0.000172  0.866374  0.0  0.40549  0.000201  0.934841  0.001  0.417093  0.000145  0.918386  0.0  0.308876  0.397386  0.00027  0.946304  0.001
H  H14  1  0.70305495  0.89878954  0.44883252  1  0.446756  -7.3e-05  0.856428  0.0  0.409875  -2.6e-05  0.927593  0.0  0.421993  -2e-05  0.910267  0.0  0.312301  0.401501  -9e-06  0.939556  0.0
H  H15  1  0.29694610  0.10121217  0.55117000  1  0.4468  -7.3e-05  0.85635  0.0  0.409952  -2.6e-05  0.927468  0.0  0.422068  -2e-05  0.910144  0.0  0.312333  0.401577  -9e-06  0.939433  0.0
H  H16  1  0.95133709  0.59214070  0.42392011  1  0.427631  -5.6e-05  0.871794  0.0  0.39824  -4.6e-05  0.936426  0.0  0.408523  -5.9e-05  0.921434  0.0  0.301551  0.390888  -1.3e-05  0.947156  0.0
H  H17  1  0.04865954  0.40785586  0.57608049  1  0.427439  -5.5e-05  0.871996  0.0  0.398075  -4.5e-05  0.936602  0.0  0.408354  -5.9e-05  0.921621  0.0  0.301499  0.390731  -1.3e-05  0.947318  0.0
H  H18  1  0.00329294  0.65764984  0.53734152  1  0.432347  -0.000477  0.834772  0.0  0.400181  -0.000446  0.915439  0.0  0.409923  -0.00042  0.902965  0.0  0.307297  0.393241  -0.000437  0.924056  0.0
H  H19  1  0.99669997  0.34232737  0.46266917  1  0.43237  -0.000476  0.83482  0.0  0.400413  -0.000445  0.914998  0.0  0.40999  -0.000419  0.903002  0.0  0.307269  0.393294  -0.000437  0.924143  0.0
H  H20  1  0.60567319  0.01901456  0.18103996  1  0.113941  0.000891  0.98648  0.001  0.119877  0.000621  1.051953  0.001  0.122599  0.000398  1.051107  0.001  0.10977  0.117341  0.000731  1.053653  0.001
H  H21  1  0.39434321  0.98098530  0.81895586  1  0.113909  0.000886  0.986622  0.001  0.119794  0.000621  1.052137  0.001  0.122512  0.000399  1.051289  0.001  0.109758  0.117259  0.000731  1.05383  0.001
H  H22  1  0.52249488  0.36443773  0.14717061  1  0.137916  -0.000669  0.92996  -0.001  0.152304  -0.000185  0.985081  0.0  0.155262  -0.000138  0.983869  0.0  0.108747  0.150396  -0.000218  0.985961  0.0
H  H23  1  0.47750517  0.63556293  0.85282448  1  0.137903  -0.000664  0.929955  -0.001  0.152292  -0.000186  0.98507  0.0  0.15525  -0.000138  0.983855  0.0  0.108744  0.150378  -0.000218  0.985948  0.0
H  H24  1  0.50175300  0.20037843  0.24630358  1  0.140721  0.002023  0.959004  0.003  0.151604  0.000856  1.020969  0.001  0.153118  0.000493  1.021804  0.001  0.109579  0.150352  0.001315  1.021319  0.002
H  H25  1  0.49825474  0.79962131  0.75368766  1  0.140689  0.002025  0.959021  0.003  0.15162  0.000856  1.020935  0.001  0.153135  0.000493  1.021773  0.001  0.109589  0.150361  0.001315  1.021296  0.002
H  H26  1  0.03743012  0.14202149  0.99765186  1  0.096329  -0.000308  0.953858  0.0  0.108534  3.2e-05  1.017122  0.0  0.111573  1.8e-05  1.015709  0.0  0.096854  0.106235  2.7e-05  1.018784  0.0
H  H27  1  0.96256338  0.85797909  0.00234300  1  0.096366  -0.000303  0.953815  0.0  0.108584  3.3e-05  1.017074  0.0  0.111626  1.8e-05  1.015655  0.0  0.096888  0.106286  2.7e-05  1.018736  0.0
H  H28  1  0.20536589  0.11370596  0.34933329  1  0.098001  -0.000323  0.962163  0.0  0.110661  -3e-05  1.022639  0.0  0.113541  -2.4e-05  1.021532  0.0  0.098608  0.108322  -3.3e-05  1.02408  0.0
H  H29  1  0.79463074  0.88628958  0.65066650  1  0.097963  -0.000323  0.962191  0.0  0.110656  -3.1e-05  1.02261  0.0  0.113537  -2.4e-05  1.0215  0.0  0.098619  0.108315  -3.3e-05  1.024049  0.0
H  H30  1  0.30907754  0.85241689  0.99323658  1  0.118464  0.000774  0.96375  0.001  0.128834  0.000559  1.021295  0.001  0.131562  0.00038  1.0209  0.0  0.111352  0.126532  0.000726  1.022255  0.001
H  H31  1  0.69092352  0.14758482  0.00676496  1  0.118475  0.000768  0.963689  0.001  0.12884  0.000559  1.021255  0.001  0.131567  0.00038  1.020849  0.0  0.111347  0.126538  0.000726  1.022207  0.001
H  H32  1  0.48973351  0.85792372  0.39657066  1  0.099324  0.001419  0.959764  0.002  0.102935  0.001137  1.028239  0.002  0.10426  0.00076  1.02634  0.001  0.12292  0.101539  0.001461  1.02998  0.002
H  H33  1  0.51027957  0.14207712  0.60342882  1  0.099334  0.001419  0.959807  0.002  0.103057  0.001137  1.028034  0.002  0.104322  0.00076  1.026305  0.001  0.122936  0.101601  0.001461  1.029942  0.002
H  H34  1  0.41123708  0.39029172  0.97090581  1  0.09609  -0.000259  0.947628  0.0  0.109432  -4.1e-05  1.007809  0.0  0.11234  -3.3e-05  1.006669  0.0  0.099272  0.107399  -5.7e-05  1.008416  0.0
H  H35  1  0.58875976  0.60970992  0.02908603  1  0.096131  -0.000261  0.947677  0.0  0.109475  -4.1e-05  1.007844  0.0  0.112382  -3.3e-05  1.006708  0.0  0.099293  0.107442  -5.7e-05  1.008456  0.0
H  H36  1  0.21660097  0.68982021  0.21321816  1  0.106695  0.00137  0.946818  0.003  0.109489  0.001036  1.014583  0.002  0.111411  0.000656  1.011546  0.002  0.121479  0.107729  0.001347  1.017074  0.003
H  H37  1  0.78340009  0.31018557  0.78678762  1  0.106662  0.001368  0.946785  0.003  0.109504  0.001037  1.01442  0.002  0.111376  0.000655  1.011522  0.002  0.121433  0.107694  0.001347  1.017054  0.003
H  H38  1  0.01369113  0.95800698  0.35810305  1  0.156698  -0.000416  0.923144  0.0  0.170708  -0.000122  0.975893  0.0  0.173557  -9.7e-05  0.975085  0.0  0.112795  0.168661  -0.000134  0.976666  0.0
H  H39  1  0.98630783  0.04199673  0.64189576  1  0.156722  -0.00041  0.923069  0.0  0.170714  -0.000122  0.975844  0.0  0.173562  -9.8e-05  0.975039  0.0  0.11281  0.168665  -0.000134  0.976614  0.0
H  H40  1  0.96100892  0.94808443  0.20668418  1  0.137635  0.000996  0.93575  0.001  0.15254  0.000727  0.991278  0.001  0.154619  0.000468  0.990938  0.001  0.109337  0.151163  0.001002  0.991583  0.001
H  H41  1  0.03897902  0.05191609  0.79331806  1  0.137659  0.000998  0.93576  0.001  0.152543  0.000727  0.9913  0.001  0.154648  0.000468  0.990936  0.001  0.109323  0.151164  0.001002  0.991605  0.001
H  H42  1  0.21357414  0.25168550  0.76291990  1  0.141565  -8.4e-05  0.94445  0.0  0.154891  8e-06  1.001885  0.0  0.157307  1.1e-05  1.001469  0.0  0.107357  0.152819  1e-05  1.003085  0.0
H  H43  1  0.78642381  0.74831818  0.23707328  1  0.141545  -8.2e-05  0.944484  0.0  0.154859  7e-06  1.001919  0.0  0.157274  1e-05  1.001496  0.0  0.107355  0.152769  1e-05  1.003135  0.0
H  H44  1  0.35074339  0.36925506  0.76003523  1  0.156096  -2.7e-05  0.923147  0.0  0.168795  -4e-05  0.97875  0.0  0.171446  -5.5e-05  0.978056  0.0  0.115582  0.166791  -2.7e-05  0.979585  0.0
H  H45  1  0.64925228  0.63074656  0.23996184  1  0.156077  -2.8e-05  0.923176  0.0  0.168773  -4e-05  0.978778  0.0  0.171426  -5.4e-05  0.978073  0.0  0.115584  0.166772  -2.7e-05  0.979603  0.0
C  C46  1  0.31985981  0.25934180  0.16846983  1  0.16667  -0.001574  3.767268  -0.002  0.187196  -0.000714  4.007826  -0.001  0.190568  -0.000712  4.031781  -0.001  -0.008243  0.184646  -0.000413  3.991706  -0.001
C  C47  1  0.68014016  0.74065785  0.83152938  1  0.166732  -0.001585  3.767195  -0.002  0.187267  -0.000719  4.007724  -0.001  0.19064  -0.00071  4.031663  -0.001  -0.008238  0.184716  -0.000413  3.991589  -0.001
C  C48  1  0.51826410  0.95055115  0.18184195  1  -0.14793  0.009809  3.683017  0.011  -0.165717  0.004366  3.930068  0.006  -0.174461  0.003598  3.952072  0.005  -0.07722  -0.160128  0.004863  3.916099  0.006
C  C49  1  0.48175018  0.04945276  0.81815376  1  -0.147809  0.009863  3.683188  0.011  -0.165475  0.004366  3.930206  0.006  -0.174216  0.003598  3.952187  0.005  -0.077162  -0.159897  0.004863  3.916207  0.006
C  C50  1  0.44157184  0.29272610  0.22495786  1  -0.486416  0.013093  3.691618  0.014  -0.510199  0.005904  3.927001  0.006  -0.521426  0.003594  3.935859  0.004  -0.165305  -0.501901  0.007949  3.921379  0.008
C  C51  1  0.55843140  0.70727054  0.77503901  1  -0.486367  0.013077  3.69167  0.014  -0.510184  0.005906  3.927007  0.006  -0.52141  0.003595  3.935871  0.004  -0.165277  -0.501876  0.007947  3.921368  0.008
C  C52  1  0.11615657  0.17539270  0.04555076  1  -0.186955  0.008489  3.686389  0.008  -0.22287  0.000977  3.944544  0.001  -0.227458  0.000554  3.965378  0.001  -0.100904  -0.220364  0.001332  3.931317  0.001
C  C53  1  0.88383473  0.82460785  0.95444567  1  -0.187131  0.008467  3.686453  0.008  -0.223065  0.000979  3.944633  0.001  -0.227657  0.000554  3.965474  0.001  -0.101011  -0.220559  0.001332  3.931411  0.001
C  C54  1  0.20914327  0.16178642  0.24391117  1  -0.180033  0.006719  3.670368  0.006  -0.213761  0.000956  3.921231  0.001  -0.218623  0.000549  3.942798  0.001  -0.100998  -0.210495  0.001023  3.907473  0.001
C  C55  1  0.79085232  0.83821216  0.75608839  1  -0.180042  0.006726  3.670404  0.006  -0.213778  0.00096  3.921225  0.001  -0.218642  0.000549  3.942792  0.001  -0.101001  -0.210508  0.001023  3.90747  0.001
C  C56  1  0.10611899  0.12044820  0.18435457  1  0.150616  -0.004873  3.797741  -0.004  0.171795  -0.000656  4.039943  -0.001  0.173942  -0.000598  4.065279  0.0  -0.011851  0.170152  -0.000576  4.023515  -0.001
C  C57  1  0.89387885  0.87955040  0.81564046  1  0.150674  -0.004875  3.797714  -0.004  0.171864  -0.000661  4.039855  -0.001  0.17401  -0.000598  4.065215  0.0  -0.01183  0.170221  -0.000576  4.02344  -0.001
C  C58  1  0.22552606  0.27301543  0.96787768  1  0.153659  -0.00403  3.801069  -0.003  0.171618  -0.000592  4.046815  0.0  0.173903  -0.000561  4.071803  0.0  -0.01169  0.170316  -0.000626  4.029287  0.0
C  C59  1  0.77447064  0.72698418  0.03212142  1  0.153757  -0.004006  3.800978  -0.003  0.171667  -0.000594  4.046765  0.0  0.17395  -0.00056  4.071751  0.0  -0.011703  0.170365  -0.000626  4.029238  0.0
C  C60  1  0.35507998  0.85785082  0.07831819  1  -0.145095  0.010099  3.667856  0.012  -0.162778  0.004534  3.910943  0.006  -0.171693  0.003773  3.93322  0.005  -0.074673  -0.15695  0.005262  3.89672  0.007
C  C61  1  0.64492444  0.14215500  0.92168178  1  -0.145087  0.010158  3.66776  0.012  -0.162763  0.004535  3.910885  0.006  -0.171678  0.003773  3.933122  0.005  -0.074663  -0.156942  0.005262  3.896633  0.007
C  C62  1  0.46794846  0.95194505  0.06528555  1  0.098254  -0.011043  3.747004  -0.007  0.110692  -0.004542  3.973054  -0.003  0.114938  -0.005056  3.995123  -0.003  0.019712  0.107598  -0.00401  3.958287  -0.002
C  C63  1  0.53206140  0.04805880  0.93471331  1  0.09801  -0.011107  3.747075  -0.007  0.110419  -0.004545  3.973157  -0.003  0.114658  -0.005058  3.99519  -0.003  0.019646  0.107328  -0.004009  3.958348  -0.002
C  C64  1  0.45600883  0.85965217  0.30328878  1  0.136379  -0.011068  3.683009  -0.007  0.105942  -0.002662  3.945364  -0.001  0.11538  -0.004716  3.964294  -0.003  0.05184  0.09984  -0.001304  3.932722  0.0
C  C65  1  0.54400213  0.14035068  0.69670897  1  0.136319  -0.011131  3.683214  -0.007  0.105984  -0.00266  3.944792  -0.001  0.115248  -0.004716  3.964496  -0.003  0.051825  0.099714  -0.001303  3.93292  0.0
C  C66  1  0.32428939  0.31583161  0.03159938  1  -0.173633  0.004551  3.677312  0.004  -0.207666  0.000498  3.929874  0.001  -0.211765  0.000284  3.950205  0.0  -0.095357  -0.204171  0.001296  3.915266  0.001
C  C67  1  0.67570835  0.68416802  0.96840337  1  -0.173681  0.004553  3.677325  0.004  -0.207706  0.000499  3.929878  0.001  -0.211804  0.000283  3.950203  0.0  -0.095348  -0.204212  0.001296  3.915277  0.001
C  C68  1  0.30104203  0.76643729  0.20157392  1  0.135164  -0.01012  3.659355  -0.006  0.109403  -0.00192  3.915883  -0.001  0.119438  -0.003917  3.933243  -0.002  0.052444  0.102675  -0.000372  3.904409  0.001
C  C69  1  0.69896458  0.23356754  0.79842465  1  0.135214  -0.010171  3.659108  -0.006  0.109608  -0.001921  3.914934  -0.001  0.119486  -0.003918  3.932975  -0.002  0.052456  0.102723  -0.000372  3.904154  0.001
C  C70  1  0.98479081  0.01923156  0.26989182  1  -0.497285  0.005883  3.695099  0.006  -0.521467  0.003736  3.936263  0.004  -0.531329  0.002514  3.943915  0.003  -0.159645  -0.514163  0.005135  3.930973  0.005
C  C71  1  0.01520805  0.98076604  0.73010703  1  -0.497379  0.005872  3.695148  0.006  -0.521545  0.003738  3.936331  0.004  -0.531432  0.002514  3.944  0.003  -0.159649  -0.514241  0.005135  3.931073  0.005
C  C72  1  0.23897977  0.32977677  0.81757058  1  -0.506865  -4.6e-05  3.706726  0.0  -0.528488  -0.00018  3.948554  0.0  -0.538227  -0.000224  3.95628  0.0  -0.16578  -0.521814  -0.000145  3.943926  0.0
C  C73  1  0.76101585  0.67022283  0.18242782  1  -0.506806  -4.8e-05  3.706773  0.0  -0.528364  -0.00018  3.948547  0.0  -0.538106  -0.000225  3.956267  0.0  -0.165722  -0.521677  -0.000145  3.943932  0.0
N  N74  1  0.35120405  0.76833931  0.31186215  1  -0.289702  0.097549  3.352193  0.127  -0.252382  0.064096  3.655373  0.09  -0.285577  0.049221  3.678189  0.074  -0.347842  -0.230857  0.072188  3.641711  0.096
N  N75  1  0.64880796  0.23166050  0.68813484  1  -0.289711  0.097579  3.352183  0.127  -0.250989  0.064093  3.655376  0.09  -0.285577  0.049219  3.678217  0.074  -0.347887  -0.230853  0.072186  3.641749  0.096
O  O76  1  0.77037132  0.17819804  0.20601789  1  -0.762201  -0.000731  2.021589  0.0  -0.684735  -0.000553  2.253821  0.0  -0.707026  -0.000544  2.230274  0.0  -0.375592  -0.668905  -0.000393  2.271961  0.0
O  O77  1  0.22962412  0.82179954  0.79399073  1  -0.762211  -0.000732  2.021552  0.0  -0.684756  -0.000551  2.25386  0.0  -0.707032  -0.000542  2.230283  0.0  -0.37564  -0.668912  -0.000393  2.271964  0.0
O  O78  1  0.15298102  0.57851600  0.87546061  1  -0.84545  0.000663  2.014021  0.001  -0.75633  0.000118  2.251369  0.001  -0.78288  -0.000111  2.232115  0.0  -0.355466  -0.737497  0.000241  2.264421  0.001
O  O79  1  0.84700904  0.42148149  0.12454256  1  -0.845586  0.000663  2.013828  0.001  -0.756419  0.000118  2.251136  0.001  -0.782996  -0.00011  2.231945  0.0  -0.355559  -0.737594  0.000242  2.264215  0.001
O  O80  1  0.32146653  0.49263938  0.37185975  1  -0.834644  0.078021  1.997364  0.109  -0.803982  0.044671  2.301405  0.068  -0.841969  0.031645  2.281359  0.053  -0.386656  -0.774912  0.053607  2.315076  0.077
O  O81  1  0.67853232  0.50735720  0.62813829  1  -0.834671  0.078028  1.997367  0.109  -0.802445  0.044683  2.302445  0.068  -0.841961  0.031647  2.281371  0.053  -0.386666  -0.774894  0.053609  2.31508  0.077
O  O82  1  0.83803846  0.20136166  0.42948418  1  -0.848072  0.044371  2.037807  0.062  -0.797408  0.031815  2.334542  0.047  -0.833141  0.023725  2.314344  0.038  -0.371711  -0.772456  0.037913  2.347194  0.053
O  O83  1  0.16195723  0.79864914  0.57052121  1  -0.848109  0.04437  2.037712  0.062  -0.798885  0.031806  2.333535  0.047  -0.833236  0.023724  2.314215  0.038  -0.37178  -0.772583  0.037914  2.347116  0.053
O  O84  1  0.28518182  0.24855354  0.50013989  1  -0.793073  -0.000986  2.094638  -0.001  -0.702693  -0.00032  2.310461  0.0  -0.727826  -0.000315  2.285976  0.0  -0.389965  -0.685112  -0.000412  2.328239  0.0
O  O85  1  0.71482694  0.75144521  0.49985518  1  -0.79295  -0.000985  2.094603  -0.001  -0.702515  -0.000319  2.310408  0.0  -0.727657  -0.000315  2.285994  0.0  -0.389934  -0.684945  -0.000412  2.328252  0.0
O  O86  1  0.95648928  0.41133851  0.86623864  1  -0.750587  0.002808  1.982736  0.004  -0.675113  0.002205  2.203575  0.003  -0.696627  0.001505  2.179016  0.002  -0.38421  -0.659735  0.002991  2.220412  0.004
O  O87  1  0.04350188  0.58865696  0.13376162  1  -0.750515  0.002807  1.982718  0.004  -0.675013  0.002205  2.203493  0.003  -0.696525  0.001506  2.178919  0.002  -0.384112  -0.659634  0.002991  2.220315  0.004
O  O88  1  0.68727015  0.99781977  0.40819376  1  -0.750744  -0.000728  2.025226  0.0  -0.676719  -0.000386  2.260893  0.0  -0.697944  -0.000365  2.234974  0.0  -0.376602  -0.6617  -0.000298  2.278647  0.0
O  O89  1  0.31273722  0.00218613  0.59182804  1  -0.750837  -0.000727  2.025118  0.0  -0.676814  -0.000384  2.26068  0.0  -0.698034  -0.000364  2.234757  0.0  -0.376701  -0.661784  -0.000298  2.278422  0.0
O  O90  1  0.54035647  0.35716105  0.42900330  1  -0.873322  -0.002108  1.975902  0.001  -0.828778  -0.002478  2.273295  -0.001  -0.855771  -0.002808  2.244957  -0.001  -0.389082  -0.809494  -0.001972  2.290878  0.0
O  O91  1  0.45964674  0.64283763  0.57099718  1  -0.873253  -0.002111  1.976032  0.001  -0.830066  -0.002487  2.272139  -0.001  -0.855699  -0.002809  2.245095  -0.001  -0.389052  -0.809438  -0.001972  2.291009  0.0
O  O92  1  0.13311707  0.51705287  0.64305714  1  -0.876699  0.03426  2.093509  0.048  -0.805268  0.024983  2.378029  0.037  -0.838878  0.019217  2.354429  0.031  -0.37816  -0.780038  0.028957  2.394751  0.041
O  O93  1  0.86686974  0.48294662  0.35694655  1  -0.876816  0.034262  2.093558  0.048  -0.803825  0.024994  2.378965  0.037  -0.838912  0.019219  2.354494  0.031  -0.378083  -0.780037  0.028958  2.394791  0.041
O  O94  1  0.97310001  0.67876452  0.45217165  1  -0.786898  -0.000531  1.888127  0.0  -0.739453  -0.000882  2.07919  0.0  -0.756263  -0.00096  2.048932  0.0  -0.563923  -0.727008  -0.000777  2.100046  0.0
O  O95  1  0.02689199  0.32122590  0.54784004  1  -0.786761  -0.000534  1.888264  0.0  -0.739123  -0.000878  2.078724  0.0  -0.756213  -0.000961  2.048961  0.0  -0.563826  -0.726962  -0.000777  2.100074  0.0
