# generated using pymatgen
data_Ni3H48C74S3(NO5)4
_symmetry_space_group_name_H-M   'P 1'
_cell_length_a   13.95450922
_cell_length_b   14.58829434
_cell_length_c   21.36811690
_cell_angle_alpha   89.84920968
_cell_angle_beta   85.16872260
_cell_angle_gamma   62.61597867
_symmetry_Int_Tables_number   1
_chemical_formula_structural   Ni3H48C74S3(NO5)4
_chemical_formula_sum   'Ni6 H96 C148 S6 N8 O40'
_cell_volume   3845.59078670
_cell_formula_units_Z   2
loop_
 _symmetry_equiv_pos_site_id
 _symmetry_equiv_pos_as_xyz
  1  'x, y, z'
loop_
 _atom_site_type_symbol
 _atom_site_label
 _atom_site_symmetry_multiplicity
 _atom_site_fract_x
 _atom_site_fract_y
 _atom_site_fract_z
 _atom_site_occupancy
 _atom_site_pbe_bader_charge
 _atom_site_pbe_bader_spin_density
 _atom_site_pbe_cm5_charge
 _atom_site_pbe_ddec_charge
 _atom_site_pbe_ddec_spin_density
 _atom_site_pbe_ddec_sum_bond_order
 _atom_site_pbe_magmom
Ni  Ni0  1  0.78828817  0.04194044  0.10006188  1  1.168723  1.562334  0.663198  0.755445  1.763774  2.568534  1.541
Ni  Ni1  1  0.72255204  0.21274768  0.22996324  1  1.29669  1.636133  0.659029  1.057458  1.837708  2.221543  1.625
Ni  Ni2  1  0.56677039  0.26756111  0.38805500  1  1.168998  1.560365  0.65521  0.764971  1.764999  2.493387  1.543
Ni  Ni3  1  0.21171195  0.95805848  0.89993829  1  1.168717  1.562333  0.66321  0.755512  1.763774  2.568487  1.541
Ni  Ni4  1  0.27744841  0.78725202  0.77004019  1  1.296586  1.63614  0.659045  1.057516  1.837703  2.221514  1.625
Ni  Ni5  1  0.43323041  0.73243936  0.61194326  1  1.169102  1.560365  0.655243  0.76501  1.764993  2.493305  1.543
H  H6  1  0.10854364  0.44703085  0.81079704  1  0.126923  3.3e-05  0.112188  0.139528  -1e-05  1.023996  0.0
H  H7  1  0.22081290  0.54999950  0.64604636  1  0.159462  6e-06  0.109556  0.133403  -5.8e-05  1.063947  0.0
H  H8  1  0.33471092  0.22262676  0.67003643  1  0.050395  0.000134  0.100144  0.09768  6.8e-05  1.04406  0.0
H  H9  1  0.07374525  0.18565033  0.89840334  1  0.11604  0.001984  0.116761  0.087373  0.000625  1.012858  0.001
H  H10  1  0.06704253  0.33174024  0.83696586  1  0.139441  0.000793  0.108027  0.128955  0.000382  1.046047  0.0
H  H11  1  0.37682453  0.11790770  0.74055071  1  0.096055  0.001062  0.105479  0.112982  0.000489  1.019658  0.001
H  H12  1  0.36588679  0.98033434  0.80317115  1  0.123503  0.002175  0.117292  0.089046  0.000804  1.022255  0.001
H  H13  1  0.45987153  0.17479850  0.46770829  1  0.132322  0.002402  0.122731  0.100143  0.000855  0.988509  0.002
H  H14  1  0.35557756  0.20764757  0.57218530  1  0.058399  0.001088  0.10589  0.110954  0.000483  1.026553  0.0
H  H15  1  0.35980308  0.50209302  0.58203361  1  0.102279  0.000979  0.110535  0.123088  0.000447  1.031037  0.001
H  H16  1  0.45927464  0.45791633  0.47528448  1  0.104643  0.002376  0.119709  0.09182  0.00084  1.0048  0.002
H  H17  1  0.04241100  0.72101057  0.85010478  1  0.102593  4.1e-05  0.108737  0.118898  -3.4e-05  1.045987  0.0
H  H18  1  0.70271684  0.84798054  0.82146823  1  0.104066  0.00011  0.101641  0.102638  4.9e-05  1.036525  0.0
H  H19  1  0.94647726  0.60395719  0.69716633  1  0.104306  2.2e-05  0.110914  0.138901  -1.9e-05  1.010759  0.0
H  H20  1  0.47131912  0.89017038  0.68437926  1  0.099982  0.002029  0.117174  0.086081  0.000622  1.008584  0.001
H  H21  1  0.62062236  0.89541092  0.73537236  1  0.13166  0.000958  0.104304  0.119084  0.000454  1.030207  0.001
H  H22  1  0.80631015  0.56689469  0.69313823  1  0.092244  0.000852  0.103137  0.111233  0.000398  1.054632  0.0
H  H23  1  0.64986291  0.57686069  0.64035215  1  0.106677  0.001833  0.116514  0.089091  0.000552  1.003799  0.001
H  H24  1  0.96810295  0.93521063  0.00535056  1  0.137705  0.002479  0.123829  0.105376  0.000927  1.019815  0.002
H  H25  1  0.00887817  0.83293088  0.90758912  1  0.121098  0.000922  0.107251  0.110767  0.000328  1.043464  0.001
H  H26  1  0.66684215  0.92195297  0.91028348  1  0.080216  0.001116  0.106823  0.114931  0.000514  1.016794  0.001
H  H27  1  0.64077014  0.02136032  0.00998156  1  0.107874  0.002443  0.119175  0.094184  0.00089  1.005847  0.002
H  H28  1  0.43136982  0.59864281  0.37697937  1  0.124018  0.000251  0.102728  0.101064  0.000145  1.037403  0.0
H  H29  1  0.36811655  0.78427712  0.35064661  1  0.08245  0.000226  0.10979  0.115156  9.9e-05  0.993602  0.0
H  H30  1  0.54138403  0.68637590  0.16680727  1  0.099215  0.000165  0.110455  0.118318  7.9e-05  0.990055  0.0
H  H31  1  0.60343452  0.50019960  0.19418618  1  0.129625  9.2e-05  0.110984  0.121224  8e-06  1.00311  0.0
H  H32  1  0.19073024  0.02565597  0.29659723  1  0.113927  8.2e-05  0.113155  0.123099  4.2e-05  0.982612  0.0
H  H33  1  0.00294947  0.08428259  0.26311957  1  0.152707  0.000281  0.110903  0.13003  0.000191  1.009271  0.0
H  H34  1  0.13811030  0.86606395  0.10564119  1  0.099504  0.000548  0.107589  0.11209  0.000372  1.021642  0.0
H  H35  1  0.32478945  0.80913122  0.13714568  1  0.087586  5.8e-05  0.112905  0.118236  2.4e-05  0.983516  0.0
H  H36  1  0.70194911  0.92341667  0.41906935  1  0.099183  0.000636  0.1074  0.112155  0.000447  0.999952  0.0
H  H37  1  0.84586474  0.73744173  0.40811377  1  0.089793  4.8e-05  0.10812  0.110523  2.6e-05  1.006711  0.0
H  H38  1  0.02986472  0.82045959  0.26794291  1  0.092972  6.1e-05  0.106741  0.110293  1.6e-05  1.010047  0.0
H  H39  1  0.88425065  0.00491327  0.27848397  1  0.150389  0.000308  0.10824  0.118811  0.00014  1.065565  0.0
H  H40  1  0.03590260  0.58763602  0.46345188  1  0.08416  0.000183  0.109346  0.11694  8.6e-05  0.992025  0.0
H  H41  1  0.11251438  0.62034446  0.55848587  1  0.104032  1.8e-05  0.108466  0.11341  -2.4e-05  1.003162  0.0
H  H42  1  0.28891656  0.74244327  0.44256898  1  0.087625  0.000285  0.108339  0.114153  0.00017  1.004703  0.0
H  H43  1  0.21155185  0.71221210  0.34655436  1  0.108916  1.8e-05  0.106029  0.110124  8e-06  1.0093  0.0
H  H44  1  0.78007186  0.43248033  0.13245528  1  0.078562  0.000238  0.106478  0.109759  0.000126  1.019403  0.0
H  H45  1  0.82826613  0.54974630  0.06519762  1  0.103075  0.00019  0.110049  0.116014  9.3e-05  0.995626  0.0
H  H46  1  0.88129736  0.35237049  0.90247546  1  0.097058  0.000247  0.111068  0.115763  0.000124  0.993592  0.0
H  H47  1  0.83656978  0.23403883  0.97113259  1  0.098348  0.000215  0.105419  0.108878  8.7e-05  1.024801  0.0
H  H48  1  0.71423036  0.73338493  0.98318166  1  0.079058  9.1e-05  0.10973  0.117269  3.6e-05  0.996923  0.0
H  H49  1  0.52571947  0.84323517  0.95273981  1  0.072531  0.000333  0.10598  0.10877  0.000206  1.010567  0.0
H  H50  1  0.58516767  0.63262100  0.79726605  1  0.11944  0.0  0.110379  0.121913  -7.9e-05  0.994753  0.0
H  H51  1  0.77463966  0.52159630  0.82668253  1  0.130082  0.000188  0.110719  0.12266  9.2e-05  0.996139  0.0
H  H52  1  0.84351375  0.29002867  0.25401776  1  0.626276  -0.000411  0.303215  0.377191  -0.000231  0.955823  0.0
H  H53  1  0.80965396  0.25718223  0.31844729  1  0.672166  1.9e-05  0.290045  0.391836  0.000244  0.951687  0.0
H  H54  1  0.89145614  0.55296730  0.18920316  1  0.126901  3.3e-05  0.112168  0.139474  -1e-05  1.024017  0.0
H  H55  1  0.77918722  0.44999942  0.35395334  1  0.159472  6e-06  0.109558  0.133406  -5.8e-05  1.063917  0.0
H  H56  1  0.66528991  0.77737216  0.32996417  1  0.050037  0.000134  0.10012  0.097663  6.8e-05  1.044056  0.0
H  H57  1  0.92625667  0.81434782  0.10159861  1  0.116089  0.001984  0.11674  0.087344  0.000625  1.012838  0.001
H  H58  1  0.93295833  0.66825713  0.16303614  1  0.139419  0.000793  0.108045  0.128967  0.000382  1.046021  0.0
H  H59  1  0.62317234  0.88209198  0.25945057  1  0.095976  0.001062  0.105438  0.112906  0.000489  1.019714  0.001
H  H60  1  0.63411258  0.01966612  0.19682813  1  0.123496  0.002175  0.117283  0.089027  0.000805  1.022294  0.001
H  H61  1  0.54012678  0.82520118  0.53229057  1  0.132359  0.002402  0.122722  0.100139  0.000855  0.988469  0.002
H  H62  1  0.64442260  0.79234980  0.42781393  1  0.058402  0.001088  0.105923  0.110998  0.000483  1.026516  0.0
H  H63  1  0.64019851  0.49790436  0.41796602  1  0.102223  0.000979  0.110522  0.123125  0.000447  1.031041  0.001
H  H64  1  0.54072409  0.54208104  0.52471530  1  0.104529  0.002377  0.119724  0.091806  0.00084  1.004853  0.002
H  H65  1  0.95759158  0.27899068  0.14989479  1  0.102719  4.1e-05  0.108729  0.118908  -3.4e-05  1.045973  0.0
H  H66  1  0.29728475  0.15201684  0.17853373  1  0.104032  0.00011  0.101609  0.102681  4.9e-05  1.036478  0.0
H  H67  1  0.05352432  0.39604019  0.30283564  1  0.104413  2.2e-05  0.110904  0.138878  -1.9e-05  1.010721  0.0
H  H68  1  0.52868209  0.10982777  0.31562226  1  0.09993  0.002029  0.117161  0.086063  0.000622  1.008634  0.001
H  H69  1  0.37937813  0.10458723  0.26462920  1  0.131798  0.000958  0.104316  0.119078  0.000454  1.030222  0.001
H  H70  1  0.19369178  0.43310346  0.30686184  1  0.092279  0.000852  0.10314  0.111248  0.000398  1.05463  0.0
H  H71  1  0.35013933  0.42313979  0.35964603  1  0.106671  0.001833  0.116499  0.089066  0.000552  1.003801  0.001
H  H72  1  0.03189747  0.06479061  0.99465147  1  0.137766  0.002479  0.123844  0.105358  0.000927  1.019864  0.002
H  H73  1  0.99112225  0.16707036  0.09241244  1  0.121098  0.000922  0.107237  0.110746  0.000328  1.04346  0.001
H  H74  1  0.33316046  0.07804673  0.08971609  1  0.080178  0.001116  0.106821  0.114924  0.000514  1.016819  0.001
H  H75  1  0.35923138  0.97864016  0.99001713  1  0.107791  0.002443  0.119207  0.094249  0.00089  1.005903  0.002
H  H76  1  0.56863235  0.40136077  0.62301928  1  0.123892  0.000251  0.102749  0.1011  0.000145  1.037381  0.0
H  H77  1  0.63188312  0.21572567  0.64935124  1  0.082443  0.000226  0.109786  0.115142  9.9e-05  0.993679  0.0
H  H78  1  0.45861708  0.31362690  0.83319051  1  0.099288  0.000165  0.110437  0.118334  7.9e-05  0.990068  0.0
H  H79  1  0.39656803  0.49980320  0.80581246  1  0.129459  9.2e-05  0.110983  0.121226  8e-06  1.003134  0.0
H  H80  1  0.80926656  0.97434681  0.70340312  1  0.113968  8.2e-05  0.113134  0.123088  4.2e-05  0.982465  0.0
H  H81  1  0.99704362  0.91572482  0.73688378  1  0.152831  0.000281  0.110887  0.13  0.000191  1.009263  0.0
H  H82  1  0.86188287  0.13394036  0.89436122  1  0.099617  0.000548  0.107574  0.112071  0.000372  1.02165  0.0
H  H83  1  0.67520410  0.19087232  0.86285578  1  0.087475  5.8e-05  0.112896  0.118221  2.4e-05  0.983529  0.0
H  H84  1  0.29805003  0.07657837  0.58092948  1  0.099152  0.000636  0.10743  0.112208  0.000446  0.999913  0.0
H  H85  1  0.15413795  0.26255488  0.59188487  1  0.089785  4.8e-05  0.108111  0.110518  2.6e-05  1.006817  0.0
H  H86  1  0.97013351  0.17954320  0.73205736  1  0.09239  6.1e-05  0.106739  0.110293  1.6e-05  1.010033  0.0
H  H87  1  0.11574584  0.99508718  0.72151687  1  0.150429  0.000308  0.108221  0.118811  0.00014  1.065593  0.0
H  H88  1  0.96409821  0.41236445  0.53654685  1  0.084105  0.000183  0.109355  0.116944  8.6e-05  0.991992  0.0
H  H89  1  0.88748688  0.37965214  0.44151284  1  0.103996  1.8e-05  0.108483  0.113393  -2.4e-05  1.003196  0.0
H  H90  1  0.71109375  0.25754950  0.55743112  1  0.087599  0.000285  0.108331  0.114143  0.00017  1.004631  0.0
H  H91  1  0.78845555  0.28778220  0.65344496  1  0.108933  1.8e-05  0.106036  0.110109  8e-06  1.009404  0.0
H  H92  1  0.21992539  0.56751858  0.86754411  1  0.078542  0.000238  0.106489  0.10979  0.000126  1.019364  0.0
H  H93  1  0.17172972  0.45025105  0.93480185  1  0.102935  0.00019  0.11004  0.116017  9.3e-05  0.995551  0.0
H  H94  1  0.11870310  0.64762921  0.09752469  1  0.097052  0.000247  0.111046  0.115697  0.000124  0.993691  0.0
H  H95  1  0.16343215  0.76595932  0.02886655  1  0.098309  0.000215  0.105428  0.108906  8.7e-05  1.024763  0.0
H  H96  1  0.28576863  0.26661631  0.01681810  1  0.079054  9.1e-05  0.109759  0.117332  3.6e-05  0.996904  0.0
H  H97  1  0.47428024  0.15676607  0.04725804  1  0.072334  0.000333  0.105973  0.108793  0.000206  1.010525  0.0
H  H98  1  0.41483094  0.36738101  0.20273327  1  0.119448  0.0  0.11037  0.121856  -7.9e-05  0.994817  0.0
H  H99  1  0.22535857  0.47840649  0.17331680  1  0.130113  0.000188  0.110693  0.122632  9.2e-05  0.996177  0.0
H  H100  1  0.15648633  0.70997180  0.74598288  1  0.626236  -0.000411  0.303226  0.377188  -0.000231  0.955848  0.0
H  H101  1  0.19034536  0.74281978  0.68155385  1  0.672185  1.9e-05  0.290095  0.391885  0.000244  0.951619  0.0
C  C102  1  0.22162751  0.32361027  0.74430950  1  0.009091  0.001108  -0.005882  0.084819  0.000484  4.010255  0.001
C  C103  1  0.15849220  0.42675291  0.76604780  1  -0.047578  -0.002934  -0.08663  -0.224767  -0.003208  3.898706  -0.002
C  C104  1  0.16217638  0.50470182  0.72998455  1  0.338527  0.000757  0.086043  0.274035  0.000423  4.044988  0.001
C  C105  1  0.22318242  0.48477903  0.67225615  1  0.023922  -0.002956  -0.089922  -0.225471  -0.003245  3.899021  -0.002
C  C106  1  0.28505359  0.38200951  0.64955845  1  0.003015  0.001146  -0.005477  0.085543  0.000494  4.008813  0.001
C  C107  1  0.28497481  0.30259736  0.68654622  1  -0.00875  -0.002897  -0.086593  -0.181344  -0.003146  3.938551  -0.002
C  C108  1  0.13887777  0.17415026  0.86246249  1  0.447987  -0.004691  0.042618  0.094356  -0.005546  3.949571  -0.003
C  C109  1  0.13613813  0.25566092  0.82782564  1  -0.029878  0.00562  -0.085068  -0.176057  0.003152  3.923985  0.004
C  C110  1  0.22149296  0.23869207  0.78191147  1  -0.02852  -0.00648  0.012291  0.111453  -0.007094  3.968604  -0.004
C  C111  1  0.30598265  0.13732897  0.77369678  1  -0.007884  0.006187  -0.083362  -0.166196  0.00344  3.942897  0.005
C  C112  1  0.30189123  0.05963671  0.80956628  1  0.443786  -0.00322  0.045702  0.10156  -0.003652  3.933292  -0.002
C  C113  1  0.43434649  0.24698706  0.49452310  1  0.466297  -0.004217  0.049108  0.093202  -0.004883  3.945822  -0.003
C  C114  1  0.37692680  0.26591662  0.55328831  1  -0.019838  0.006576  -0.085544  -0.176858  0.003657  3.948541  0.005
C  C115  1  0.34690890  0.35899765  0.58716375  1  -0.007749  -0.007477  0.013312  0.112539  -0.008188  3.969872  -0.005
C  C116  1  0.37765026  0.42936891  0.55823962  1  -0.002911  0.006634  -0.081521  -0.173153  0.00371  3.933794  0.005
C  C117  1  0.43456662  0.40497419  0.49910032  1  0.462026  -0.004877  0.049438  0.094088  -0.005647  3.934404  -0.003
C  C118  1  0.00270262  0.66006799  0.77222824  1  0.420668  0.000984  0.087764  0.273993  0.000612  4.051874  0.001
C  C119  1  0.97609207  0.72609337  0.82463578  1  -0.018818  -0.002865  -0.089926  -0.221677  -0.003136  3.926343  -0.002
C  C120  1  0.86783905  0.79508301  0.84356804  1  0.079569  0.001273  -0.005686  0.084254  0.000553  4.020724  0.001
C  C121  1  0.78775983  0.79563323  0.80799373  1  -0.092465  -0.002893  -0.087396  -0.184444  -0.003129  3.936329  -0.002
C  C122  1  0.81466135  0.72748516  0.75568814  1  0.023908  0.001046  -0.004265  0.087386  0.000442  4.008165  0.001
C  C123  1  0.92367636  0.65742459  0.73770146  1  -0.042325  -0.003026  -0.087905  -0.227322  -0.003323  3.890052  -0.002
C  C124  1  0.54679245  0.81987089  0.68720355  1  0.484541  -0.003618  0.047998  0.112114  -0.004199  3.944301  -0.002
C  C125  1  0.63068546  0.82180147  0.71667993  1  -0.047177  0.00614  -0.08456  -0.174071  0.003444  3.927959  0.005
C  C126  1  0.72706485  0.73011556  0.72046265  1  -0.047124  -0.006676  0.011975  0.110575  -0.007305  3.982946  -0.004
C  C127  1  0.73433844  0.64075636  0.69133590  1  -0.002422  0.005703  -0.085892  -0.173396  0.00318  3.940702  0.004
C  C128  1  0.64695191  0.64553433  0.66235995  1  0.466075  -0.004736  0.043973  0.090208  -0.00555  3.951046  -0.003
C  C129  1  0.90357843  0.92955400  0.98322999  1  0.485099  -0.003842  0.045943  0.088025  -0.004487  3.933133  -0.002
C  C130  1  0.92548899  0.87123633  0.92813918  1  -0.074631  0.007552  -0.080958  -0.15956  0.004173  3.942615  0.006
C  C131  1  0.84241022  0.86285860  0.90014736  1  -0.011187  -0.007673  0.016742  0.115184  -0.008406  3.959773  -0.005
C  C132  1  0.73701374  0.92103166  0.92955692  1  0.005763  0.007061  -0.081416  -0.171722  0.003959  3.943739  0.006
C  C133  1  0.72104633  0.97734876  0.98524110  1  0.439715  -0.004514  0.046679  0.091137  -0.005341  3.934546  -0.003
C  C134  1  0.55966627  0.42709962  0.30271005  1  1.597397  0.000233  0.21671  0.578119  0.00022  4.181946  0.001
C  C135  1  0.52065009  0.53915187  0.28699098  1  -0.037279  0.014006  -0.005613  -0.01017  0.008254  3.910903  0.011
C  C136  1  0.45429162  0.61876479  0.33106626  1  -0.014305  0.000196  -0.080908  -0.089139  -0.000286  3.967387  0.0
C  C137  1  0.41879010  0.72174027  0.31644029  1  -0.050708  0.000689  -0.083546  -0.098251  0.000318  3.986375  0.001
C  C138  1  0.45039328  0.74456402  0.25703466  1  -0.208921  -0.0014  -0.022416  -0.08211  -0.001528  3.994659  -0.001
C  C139  1  0.51701650  0.66620359  0.21243674  1  -0.00734  0.000829  -0.080575  -0.092285  0.000422  3.981658  0.001
C  C140  1  0.55186629  0.56348082  0.22771371  1  -0.036844  -0.000366  -0.074169  -0.076436  -0.000784  3.923207  0.0
C  C141  1  0.26694294  0.91417299  0.21908282  1  -0.219762  -0.001229  -0.019474  -0.077299  -0.001346  3.984264  -0.001
C  C142  1  0.17792770  0.99033886  0.25535139  1  -0.048685  0.000684  -0.077903  -0.08917  0.000319  3.962811  0.001
C  C143  1  0.07365251  0.02214946  0.23703846  1  -0.009127  -8e-06  -0.073026  -0.076514  -0.00036  3.902458  0.0
C  C144  1  0.05999972  0.97664422  0.18311966  1  -0.025382  0.004619  -0.008632  -0.02141  0.002774  3.940315  0.003
C  C145  1  0.15079191  0.89902195  0.14782600  1  -0.085951  0.000582  -0.077349  -0.081781  0.000161  3.949465  0.0
C  C146  1  0.25432017  0.86768845  0.16527233  1  0.04148  0.000437  -0.081477  -0.092925  0.00013  3.994792  0.0
C  C147  1  0.95182308  0.00901205  0.15908946  1  1.542045  -0.000455  0.209657  0.562419  -0.001464  4.156043  0.0
C  C148  1  0.70035254  0.08368995  0.35748523  1  1.537475  -0.001784  0.208577  0.561398  -0.002629  4.153818  -0.001
C  C149  1  0.78514697  0.97395604  0.34891674  1  0.058992  0.003267  -0.007052  -0.011236  0.001967  3.948659  0.002
C  C150  1  0.77358825  0.89909094  0.38570892  1  -0.039801  2.7e-05  -0.078643  -0.089596  -0.000246  3.952894  0.0
C  C151  1  0.85327369  0.79674961  0.38007218  1  -0.004888  0.000494  -0.082925  -0.098121  0.000157  4.004228  0.0
C  C152  1  0.94460876  0.77013332  0.33739721  1  -0.226022  -0.001568  -0.017242  -0.072573  -0.001709  3.977893  -0.001
C  C153  1  0.95759054  0.84357795  0.30061893  1  -0.051914  0.000544  -0.079691  -0.086391  0.0002  3.969513  0.0
C  C154  1  0.87717618  0.94589818  0.30672021  1  -0.064031  5.9e-05  -0.076902  -0.07873  -0.000459  3.913464  0.0
C  C155  1  0.11919670  0.64925552  0.40053845  1  -0.269239  -0.000772  -0.024219  -0.08504  -0.000836  3.99465  0.0
C  C156  1  0.09113554  0.62166332  0.45938568  1  0.027348  0.000616  -0.083607  -0.094717  0.000323  3.990509  0.0
C  C157  1  0.13395473  0.63949193  0.51182330  1  -0.043911  0.000206  -0.078483  -0.083242  -0.000144  3.956732  0.0
C  C158  1  0.20443480  0.68384609  0.50556101  1  0.009142  0.006665  -0.008062  -0.017778  0.003888  3.935116  0.005
C  C159  1  0.23333853  0.70880751  0.44598959  1  -0.015307  -0.000409  -0.07797  -0.085932  -0.000553  3.949067  0.0
C  C160  1  0.19053060  0.69224340  0.39311499  1  -0.033545  -7e-05  -0.083011  -0.09311  -0.000123  3.985484  0.0
C  C161  1  0.24848383  0.70455313  0.56324015  1  1.580065  0.00035  0.209231  0.570434  5.1e-05  4.220583  0.0
C  C162  1  0.78239074  0.25275447  0.09540493  1  1.5738  -0.001119  0.211798  0.572505  -0.001186  4.188597  0.0
C  C163  1  0.80485427  0.32713876  0.05515236  1  -0.000938  0.014922  -0.011087  -0.024249  0.008871  3.94331  0.012
C  C164  1  0.80149159  0.41626633  0.08205202  1  -0.007291  -0.000654  -0.079126  -0.086592  -0.001012  3.942938  0.0
C  C165  1  0.82759300  0.48162083  0.04488792  1  -0.012447  0.000843  -0.077263  -0.078872  0.000408  3.964227  0.001
C  C166  1  0.85618019  0.45730964  0.98062193  1  -0.169316  -0.001875  -0.015423  -0.061724  -0.002043  3.967633  -0.001
C  C167  1  0.85906804  0.36933180  0.95280843  1  -0.116504  0.001044  -0.080917  -0.093058  0.000537  3.978672  0.001
C  C168  1  0.83374981  0.30424141  0.99055446  1  0.014539  -0.000286  -0.079144  -0.085115  -0.00076  3.958665  0.0
C  C169  1  0.75291462  0.62203825  0.90685739  1  -0.286471  -0.000721  -0.019276  -0.0776  -0.000812  3.993321  0.0
C  C170  1  0.68482579  0.71191099  0.94289518  1  0.026201  0.000194  -0.085221  -0.101519  1.7e-05  4.011722  0.0
C  C171  1  0.58107521  0.77282958  0.92564295  1  -0.019851  0.000368  -0.080741  -0.089085  -0.000151  3.969476  0.0
C  C172  1  0.54553707  0.74417133  0.87309985  1  -0.017325  0.010432  -0.009272  -0.014236  0.006114  3.928234  0.008
C  C173  1  0.61472578  0.65344910  0.83773793  1  0.016902  0.000375  -0.073793  -0.074519  -3.8e-05  3.922327  0.0
C  C174  1  0.71930526  0.59159023  0.85440307  1  -0.010229  0.000843  -0.078089  -0.090954  0.000437  3.962414  0.001
C  C175  1  0.43181634  0.81046157  0.85693413  1  1.557809  0.001302  0.21602  0.58284  0.00096  4.1837  0.001
C  C176  1  0.77837442  0.67638788  0.25569104  1  0.008851  0.001108  -0.005892  0.084776  0.000484  4.010295  0.001
C  C177  1  0.84150939  0.57324447  0.23395183  1  -0.047561  -0.002934  -0.086571  -0.224596  -0.003208  3.898558  -0.002
C  C178  1  0.83782592  0.49529557  0.27001597  1  0.337732  0.000757  0.086007  0.273987  0.000423  4.044967  0.001
C  C179  1  0.77682238  0.51521914  0.32774424  1  0.024274  -0.002956  -0.089903  -0.225456  -0.003245  3.899002  -0.002
C  C180  1  0.71494800  0.61798787  0.35044165  1  0.003372  0.001146  -0.005491  0.085548  0.000494  4.008703  0.001
C  C181  1  0.71502712  0.69740079  0.31345385  1  -0.008297  -0.002897  -0.086546  -0.181282  -0.003146  3.938465  -0.002
C  C182  1  0.86112419  0.82584635  0.13753899  1  0.447943  -0.004691  0.042602  0.094271  -0.005546  3.949309  -0.003
C  C183  1  0.86386237  0.74433722  0.17217545  1  -0.029928  0.00562  -0.08503  -0.176058  0.003152  3.923869  0.004
C  C184  1  0.77850682  0.76130607  0.21808872  1  -0.028523  -0.00648  0.012308  0.111509  -0.007095  3.968495  -0.004
C  C185  1  0.69401456  0.86267149  0.22630401  1  -0.007518  0.006187  -0.083322  -0.166128  0.00344  3.942876  0.005
C  C186  1  0.69810855  0.94036143  0.19043345  1  0.443469  -0.003219  0.045647  0.101456  -0.003651  3.933454  -0.002
C  C187  1  0.56565148  0.75301185  0.50547625  1  0.466285  -0.004218  0.049091  0.093119  -0.004884  3.945628  -0.003
C  C188  1  0.62307184  0.73408384  0.44671241  1  -0.019851  0.006575  -0.085535  -0.176811  0.003656  3.948461  0.005
C  C189  1  0.65309084  0.64100205  0.41283691  1  -0.007821  -0.007479  0.013232  0.112409  -0.00819  3.969877  -0.005
C  C190  1  0.62235061  0.57062846  0.44175958  1  -0.0029  0.006635  -0.081524  -0.173293  0.00371  3.933933  0.005
C  C191  1  0.56543497  0.59502318  0.50089978  1  0.462173  -0.004878  0.049506  0.094241  -0.005648  3.934368  -0.003
C  C192  1  0.99729817  0.33993248  0.22777283  1  0.420669  0.000984  0.087831  0.274026  0.000612  4.051791  0.001
C  C193  1  0.02390942  0.27390866  0.17536338  1  -0.018843  -0.002866  -0.08991  -0.221672  -0.003136  3.926301  -0.002
C  C194  1  0.13216391  0.20491747  0.15643244  1  0.079586  0.001273  -0.005679  0.084285  0.000553  4.020641  0.001
C  C195  1  0.21224247  0.20436415  0.19200820  1  -0.092424  -0.002893  -0.087327  -0.184496  -0.003129  3.936269  -0.002
C  C196  1  0.18533952  0.27251221  0.24431386  1  0.023856  0.001046  -0.004277  0.087338  0.000442  4.008295  0.001
C  C197  1  0.07632379  0.34257278  0.26229964  1  -0.04245  -0.003026  -0.087962  -0.227307  -0.003323  3.890143  -0.002
C  C198  1  0.45320948  0.18012726  0.31279652  1  0.484523  -0.003618  0.047977  0.112102  -0.0042  3.944332  -0.002
C  C199  1  0.36931647  0.17819668  0.28331968  1  -0.047368  0.006141  -0.08456  -0.174033  0.003444  3.927804  0.005
C  C200  1  0.27293636  0.26988259  0.27953840  1  -0.047121  -0.006676  0.011981  0.110575  -0.007306  3.982823  -0.004
C  C201  1  0.26566277  0.35924179  0.30866468  1  -0.00251  0.005703  -0.0859  -0.173412  0.00318  3.940652  0.004
C  C202  1  0.35305070  0.35446538  0.33764009  1  0.46623  -0.004736  0.044045  0.090319  -0.005551  3.950899  -0.003
C  C203  1  0.09642309  0.07044647  0.01677104  1  0.485294  -0.003842  0.045962  0.088146  -0.004486  3.933138  -0.002
C  C204  1  0.07451218  0.12876336  0.07186281  1  -0.074555  0.007553  -0.080933  -0.159595  0.004174  3.942621  0.006
C  C205  1  0.15759130  0.13714188  0.09985320  1  -0.01127  -0.007672  0.016733  0.115244  -0.008405  3.95975  -0.005
C  C206  1  0.26298705  0.07896881  0.07044369  1  0.005744  0.007061  -0.081419  -0.171731  0.003959  3.943791  0.006
C  C207  1  0.27895556  0.02265094  0.01475944  1  0.439753  -0.004513  0.046575  0.090931  -0.00534  3.934748  -0.003
C  C208  1  0.44033374  0.57290395  0.69728872  1  1.59741  0.000234  0.216609  0.577909  0.000221  4.182027  0.001
C  C209  1  0.47935135  0.46085171  0.71300818  1  -0.037096  0.014006  -0.00563  -0.010129  0.008254  3.910815  0.011
C  C210  1  0.54571127  0.38123878  0.66893235  1  -0.013952  0.000196  -0.08084  -0.089066  -0.000286  3.967077  0.0
C  C211  1  0.58120920  0.27826329  0.68355805  1  -0.050784  0.00069  -0.083593  -0.09836  0.000318  3.986209  0.001
C  C212  1  0.54960533  0.25543799  0.74296512  1  -0.20921  -0.0014  -0.022451  -0.08206  -0.001528  3.994735  -0.001
C  C213  1  0.48298389  0.33379920  0.78756154  1  -0.007239  0.000829  -0.080527  -0.09234  0.000422  3.981684  0.001
C  C214  1  0.44813406  0.43652353  0.77228504  1  -0.036896  -0.000367  -0.074159  -0.076428  -0.000785  3.923259  0.0
C  C215  1  0.73305239  0.08583132  0.78091620  1  -0.219983  -0.001229  -0.019527  -0.077362  -0.001346  3.984224  -0.001
C  C216  1  0.82206868  0.00966624  0.74464944  1  -0.048672  0.000684  -0.077851  -0.089123  0.000319  3.962597  0.001
C  C217  1  0.92634209  0.97785486  0.76296293  1  -0.009027  -8e-06  -0.072931  -0.076395  -0.00036  3.902324  0.0
C  C218  1  0.93999704  0.02336011  0.81688256  1  -0.032307  0.004623  -0.00874  -0.021563  0.002774  3.940354  0.003
C  C219  1  0.84920239  0.10098004  0.85217635  1  -0.079184  0.000579  -0.077292  -0.08173  0.000161  3.949397  0.0
C  C220  1  0.74567519  0.13231432  0.83472809  1  0.041544  0.000437  -0.081505  -0.092946  0.00013  3.994709  0.0
C  C221  1  0.04817084  0.99099071  0.84091244  1  1.541943  -0.000454  0.209649  0.562457  -0.001463  4.15612  0.0
C  C222  1  0.29964686  0.91630897  0.64251592  1  1.536956  -0.001781  0.208542  0.561389  -0.002628  4.153936  -0.001
C  C223  1  0.21485028  0.02604286  0.65108265  1  0.059096  0.003267  -0.007042  -0.011193  0.001967  3.94868  0.002
C  C224  1  0.22640976  0.10090642  0.61428903  1  -0.039731  2.7e-05  -0.078675  -0.08968  -0.000246  3.952869  0.0
C  C225  1  0.14672718  0.20324776  0.61992655  1  -0.0048  0.000493  -0.082946  -0.09819  0.000157  4.004452  0.0
C  C226  1  0.05539313  0.22986638  0.66260240  1  -0.226072  -0.001568  -0.017212  -0.072431  -0.001709  3.977857  -0.001
C  C227  1  0.04240811  0.15642251  0.69938039  1  -0.051354  0.000544  -0.079711  -0.086417  0.0002  3.969582  0.0
C  C228  1  0.12282175  0.05410228  0.69328055  1  -0.064087  5.9e-05  -0.076872  -0.078736  -0.000459  3.913561  0.0
C  C229  1  0.88080886  0.35074110  0.59945957  1  -0.269441  -0.000773  -0.024233  -0.084974  -0.000836  3.994418  0.0
C  C230  1  0.90886417  0.37833792  0.54061310  1  0.027623  0.000616  -0.083574  -0.094714  0.000323  3.990453  0.0
C  C231  1  0.86604758  0.36050545  0.48817582  1  -0.044389  0.000206  -0.078516  -0.083178  -0.000145  3.95689  0.0
C  C232  1  0.79557045  0.31614821  0.49443889  1  0.009781  0.006664  -0.008046  -0.017885  0.003888  3.93515  0.005
C  C233  1  0.76666815  0.29118680  0.55401164  1  -0.015025  -0.000409  -0.078055  -0.085986  -0.000554  3.949166  0.0
C  C234  1  0.80947684  0.30774936  0.60688527  1  -0.033893  -7e-05  -0.082964  -0.09304  -0.000123  3.985489  0.0
C  C235  1  0.75151848  0.29544425  0.43675944  1  1.579766  0.000349  0.209184  0.570379  5e-05  4.220472  0.0
C  C236  1  0.21760791  0.74724599  0.90459579  1  1.573815  -0.00112  0.211832  0.5726  -0.001187  4.188566  0.0
C  C237  1  0.19514407  0.67285938  0.94484838  1  -0.000904  0.014922  -0.010993  -0.024232  0.008872  3.943292  0.012
C  C238  1  0.19850566  0.58373258  0.91794690  1  -0.007234  -0.000654  -0.07915  -0.086575  -0.001012  3.942907  0.0
C  C239  1  0.17240429  0.51837653  0.95511053  1  -0.012454  0.000843  -0.077336  -0.078966  0.000408  3.964251  0.001
C  C240  1  0.14381883  0.54269005  0.01937783  1  -0.169275  -0.001874  -0.015418  -0.061709  -0.002043  3.967657  -0.001
C  C241  1  0.14092955  0.63066788  0.04719141  1  -0.116467  0.001044  -0.080884  -0.093  0.000537  3.978659  0.001
C  C242  1  0.16624959  0.69575750  0.00944575  1  0.014554  -0.000286  -0.079174  -0.085143  -0.00076  3.958591  0.0
C  C243  1  0.24708474  0.37796221  0.09314188  1  -0.286433  -0.000722  -0.019286  -0.077684  -0.000812  3.993517  0.0
C  C244  1  0.31517218  0.28808792  0.05710511  1  0.026168  0.000194  -0.085232  -0.101526  1.7e-05  4.011862  0.0
C  C245  1  0.41892521  0.22717166  0.07435533  1  -0.01962  0.000368  -0.080681  -0.089059  -0.000151  3.969505  0.0
C  C246  1  0.45446411  0.25582837  0.12689839  1  -0.01735  0.010432  -0.009282  -0.014234  0.006115  3.928206  0.008
C  C247  1  0.38527393  0.34655214  0.16226133  1  0.016974  0.000375  -0.073781  -0.074496  -3.8e-05  3.922305  0.0
C  C248  1  0.28069226  0.40841255  0.14559583  1  -0.010326  0.000843  -0.078069  -0.090891  0.000437  3.962363  0.001
C  C249  1  0.56818480  0.18953968  0.14306552  1  1.558136  0.001298  0.215962  0.582763  0.000959  4.183643  0.001
S  S250  1  0.40204450  0.87638385  0.23769536  1  2.466937  -0.000203  0.467819  0.954792  -0.000259  5.765034  0.0
S  S251  1  0.05190552  0.64167014  0.33514569  1  2.475773  -0.000243  0.470783  0.960899  -0.000305  5.754928  0.0
S  S252  1  0.88305184  0.54389869  0.93233550  1  2.492947  -0.000248  0.476516  0.966693  -0.000321  5.747115  0.0
S  S253  1  0.59795113  0.12362280  0.76230410  1  2.467269  -0.000203  0.467784  0.9548  -0.000259  5.765117  0.0
S  S254  1  0.94809634  0.35833111  0.66485252  1  2.475543  -0.000243  0.470696  0.960731  -0.000305  5.755049  0.0
S  S255  1  0.11694794  0.45609945  0.06766375  1  2.492804  -0.000248  0.476521  0.966692  -0.000321  5.747047  0.0
N  N256  1  0.21983872  0.07689235  0.85359844  1  -1.203178  0.077267  -0.332918  -0.237131  0.044233  3.614301  0.068
N  N257  1  0.46316425  0.31518468  0.46754090  1  -1.206534  0.083855  -0.328013  -0.212868  0.047944  3.606843  0.074
N  N258  1  0.55334829  0.73345270  0.66059284  1  -1.218146  0.076983  -0.32826  -0.241593  0.04417  3.61184  0.069
N  N259  1  0.80302848  0.98040906  0.01274360  1  -1.205728  0.092674  -0.326662  -0.21167  0.052414  3.583768  0.082
N  N260  1  0.78016143  0.92310503  0.14640173  1  -1.203118  0.077268  -0.33289  -0.236933  0.044234  3.6141  0.068
N  N261  1  0.53683556  0.68481191  0.53245976  1  -1.206614  0.083854  -0.328025  -0.212796  0.047944  3.606466  0.074
N  N262  1  0.44665436  0.26654545  0.33940673  1  -1.218174  0.076983  -0.328295  -0.241634  0.04417  3.61179  0.069
N  N263  1  0.19697232  0.01959141  0.98725747  1  -1.205889  0.092673  -0.326617  -0.211607  0.052414  3.583803  0.082
O  O264  1  0.11298085  0.60605827  0.75424499  1  -1.124898  0.000782  -0.152109  -0.230587  0.000366  2.615087  0.0
O  O265  1  0.53595934  0.41003356  0.35929080  1  -1.152973  0.067376  -0.311481  -0.552839  0.037318  2.395635  0.062
O  O266  1  0.61090682  0.36195889  0.25796000  1  -1.150557  0.064016  -0.299283  -0.547091  0.034968  2.396983  0.058
O  O267  1  0.39689363  0.93565941  0.29366294  1  -1.302503  0.000124  -0.323457  -0.528962  7.9e-05  2.134347  0.0
O  O268  1  0.46391723  0.88007533  0.18040601  1  -1.294391  2e-05  -0.325192  -0.526708  1.2e-05  2.126676  0.0
O  O269  1  0.86231217  0.06753614  0.19087423  1  -1.169912  0.076897  -0.298801  -0.579847  0.044293  2.412507  0.066
O  O270  1  0.95260068  0.97278264  0.10462306  1  -1.133661  0.084697  -0.301232  -0.526867  0.047128  2.365945  0.077
O  O271  1  0.63020084  0.10869375  0.40480788  1  -1.123477  0.083058  -0.302257  -0.516311  0.046361  2.243924  0.075
O  O272  1  0.69685393  0.15377419  0.31964932  1  -1.152913  0.089245  -0.299528  -0.5662  0.051362  2.398102  0.08
O  O273  1  0.00624253  0.57157227  0.34973787  1  -1.299674  3.4e-05  -0.315152  -0.528047  2.8e-05  2.173185  0.0
O  O274  1  0.12279658  0.62496166  0.27788652  1  -1.30156  6.5e-05  -0.321275  -0.519001  5.7e-05  2.118737  0.0
O  O275  1  0.20917974  0.69024679  0.61574241  1  -1.187928  0.00089  -0.316409  -0.555111  -0.000288  2.255941  0.001
O  O276  1  0.32165515  0.73316894  0.55340492  1  -1.146486  0.062954  -0.313102  -0.537685  0.034999  2.352051  0.058
O  O277  1  0.75351276  0.28044502  0.15329738  1  -1.138087  0.075074  -0.305716  -0.555913  0.040795  2.378197  0.069
O  O278  1  0.79741486  0.16980112  0.06749623  1  -1.148459  0.056233  -0.309699  -0.529325  0.031454  2.371445  0.051
O  O279  1  0.90963347  0.60835991  0.97150275  1  -1.296211  -3e-05  -0.311621  -0.513829  -3.3e-05  2.173587  0.0
O  O280  1  0.95570521  0.48561184  0.87797101  1  -1.318031  7e-05  -0.311901  -0.531673  5e-05  2.22284  0.0
O  O281  1  0.37129895  0.87959660  0.89881210  1  -1.151195  0.072665  -0.310491  -0.544197  0.040183  2.447341  0.066
O  O282  1  0.40569714  0.79434903  0.80410259  1  -1.15942  0.044711  -0.311329  -0.589339  0.024447  2.425245  0.04
O  O283  1  0.83619483  0.23183533  0.27277429  1  -1.22519  0.071696  -0.570078  -0.754092  0.039644  2.216111  0.063
O  O284  1  0.88701893  0.39393988  0.24575426  1  -1.124567  0.000782  -0.152141  -0.230621  0.000366  2.614942  0.0
O  O285  1  0.46404033  0.58996923  0.64070752  1  -1.153028  0.067376  -0.311477  -0.552818  0.037318  2.395657  0.062
O  O286  1  0.38909214  0.63804390  0.74203883  1  -1.150563  0.064015  -0.299225  -0.546948  0.034967  2.396982  0.058
O  O287  1  0.60310306  0.06434801  0.70633553  1  -1.302778  0.000124  -0.323429  -0.528946  7.9e-05  2.134248  0.0
O  O288  1  0.53607984  0.11993132  0.81959338  1  -1.294366  2e-05  -0.325165  -0.526675  1.2e-05  2.126648  0.0
O  O289  1  0.13768069  0.93246584  0.80912726  1  -1.169665  0.076889  -0.29877  -0.579808  0.044294  2.412488  0.066
O  O290  1  0.04739724  0.02721782  0.89537864  1  -1.133724  0.084699  -0.301271  -0.526942  0.047129  2.365909  0.077
O  O291  1  0.36979713  0.89130516  0.59519287  1  -1.123499  0.083056  -0.302251  -0.516316  0.046359  2.243964  0.075
O  O292  1  0.30314581  0.84622550  0.68035181  1  -1.152662  0.089243  -0.299492  -0.566206  0.051361  2.398146  0.08
O  O293  1  0.99376077  0.42842899  0.65025932  1  -1.299528  3.4e-05  -0.314962  -0.527919  2.8e-05  2.173371  0.0
O  O294  1  0.87720554  0.37504346  0.72211214  1  -1.301427  6.5e-05  -0.321346  -0.518996  5.7e-05  2.118691  0.0
O  O295  1  0.79082178  0.30975369  0.38425768  1  -1.187766  0.000889  -0.31644  -0.55511  -0.000288  2.255965  0.001
O  O296  1  0.67834384  0.26683229  0.44659484  1  -1.146476  0.062952  -0.313057  -0.537617  0.034998  2.351947  0.058
O  O297  1  0.24648732  0.71955545  0.84670326  1  -1.138059  0.075075  -0.305709  -0.555935  0.040796  2.378184  0.069
O  O298  1  0.20258088  0.83020087  0.93250418  1  -1.148472  0.05623  -0.309761  -0.529441  0.031453  2.371538  0.051
O  O299  1  0.09036843  0.39163980  0.02849452  1  -1.296238  -3e-05  -0.311679  -0.513906  -3.3e-05  2.173575  0.0
O  O300  1  0.04429103  0.51438474  0.12202797  1  -1.31789  7e-05  -0.311868  -0.531604  5e-05  2.222749  0.0
O  O301  1  0.62870192  0.12040077  0.10118850  1  -1.151199  0.072665  -0.310504  -0.544208  0.040183  2.447329  0.066
O  O302  1  0.59430143  0.20565453  0.19589673  1  -1.159828  0.044713  -0.311292  -0.589253  0.024447  2.425174  0.04
O  O303  1  0.16380562  0.76816437  0.72722726  1  -1.225146  0.071694  -0.570132  -0.754122  0.039643  2.216075  0.063
