# generated using pymatgen
data_CuH5C8NO5
_symmetry_space_group_name_H-M   'P 1'
_cell_length_a   6.59289171
_cell_length_b   8.09021501
_cell_length_c   16.52341894
_cell_angle_alpha   90.95775408
_cell_angle_beta   90.00072770
_cell_angle_gamma   90.00031232
_symmetry_Int_Tables_number   1
_chemical_formula_structural   CuH5C8NO5
_chemical_formula_sum   'Cu4 H20 C32 N4 O20'
_cell_volume   881.20152691
_cell_formula_units_Z   4
loop_
 _symmetry_equiv_pos_site_id
 _symmetry_equiv_pos_as_xyz
  1  'x, y, z'
loop_
 _atom_site_type_symbol
 _atom_site_label
 _atom_site_symmetry_multiplicity
 _atom_site_fract_x
 _atom_site_fract_y
 _atom_site_fract_z
 _atom_site_occupancy
 _atom_site_hle17_ddec_charge
 _atom_site_hle17_ddec_spin_density
 _atom_site_hle17_ddec_sum_bond_order
 _atom_site_hle17_magmom
 _atom_site_hse06_10hf_ddec_charge
 _atom_site_hse06_10hf_ddec_spin_density
 _atom_site_hse06_10hf_ddec_sum_bond_order
 _atom_site_hse06_10hf_magmom
 _atom_site_hse06_ddec_charge
 _atom_site_hse06_ddec_spin_density
 _atom_site_hse06_ddec_sum_bond_order
 _atom_site_hse06_magmom
 _atom_site_pbe_cm5_charge
 _atom_site_pbe_ddec_charge
 _atom_site_pbe_ddec_spin_density
 _atom_site_pbe_ddec_sum_bond_order
 _atom_site_pbe_magmom
Cu  Cu0  1  0.45938661  0.85845497  0.64571290  1  1.019947  0.713126  1.690622  0.537  1.031961  0.814161  2.07571  0.67  1.118  0.883602  2.015385  0.762  0.729187  0.958574  0.758806  2.14823  0.605
Cu  Cu1  1  0.95970953  0.64214798  0.35439604  1  1.016647  0.673287  1.696418  0.506  1.028404  0.79835  2.081144  0.656  1.115579  0.878133  2.02068  0.756  0.725539  0.950675  0.699886  2.157088  0.557
Cu  Cu2  1  0.54023185  0.14217053  0.35441815  1  1.016541  -0.713519  1.696456  -0.505  1.028365  -0.833046  2.08118  -0.656  1.115488  -0.929155  2.020659  -0.756  0.725434  0.950504  -0.71915  2.157245  -0.556
Cu  Cu3  1  0.04061726  0.35849090  0.64571934  1  1.019793  0.713192  1.690676  0.537  1.031875  0.814182  2.075721  0.67  1.117934  0.883628  2.015431  0.762  0.729259  0.958364  0.75889  2.14843  0.606
H  H4  1  0.15606679  0.98833288  0.86128283  1  0.114864  0.000118  0.952798  0.0  0.118713  0.000147  1.021852  0.0  0.122898  8.9e-05  1.018455  0.0  0.111118  0.115648  0.000202  1.024498  0.0
H  H5  1  0.65655798  0.51175442  0.13854601  1  0.114555  2.9e-05  0.951861  0.0  0.11808  2.9e-05  1.021368  0.0  0.122253  2e-05  1.017998  0.0  0.110892  0.115031  3e-05  1.023997  0.0
H  H6  1  0.84349098  0.01180276  0.13854438  1  0.114604  -3.1e-05  0.952042  0.0  0.118168  -3e-05  1.021483  0.0  0.122345  -2e-05  1.018111  0.0  0.110969  0.115117  -2.5e-05  1.024113  0.0
H  H7  1  0.34392504  0.48835786  0.86129016  1  0.114772  9.5e-05  0.952829  0.0  0.118654  0.000145  1.021821  0.0  0.122839  8.8e-05  1.018426  0.0  0.111119  0.115588  0.000198  1.024466  0.0
H  H8  1  0.45718748  0.18079198  0.80119709  1  0.112893  5.5e-05  0.942942  0.0  0.123749  8.7e-05  1.000175  0.0  0.126973  3.8e-05  0.999335  0.0  0.107805  0.121356  0.00014  1.000923  0.0
H  H9  1  0.95801175  0.31866732  0.19893533  1  0.113224  -5.3e-05  0.943247  0.0  0.124156  -3.3e-05  1.000272  0.0  0.127356  -3.4e-05  0.999484  0.0  0.10815  0.121785  -2.6e-05  1.001009  0.0
H  H10  1  0.54198200  0.81866182  0.19894506  1  0.113171  5.1e-05  0.943387  0.0  0.124107  3e-05  1.000416  0.0  0.127308  3.2e-05  0.99963  0.0  0.108115  0.121735  2.3e-05  1.001159  0.0
H  H11  1  0.04282923  0.68079584  0.80116693  1  0.112856  5.5e-05  0.943036  0.0  0.123794  8.5e-05  1.000173  0.0  0.127028  3.7e-05  0.999344  0.0  0.107847  0.1214  0.000137  1.000925  0.0
H  H12  1  0.55988046  0.12560219  0.94407359  1  0.108051  3.5e-05  0.933635  0.0  0.115236  4.4e-05  0.998525  0.0  0.118806  2.2e-05  0.995816  0.0  0.108612  0.112661  7.2e-05  1.00059  0.0
H  H13  1  0.06040354  0.37341326  0.05591175  1  0.108314  -3.1e-05  0.933652  0.0  0.115367  -2.3e-05  0.998597  0.0  0.118928  -7e-06  0.995918  0.0  0.10891  0.112766  -4.2e-05  1.000698  0.0
H  H14  1  0.43961210  0.87336628  0.05591847  1  0.108443  2.9e-05  0.933657  0.0  0.115516  2.7e-05  0.998548  0.0  0.119048  1e-05  0.995902  0.0  0.10903  0.112912  5e-05  1.000654  0.0
H  H15  1  0.94016593  0.62561410  0.94404732  1  0.107998  8e-06  0.933715  0.0  0.115194  3.7e-05  0.9986  0.0  0.118742  1.9e-05  0.995894  0.0  0.108589  0.112609  5.8e-05  1.000697  0.0
H  H16  1  0.36562853  0.88650951  0.47820750  1  0.425142  -9.7e-05  0.866485  0.0  0.400322  -6.9e-05  0.923902  0.0  0.411491  -1.1e-05  0.907378  0.0  0.297666  0.39229  -0.000116  0.935663  0.0
H  H17  1  0.86482201  0.61269608  0.52189339  1  0.424466  -6.6e-05  0.868276  0.0  0.399449  1.4e-05  0.925681  0.0  0.410554  -3.3e-05  0.909252  0.0  0.296626  0.39156  7.4e-05  0.93722  0.0
H  H18  1  0.63524127  0.11268691  0.52191461  1  0.424437  -3.8e-05  0.868319  0.0  0.399399  4e-05  0.925728  0.0  0.4105  -1.6e-05  0.909299  0.0  0.29657  0.391519  9.6e-05  0.937259  0.0
H  H19  1  0.13434747  0.38640738  0.47821009  1  0.425038  1.6e-05  0.866517  0.0  0.400236  6.8e-05  0.923975  0.0  0.411408  1.3e-05  0.907448  0.0  0.297723  0.392203  0.000119  0.935735  0.0
H  H20  1  0.23236964  0.99643982  0.53736481  1  0.433897  0.000149  0.8273  0.0  0.415012  0.000116  0.885801  0.0  0.4252  3.5e-05  0.870829  0.0  0.309434  0.407882  0.000204  0.894854  0.0
H  H21  1  0.73094773  0.50406527  0.46225105  1  0.432633  -0.000238  0.830277  0.0  0.414178  -0.000189  0.88739  0.0  0.424444  -0.00012  0.872279  0.0  0.308586  0.406895  -0.000232  0.897287  0.0
H  H22  1  0.76910384  0.00406905  0.46227059  1  0.432676  0.000203  0.830285  0.0  0.414279  0.000161  0.887254  0.0  0.424538  9.9e-05  0.872153  0.0  0.30868  0.407012  0.000202  0.897193  0.0
H  H23  1  0.26771210  0.49631105  0.53736311  1  0.434039  0.000153  0.827444  0.0  0.415322  0.000116  0.885491  0.0  0.42554  3.1e-05  0.870463  0.0  0.309616  0.408172  0.000209  0.894847  0.0
C  C24  1  0.10250800  0.03215423  0.70381750  1  0.661336  -0.008072  3.841722  -0.013  0.623845  -8.6e-05  4.139  -0.004  0.665332  -0.00039  4.130419  -0.003  0.220684  0.595301  0.000508  4.141908  -0.004
C  C25  1  0.60293136  0.46821252  0.29616935  1  0.660168  0.000456  3.842945  0.001  0.622099  -0.001249  4.139746  -0.001  0.663582  -0.001223  4.130735  -0.001  0.219652  0.59338  -0.001328  4.143155  -0.001
C  C26  1  0.89700883  0.96823802  0.29615685  1  0.659927  -0.000803  3.842328  -0.001  0.62196  0.001032  4.139082  0.001  0.66344  0.000986  4.130083  0.001  0.219811  0.593242  0.001187  4.142498  0.001
C  C27  1  0.39746672  0.53215757  0.70381154  1  0.660957  -0.008076  3.842052  -0.013  0.623551  -8.9e-05  4.139062  -0.004  0.665036  -0.000393  4.130502  -0.003  0.220524  0.595009  0.000503  4.141951  -0.004
C  C28  1  0.94989604  0.06798041  0.76894567  1  -0.080239  0.006772  3.759669  0.008  -0.072752  0.00324  4.005226  0.005  -0.079903  0.001699  4.025196  0.003  -0.01362  -0.067673  0.004803  3.991228  0.006
C  C29  1  0.45075722  0.43178581  0.23093889  1  -0.079617  0.004993  3.762241  0.005  -0.071173  0.003244  4.006747  0.003  -0.078289  0.002355  4.026708  0.002  -0.013453  -0.066046  0.003831  3.992779  0.004
C  C30  1  0.04923856  0.93182101  0.23093919  1  -0.079772  -0.00533  3.762206  -0.005  -0.071254  -0.003328  4.00668  -0.003  -0.078388  -0.002394  4.026638  -0.002  -0.013668  -0.066135  -0.003923  3.992726  -0.004
C  C31  1  0.55010651  0.56797964  0.76893610  1  -0.080081  0.006419  3.759456  0.008  -0.072659  0.003174  4.004811  0.004  -0.079824  0.001622  4.024774  0.003  -0.013582  -0.067584  0.004731  3.990818  0.006
C  C32  1  0.00463670  0.03434970  0.84825719  1  -0.114297  0.00026  3.686615  0.0  -0.140766  0.000213  3.927132  0.0  -0.141743  1.2e-05  3.947914  0.0  -0.072893  -0.140294  0.000509  3.913584  0.0
C  C33  1  0.50526327  0.46539188  0.15160136  1  -0.113411  -0.000378  3.685735  -0.001  -0.139886  4.7e-05  3.926145  0.0  -0.140983  6.4e-05  3.947096  0.0  -0.072413  -0.139412  -6e-06  3.912528  0.0
C  C34  1  0.99477092  0.96542287  0.15159604  1  -0.113676  0.000512  3.685901  0.001  -0.140183  -0.000137  3.926219  0.0  -0.141288  -0.000238  3.947176  0.0  -0.072554  -0.139708  8.9e-05  3.912609  0.0
C  C35  1  0.49536384  0.53437339  0.84826032  1  -0.114168  0.001023  3.686486  0.001  -0.140621  0.000439  3.926837  0.0  -0.141591  0.000178  3.947614  0.0  -0.072796  -0.140159  0.000835  3.913304  0.001
C  C36  1  0.75106969  0.12319730  0.75159539  1  -0.067443  0.000741  3.718531  0.002  -0.067567  0.000717  3.976026  0.002  -0.070819  0.000181  3.993097  0.001  -0.003746  -0.064738  0.001285  3.962924  0.002
C  C37  1  0.25211762  0.37625561  0.24831443  1  -0.070769  0.000586  3.72302  0.001  -0.070809  0.000205  3.980726  0.0  -0.074074  4.1e-05  3.997792  0.0  -0.004847  -0.068098  0.00038  3.967648  0.001
C  C38  1  0.24788289  0.87627947  0.24832294  1  -0.070781  -0.00039  3.722956  0.0  -0.070967  -0.00037  3.980796  0.0  -0.074169  -0.000281  3.997788  0.0  -0.004832  -0.06826  -0.000372  3.967729  0.0
C  C39  1  0.74894026  0.62318623  0.75157953  1  -0.067966  0.001612  3.719028  0.003  -0.067972  0.000957  3.976299  0.002  -0.071168  0.000347  3.993316  0.001  -0.003922  -0.065135  0.001643  3.96319  0.003
C  C40  1  0.61058459  0.13970620  0.81492165  1  -0.069575  0.001043  3.714387  0.001  -0.092505  0.000182  3.970107  0.0  -0.095143  -0.000157  3.991663  0.0  -0.082002  -0.090485  0.00065  3.955245  0.001
C  C41  1  0.11137559  0.35965208  0.18507776  1  -0.068018  0.000739  3.714042  0.001  -0.091059  0.00021  3.969468  0.0  -0.093699  6.2e-05  3.991128  0.0  -0.081657  -0.088942  0.000317  3.954469  0.0
C  C42  1  0.38863040  0.85965802  0.18508448  1  -0.067802  -0.000904  3.713915  -0.001  -0.090805  -0.000192  3.969337  0.0  -0.093463  1e-06  3.990968  0.0  -0.081559  -0.088683  -0.000344  3.954332  0.0
C  C43  1  0.88943354  0.63968581  0.81489980  1  -0.069161  0.000625  3.713979  0.001  -0.092239  9.5e-05  3.969658  0.0  -0.094905  -0.000251  3.991203  0.0  -0.082007  -0.090213  0.000549  3.954778  0.001
C  C44  1  0.68222165  0.17070415  0.66842987  1  0.670081  -0.005961  3.83046  -0.009  0.632981  0.002403  4.124325  0.0  0.675388  0.001827  4.112429  0.001  0.228771  0.603603  0.003001  4.130108  0.0
C  C45  1  0.18313994  0.33012485  0.33161779  1  0.66636  -0.001303  3.829494  -0.001  0.628849  -0.001229  4.125086  -0.001  0.671746  -0.001067  4.113366  -0.001  0.227182  0.598568  -0.001429  4.130487  -0.001
C  C46  1  0.31684014  0.83014901  0.33162484  1  0.666468  0.00086  3.829294  0.001  0.629067  0.000985  4.124714  0.001  0.671936  0.000798  4.112986  0.001  0.22737  0.598783  0.001253  4.130124  0.001
C  C47  1  0.81775261  0.67071694  0.66841811  1  0.669994  -0.006036  3.830304  -0.009  0.633004  0.00239  4.124003  0.0  0.675361  0.001818  4.112166  0.001  0.2288  0.603621  0.002973  4.129786  0.0
C  C48  1  0.86566967  0.05690714  0.91170272  1  0.155022  0.00053  3.820666  0.001  0.161463  -4.5e-05  4.069644  0.0  0.159444  -0.000205  4.096446  0.0  0.085765  0.162806  0.000274  4.051711  0.0
C  C49  1  0.36624428  0.44233231  0.08819754  1  0.155228  0.000863  3.818354  0.001  0.161673  0.000274  4.067468  0.0  0.159765  0.000189  4.094155  0.0  0.085837  0.162991  0.000361  4.049633  0.0
C  C50  1  0.13379255  0.94233452  0.08819750  1  0.155209  -0.000687  3.818707  -0.001  0.161683  -0.0002  4.067772  0.0  0.159774  -7.9e-05  4.09446  0.0  0.085782  0.163006  -0.000282  4.049925  0.0
C  C51  1  0.63433884  0.55694273  0.91170284  1  0.155157  0.000143  3.82123  0.0  0.161628  -0.000138  4.070066  0.0  0.159615  -0.000314  4.096856  0.0  0.085773  0.162969  0.000169  4.052132  0.0
C  C52  1  0.66753344  0.10913535  0.89446585  1  -0.091668  0.000633  3.673831  0.0  -0.115015  0.000555  3.923263  0.001  -0.117731  0.000307  3.945806  0.0  -0.070656  -0.113312  0.000859  3.908237  0.001
C  C53  1  0.16817651  0.38992710  0.10548517  1  -0.092431  -0.00072  3.672572  -0.001  -0.115489  -0.000329  3.922117  0.0  -0.118188  -0.000225  3.944571  0.0  -0.070865  -0.113839  -0.000409  3.907158  0.0
C  C54  1  0.33184535  0.88991543  0.10548789  1  -0.092548  0.000764  3.673019  0.001  -0.115614  0.000193  3.922485  0.0  -0.118297  3.3e-05  3.94496  0.0  -0.070889  -0.113962  0.000381  3.907518  0.0
C  C55  1  0.83247790  0.60915940  0.89445906  1  -0.091684  0.001331  3.673451  0.001  -0.115075  0.000744  3.9229  0.001  -0.117761  0.000455  3.945465  0.0  -0.070521  -0.113368  0.001131  3.907857  0.001
N  N56  1  0.91102729  0.02697190  0.99367515  1  -0.156601  -0.000576  2.994736  -0.001  -0.135666  -0.000229  3.277738  0.0  -0.133819  -6.4e-05  3.283817  0.0  -0.148822  -0.136847  -0.000209  3.2737  0.0
N  N57  1  0.41145845  0.47224000  0.00618284  1  -0.156823  -0.000701  2.993773  -0.001  -0.135938  -0.000341  3.276896  0.0  -0.134133  -0.000458  3.282923  -0.001  -0.149513  -0.137153  -7.8e-05  3.272924  0.0
N  N58  1  0.08859267  0.97224204  0.00618559  1  -0.156491  0.000719  2.993418  0.001  -0.135587  -0.000102  3.276482  0.0  -0.133779  -0.0002  3.282506  0.0  -0.149345  -0.136811  0.000245  3.272512  0.0
N  N59  1  0.58901243  0.52698372  0.99366948  1  -0.156353  0.001075  2.995428  0.001  -0.135438  0.000417  3.278402  0.001  -0.133592  0.000373  3.28448  0.001  -0.148695  -0.136612  0.000636  3.274357  0.001
O  O60  1  0.21794753  0.90846988  0.71514008  1  -0.585266  0.073485  2.049387  0.101  -0.564325  0.04621  2.329162  0.069  -0.605974  0.032194  2.318893  0.052  -0.307624  -0.532101  0.056958  2.336202  0.081
O  O61  1  0.71831495  0.59181464  0.28481050  1  -0.587332  0.040643  2.050043  0.057  -0.564654  0.027274  2.329057  0.042  -0.605345  0.021308  2.317954  0.035  -0.308506  -0.532785  0.028814  2.336812  0.043
O  O62  1  0.78163452  0.09185414  0.28481576  1  -0.587196  -0.043444  2.049536  -0.057  -0.564649  -0.028681  2.328613  -0.042  -0.605322  -0.022819  2.317507  -0.035  -0.308658  -0.532753  -0.029753  2.336323  -0.042
O  O63  1  0.28199364  0.40849731  0.71516768  1  -0.585041  0.073512  2.049197  0.101  -0.564166  0.046226  2.328965  0.069  -0.605814  0.032203  2.318687  0.052  -0.307473  -0.531901  0.056985  2.33599  0.081
O  O64  1  0.75258979  0.30086078  0.63664975  1  -0.581107  0.07197  2.081545  0.099  -0.564935  0.043126  2.360251  0.064  -0.605571  0.030798  2.347967  0.049  -0.314306  -0.534162  0.051959  2.369336  0.074
O  O65  1  0.25434401  0.20182533  0.36498230  1  -0.573184  -0.055923  2.080536  -0.072  -0.558806  -0.035987  2.360048  -0.052  -0.601308  -0.02829  2.348301  -0.042  -0.309779  -0.524656  -0.03681  2.368182  -0.051
O  O66  1  0.24561960  0.70183539  0.36497621  1  -0.573358  0.052661  2.08017  0.072  -0.559029  0.034329  2.359707  0.052  -0.60155  0.026479  2.347998  0.042  -0.309929  -0.524903  0.035776  2.36784  0.051
O  O67  1  0.74736006  0.80084585  0.63662297  1  -0.581069  0.07212  2.081512  0.099  -0.564986  0.043195  2.360306  0.064  -0.605572  0.030845  2.347945  0.049  -0.314256  -0.534231  0.052058  2.369392  0.074
O  O68  1  0.11119242  0.12206832  0.64125751  1  -0.566429  0.085019  2.090562  0.117  -0.546422  0.053153  2.363373  0.079  -0.589378  0.037968  2.353816  0.06  -0.300115  -0.514421  0.063517  2.369987  0.091
O  O69  1  0.61090276  0.37871849  0.35889548  1  -0.567283  -0.085133  2.091925  -0.109  -0.546102  -0.053965  2.363958  -0.076  -0.588533  -0.0407  2.354134  -0.06  -0.300788  -0.514288  -0.059051  2.371006  -0.081
O  O70  1  0.88905095  0.87869808  0.35887242  1  -0.567029  0.080275  2.091291  0.109  -0.546064  0.051655  2.363601  0.076  -0.588502  0.03831  2.353798  0.06  -0.300841  -0.514283  0.057446  2.370666  0.081
O  O71  1  0.38875968  0.62202452  0.64124160  1  -0.56641  0.084945  2.090926  0.117  -0.546328  0.053134  2.363532  0.079  -0.589281  0.037955  2.353967  0.06  -0.300117  -0.514349  0.06349  2.370139  0.091
O  O72  1  0.54437082  0.08912580  0.63165788  1  -0.570827  0.083895  2.144648  0.115  -0.543611  0.054523  2.417668  0.081  -0.585543  0.040595  2.40602  0.063  -0.29505  -0.513008  0.063661  2.426563  0.09
O  O73  1  0.04310663  0.41105285  0.36740720  1  -0.568234  0.058007  2.143891  0.08  -0.542088  0.04114  2.417852  0.061  -0.58535  0.032044  2.406748  0.05  -0.292731  -0.508618  0.043658  2.425789  0.062
O  O74  1  0.45685845  0.91106789  0.36742400  1  -0.56821  -0.06163  2.143943  -0.079  -0.542117  -0.043044  2.417927  -0.061  -0.585342  -0.03413  2.406795  -0.05  -0.292811  -0.508607  -0.044885  2.425848  -0.062
O  O75  1  0.95559871  0.58914778  0.63163961  1  -0.570538  0.08398  2.144631  0.115  -0.543499  0.054564  2.417719  0.081  -0.585426  0.040618  2.406107  0.064  -0.295076  -0.512861  0.063744  2.426614  0.09
O  O76  1  0.29273872  0.88671100  0.53009457  1  -0.816385  0.002774  1.846286  0.004  -0.777798  0.00245  2.02479  0.004  -0.795943  0.001426  1.986698  0.003  -0.588312  -0.761356  0.003673  2.051741  0.005
O  O77  1  0.79197910  0.61344553  0.46996590  1  -0.816135  0.000234  1.845573  0.001  -0.778333  0.001076  2.022  0.002  -0.796465  0.000624  1.983917  0.002  -0.588835  -0.761602  0.001226  2.049831  0.003
O  O78  1  0.70805220  0.11344030  0.46997904  1  -0.816159  0.000205  1.845612  0.0  -0.778362  -0.001071  2.022022  -0.002  -0.796489  -0.000808  1.98399  -0.002  -0.588857  -0.761634  -0.000898  2.049826  -0.002
O  O79  1  0.20725409  0.38660914  0.53009209  1  -0.816345  0.003119  1.846557  0.005  -0.778027  0.002598  2.024435  0.004  -0.796162  0.001469  1.986277  0.003  -0.588506  -0.761551  0.003906  2.051659  0.006
