# generated using pymatgen
data_Zn4H61C80N33
_symmetry_space_group_name_H-M   'P 1'
_cell_length_a   19.59599753
_cell_length_b   19.39081846
_cell_length_c   20.67296493
_cell_angle_alpha   107.14752015
_cell_angle_beta   105.51159770
_cell_angle_gamma   112.18229646
_symmetry_Int_Tables_number   1
_chemical_formula_structural   Zn4H61C80N33
_chemical_formula_sum   'Zn4 H61 C80 N33'
_cell_volume   6281.67022643
_cell_formula_units_Z   1
loop_
 _symmetry_equiv_pos_site_id
 _symmetry_equiv_pos_as_xyz
  1  'x, y, z'
loop_
 _atom_site_type_symbol
 _atom_site_label
 _atom_site_symmetry_multiplicity
 _atom_site_fract_x
 _atom_site_fract_y
 _atom_site_fract_z
 _atom_site_occupancy
 _atom_site_pbe_bader_charge
 _atom_site_pbe_bader_spin_density
 _atom_site_pbe_cm5_charge
 _atom_site_pbe_ddec_charge
 _atom_site_pbe_ddec_spin_density
 _atom_site_pbe_ddec_sum_bond_order
 _atom_site_pbe_magmom
Zn  Zn0  1  0.10482396  0.11379919  0.50541472  1  1.180247  0  0.733673  0.652764  0  2.288784  0
Zn  Zn1  1  0.87941215  0.91314951  0.52102371  1  1.165776  0  0.782721  0.705749  0  2.276199  0
Zn  Zn2  1  0.99328508  0.91749707  0.39971027  1  1.184805  0  0.739105  0.666365  0  2.333918  0
Zn  Zn3  1  0.99162567  0.11569967  0.61955017  1  1.198809  0  0.760935  0.694685  0  2.228262  0
H  H4  1  0.17044110  0.16414170  0.37050053  1  0.047985  0  0.109214  0.090802  0  1.01033  0
H  H5  1  0.10663662  0.67572697  0.66716855  1  0.055385  0  0.096888  0.09884  0  0.998548  0
H  H6  1  0.36884200  0.14504499  0.44813138  1  0.039787  0  0.089673  0.080179  0  1.060716  0
H  H7  1  0.50973738  0.22481684  0.46278546  1  0.037573  0  0.095258  0.094946  0  1.00183  0
H  H8  1  0.72110464  0.15534995  0.48136069  1  0.047738  0  0.098649  0.102868  0  1.007456  0
H  H9  1  0.89092654  0.72737963  0.27742792  1  0.069559  0  0.111183  0.100551  0  1.013331  0
H  H10  1  0.59681907  0.88799636  0.37834483  1  0.062392  0  0.096065  0.097009  0  1.029672  0
H  H11  1  0.38099929  0.26064132  0.98405773  1  0.073563  0  0.09909  0.113309  0  1.019776  0
H  H12  1  0.13089585  0.06653844  0.00428601  1  0.07759  0  0.098556  0.110933  0  1.028937  0
H  H13  1  0.08688384  0.88556829  0.75357411  1  0.051415  0  0.097588  0.099758  0  1.002005  0
H  H14  1  0.15316164  0.86971963  0.86502976  1  0.055683  0  0.099383  0.110956  0  1.003677  0
H  H15  1  0.69526139  0.75473816  0.31907405  1  0.057709  0  0.102155  0.087779  0  1.01417  0
H  H16  1  0.04424904  0.20577356  0.42544275  1  0.11183  0  0.115706  0.110967  0  1.014479  0
H  H17  1  0.26517508  0.16302499  0.63562675  1  0.135417  0  0.110099  0.104377  0  1.051791  0
H  H18  1  0.82280330  0.65258804  0.47367971  1  0.449019  0  0.306507  0.307976  0  0.933239  0
H  H19  1  0.77403634  0.69661330  0.43785356  1  0.412922  0  0.298737  0.293688  0  0.957069  0
H  H20  1  0.13561050  0.87420396  0.36437004  1  0.071876  0  0.116175  0.102062  0  1.000429  0
H  H21  1  0.07630041  0.12670301  0.78452758  1  0.118552  0  0.117838  0.104026  0  1.044694  0
H  H22  1  0.94461184  0.85945332  0.65322929  1  0.081102  0  0.122061  0.116674  0  0.993728  0
H  H23  1  0.34694399  0.17000021  0.53706456  1  0.42224  0  0.299063  0.29499  0  0.953354  0
H  H24  1  0.27721120  0.19332105  0.50162934  1  0.402607  0  0.292498  0.278187  0  0.962928  0
H  H25  1  0.16053258  0.23772316  0.78398390  1  0.090501  0  0.116523  0.107783  0  1.000784  0
H  H26  1  0.07955283  0.84501653  0.48373998  1  0.100425  0  0.119592  0.1181  0  0.998676  0
H  H27  1  0.05633747  0.74257295  0.59630917  1  0.044093  0  0.093456  0.099889  0  1.01591  0
H  H28  1  0.87396075  0.65059980  0.35283244  1  0.425448  0  0.281862  0.264449  0  1.039271  0
H  H29  1  0.83378836  0.54635456  0.30761547  1  0.434307  0  0.29431  0.286585  0  0.97646  0
H  H30  1  0.85469944  0.45069362  0.29390674  1  0.013334  0  0.093509  0.102347  0  1.028497  0
H  H31  1  0.74241853  0.91155100  0.39639330  1  0.120019  0  0.117738  0.113271  0  1.028189  0
H  H32  1  0.83086767  0.25765822  0.28720116  1  0.425766  0  0.297975  0.287082  0  0.972313  0
H  H33  1  0.80893083  0.30865315  0.23893106  1  0.432566  0  0.304138  0.297113  0  0.943171  0
H  H34  1  0.90480005  0.25731215  0.37306682  1  0.021039  0  0.09745  0.096295  0  1.024683  0
H  H35  1  0.12266190  0.45679402  0.65995032  1  0.437778  0  0.297777  0.289324  0  0.967555  0
H  H36  1  0.08314102  0.35242759  0.61727744  1  0.446349  0  0.291239  0.28415  0  0.984918  0
H  H37  1  0.10650175  0.55168190  0.67264787  1  0.043054  0  0.0938  0.088456  0  1.028304  0
H  H38  1  0.25100799  0.87776786  0.35919024  1  0.061475  0  0.097094  0.100595  0  1.013574  0
H  H39  1  0.64003256  0.22891136  0.47367594  1  0.042366  0  0.100028  0.102924  0  0.995783  0
H  H40  1  0.38822148  0.74021611  0.25877918  1  0.426905  0  0.304746  0.29722  0  0.942293  0
H  H41  1  0.48532648  0.79618430  0.27342609  1  0.419049  0  0.300425  0.289195  0  0.958126  0
H  H42  1  0.31433916  0.80333391  0.30013084  1  0.022788  0  0.09794  0.112123  0  1.003801  0
H  H43  1  0.79022674  0.59736976  0.17840603  1  0.042474  0  0.092722  0.09757  0  1.01465  0
H  H44  1  0.68299827  0.45570819  0.07974441  1  0.086983  0  0.099036  0.099831  0  1.018123  0
H  H45  1  0.54578609  0.37190587  0.83110113  1  0.419395  0  0.3029  0.295754  0  0.947175  0
H  H46  1  0.58798527  0.38685201  0.92158703  1  0.441458  0  0.294929  0.281656  0  0.995782  0
H  H47  1  0.39731753  0.28195074  0.75441927  1  0.03332  0  0.097666  0.111051  0  1.005691  0
H  H48  1  0.62850180  0.60212697  0.28433760  1  0.008732  0  0.091822  0.102526  0  1.017776  0
H  H49  1  0.48987510  0.48215612  0.21860100  1  0.428862  0  0.303354  0.2965  0  0.945142  0
H  H50  1  0.46479569  0.39758560  0.14039733  1  0.471269  0  0.296775  0.285976  0  0.990082  0
H  H51  1  0.92873056  0.22885363  0.57590077  1  0.079937  0  0.116581  0.105851  0  1.002581  0
H  H52  1  0.23859549  0.16132825  0.90740515  1  0.43672  0  0.295743  0.293015  0  0.951726  0
H  H53  1  0.19511633  0.13000926  0.81521334  1  0.410395  0  0.287306  0.271821  0  0.999833  0
H  H54  1  0.05017474  0.11222752  0.94518018  1  0.426342  0  0.304008  0.298022  0  0.939913  0
H  H55  1  0.00702530  0.07976856  0.85172211  1  0.435649  0  0.294051  0.282086  0  0.978518  0
H  H56  1  0.33002785  0.19817175  0.24772284  1  0.446207  0  0.309958  0.303035  0  0.934392  0
H  H57  1  0.31743485  0.13577767  0.16153644  1  0.46145  0  0.30201  0.29082  0  0.977208  0
H  H58  1  0.23995556  0.13812433  0.30391654  1  0.019242  0  0.091125  0.10622  0  1.02837  0
H  H59  1  0.10784732  0.86539571  0.01360760  1  0.506347  0  0.289618  0.269626  0  1.057526  0
H  H60  1  0.03002667  0.81765029  0.03940959  1  0.431939  0  0.305664  0.294683  0  0.937084  0
H  H61  1  0.03250772  0.89143376  0.15429314  1  -0.002729  0  0.091173  0.092464  0  1.070649  0
H  H62  1  0.80364675  0.12964068  0.58812136  1  0.061694  0  0.118271  0.105058  0  0.987539  0
H  H63  1  0.98597616  0.85786077  0.20488630  1  0.440539  0  0.296993  0.293897  0  0.98793  0
H  H64  1  0.92337624  0.85810169  0.24815323  1  0.46479  0  0.301364  0.301264  0  0.971376  0
C  C65  1  0.12182661  0.10182406  0.35266917  1  0.42906  0  0.004409  -0.037536  0  4.037631  0
C  C66  1  0.74221408  0.02207722  0.47337597  1  -0.050678  0  -0.03271  -0.028108  0  4.047123  0
C  C67  1  0.77013955  0.70083569  0.28229534  1  -0.035945  0  -0.048981  -0.05619  0  4.099821  0
C  C68  1  0.98353917  0.24694441  0.49540846  1  -0.039234  0  -0.035701  -0.020253  0  4.072022  0
C  C69  1  0.22783829  0.17668546  0.66209427  1  0.446388  0  0.004272  -0.044167  0  3.969308  0
C  C70  1  0.89668256  0.76076947  0.47828233  1  0.895192  0  0.189982  0.32418  0  4.123932  0
C  C71  1  0.16045396  0.93763912  0.40525639  1  0.469917  0  0.009946  -0.033552  0  4.001004  0
C  C72  1  0.03694649  0.06292500  0.74192011  1  0.370503  0  0.002988  -0.064598  0  3.990941  0
C  C73  1  0.97056264  0.92640803  0.67521117  1  0.386083  0  0.011888  -0.041437  0  3.943017  0
C  C74  1  0.23231605  0.07220047  0.48158875  1  0.831246  0  0.179309  0.312388  0  4.055099  0
C  C75  1  0.17352225  0.21441661  0.73684530  1  0.425522  0  0.003775  -0.04756  0  4.005776  0
C  C76  1  0.76642747  0.96345820  0.45033987  1  0.415239  0  0.009084  -0.040306  0  3.956494  0
C  C77  1  0.01984194  0.82636649  0.48361632  1  0.398131  0  0.004465  -0.031697  0  3.994217  0
C  C78  1  0.24363154  0.20925510  0.73816886  1  -0.094482  0  -0.036674  -0.025825  0  4.057314  0
C  C79  1  0.96558400  0.75218906  0.48062660  1  0.035422  0  -0.043906  -0.129342  0  4.062104  0
C  C80  1  0.23665771  0.00799775  0.43123582  1  -0.019842  0  -0.042229  -0.144075  0  4.056013  0
C  C81  1  0.02723199  0.98961529  0.74783727  1  0.026283  0  -0.033918  -0.022199  0  4.073706  0
C  C82  1  0.02234091  0.68379123  0.54553299  1  -0.048021  0  -0.107008  -0.200365  0  4.032769  0
C  C83  1  0.97356838  0.67936320  0.47972694  1  -0.018735  0  -0.031837  -0.016419  0  4.066111  0
C  C84  1  0.92832570  0.60373993  0.41290962  1  0.413323  0  0.086485  0.189881  0  4.049959  0
C  C85  1  0.93232617  0.53196001  0.41327125  1  -0.069484  0  -0.0258  -0.009201  0  4.059633  0
C  C86  1  0.98012729  0.53705518  0.48188753  1  0.092694  0  -0.010616  -0.008327  0  3.950603  0
C  C87  1  0.85102065  0.74766622  0.29416897  1  0.405308  0  -0.012819  -0.083616  0  4.000253  0
C  C88  1  0.02622425  0.61400254  0.54848888  1  -0.026069  0  -0.028427  0.058033  0  4.109077  0
C  C89  1  0.88909334  0.45488400  0.34743271  1  -0.000481  0  -0.133125  -0.291344  0  4.02055  0
C  C90  1  0.89042223  0.38448800  0.34821884  1  0.335507  0  0.08583  0.25613  0  4.121789  0
C  C91  1  0.93618971  0.38727067  0.41747355  1  0.043643  0  -0.027737  -0.039506  0  4.037441  0
C  C92  1  0.98126114  0.46445016  0.48392661  1  -0.022155  0  -0.000803  0.025181  0  3.944626  0
C  C93  1  0.02767971  0.46923349  0.55316291  1  -0.002284  0  -0.024218  -0.03048  0  4.016151  0
C  C94  1  0.07265284  0.54728018  0.61891415  1  -0.029448  0  -0.113518  -0.15183  0  4.075  0
C  C95  1  0.07236867  0.61683480  0.61644670  1  -0.075943  0  -0.10048  -0.135083  0  4.059151  0
C  C96  1  0.93799444  0.31719452  0.42246563  1  -0.015879  0  -0.102895  -0.177673  0  4.028028  0
C  C97  1  0.98185063  0.32043891  0.48979930  1  0.003019  0  -0.026583  -0.025986  0  4.050686  0
C  C98  1  0.95935647  0.21309465  0.54210018  1  0.407898  0  0.005101  -0.059395  0  3.979897  0
C  C99  1  0.02826408  0.39702974  0.55555015  1  0.385615  0  0.090302  0.199751  0  4.052812  0
C  C100  1  0.30307302  0.93727633  0.37489405  1  -0.03323  0  -0.097585  -0.19533  0  3.925098  0
C  C101  1  0.30325758  0.01144771  0.41055274  1  -0.009371  0  -0.010804  0.115063  0  4.07927  0
C  C102  1  0.36969324  0.08697355  0.42715888  1  -0.035792  0  -0.108956  -0.216479  0  3.971985  0
C  C103  1  0.43968524  0.09030765  0.41931198  1  -0.013088  0  -0.013073  0.086517  0  4.072212  0
C  C104  1  0.44161253  0.01511932  0.39010235  1  -0.002864  0  -0.009136  -0.020952  0  3.947753  0
C  C105  1  0.36999474  0.93718802  0.36262863  1  -0.022668  0  -0.010686  0.10486  0  4.096701  0
C  C106  1  0.51228022  0.16726506  0.44481222  1  -0.039752  0  -0.096773  -0.137707  0  4.030745  0
C  C107  1  0.58438617  0.16957967  0.45078316  1  -6.9e-05  0  -0.096585  -0.141612  0  4.024295  0
C  C108  1  0.58968734  0.09489322  0.43039097  1  -0.00255  0  -0.010825  0.081301  0  4.048905  0
C  C109  1  0.75276342  0.76284986  0.31737673  1  0.431201  0  -0.014963  -0.077574  0  4.062984  0
C  C110  1  0.51563287  0.01699878  0.39401079  1  -0.008699  0  -0.000464  0.010889  0  3.943836  0
C  C111  1  0.51834303  0.94157032  0.36847377  1  -0.044891  0  -0.012472  -0.007448  0  4.00419  0
C  C112  1  0.44186427  0.86351989  0.32760824  1  0.368057  0  0.088576  0.249715  0  4.112444  0
C  C113  1  0.37116788  0.86254680  0.32716393  1  -0.01354  0  -0.118904  -0.287153  0  3.990689  0
C  C114  1  0.66445019  0.09573037  0.45026321  1  -0.024586  0  -0.094448  -0.193778  0  3.948746  0
C  C115  1  0.66728313  0.02167887  0.43515577  1  0.017202  0  -0.014477  0.087677  0  4.080646  0
C  C116  1  0.59426319  0.94538849  0.39000490  1  -0.080413  0  -0.098253  -0.185098  0  3.957346  0
C  C117  1  0.31718354  0.23658140  0.80359616  1  0.056522  0  -0.010368  0.021936  0  3.998251  0
C  C118  1  0.31220382  0.22546285  0.86804272  1  0.394543  0  0.078063  0.235509  0  4.085687  0
C  C119  1  0.38344083  0.26441973  0.93303457  1  -0.015345  0  -0.115823  -0.27641  0  3.997886  0
C  C120  1  0.01848927  0.20200351  0.46548208  1  0.404255  0  0.00497  -0.054423  0  3.955901  0
C  C121  1  0.46029118  0.31102865  0.93580512  1  0.399043  0  0.071857  0.080899  0  4.08264  0
C  C122  1  0.46644020  0.31144548  0.86867110  1  0.430395  0  0.094035  0.237877  0  4.087778  0
C  C123  1  0.39388003  0.27561277  0.80440029  1  -0.043944  0  -0.112291  -0.254395  0  3.988504  0
C  C124  1  0.67248172  0.48818839  0.12558438  1  -0.083527  0  -0.099573  -0.142512  0  4.05363  0
C  C125  1  0.73187751  0.56711467  0.18050430  1  -0.007419  0  -0.1162  -0.166074  0  4.036869  0
C  C126  1  0.59475008  0.44978585  0.12425719  1  0.408359  0  0.067721  0.060717  0  4.043921  0
C  C127  1  0.71489471  0.61194239  0.23586942  1  -0.045322  0  -0.014829  0.107198  0  4.083798  0
C  C128  1  0.64143027  0.57007609  0.24010574  1  0.029962  0  -0.123628  -0.282135  0  3.973963  0
C  C129  1  0.58138581  0.48879773  0.18620460  1  0.341842  0  0.098733  0.254546  0  4.081926  0
C  C130  1  0.13008250  0.01707643  0.23586879  1  0.013319  0  -0.004218  0.165794  0  4.094032  0
C  C131  1  0.80039898  0.07583463  0.54848694  1  0.496821  0  0.01207  -0.031697  0  3.994135  0
C  C132  1  0.09168063  0.94292012  0.16979010  1  -0.001364  0  -0.138376  -0.325892  0  4.005838  0
C  C133  1  0.12415730  0.93299171  0.11727871  1  0.482012  0  0.106555  0.277352  0  4.098464  0
C  C134  1  0.19320561  0.00425226  0.12650648  1  0.441078  0  0.081337  -0.020998  0  3.960778  0
C  C135  1  0.23715526  0.07738132  0.19751782  1  0.428762  0  0.103838  0.271111  0  4.117577  0
C  C136  1  0.20583015  0.08229738  0.25065435  1  0.011229  0  -0.134951  -0.319375  0  3.9862  0
C  C137  1  0.12349853  0.02925761  0.94912930  1  -0.023176  0  -0.118954  -0.301514  0  3.970883  0
C  C138  1  0.08282979  0.03603365  0.88663706  1  0.355612  0  0.086332  0.258788  0  4.093146  0
C  C139  1  0.14800951  0.96913739  0.94221418  1  0.316005  0  0.07751  0.19623  0  4.126753  0
C  C140  1  0.06922951  0.98352791  0.81440643  1  0.007096  0  -0.029928  -0.043892  0  4.008664  0
C  C141  1  0.09635043  0.92517104  0.80886438  1  -0.016748  0  -0.099305  -0.115411  0  4.052271  0
C  C142  1  0.02808893  0.96886040  0.29353043  1  0.896475  0  0.189955  0.35047  0  4.063075  0
C  C143  1  0.13422624  0.91647939  0.87079756  1  0.014243  0  -0.114129  -0.200455  0  4.03361  0
C  C144  1  0.09463451  0.02787335  0.28907488  1  0.046637  0  -0.045034  -0.149527  0  4.009563  0
N  N145  1  0.07735229  0.08857239  0.39139746  1  -0.792134  0  -0.282631  -0.206572  0  3.542935  0
N  N146  1  0.91056138  0.83484849  0.47995501  1  -0.828469  0  -0.312785  -0.284672  0  3.642021  0
N  N147  1  0.11479222  0.95835345  0.43639728  1  -0.81012  0  -0.279982  -0.18185  0  3.601264  0
N  N148  1  0.99008744  0.04446487  0.67174792  1  -0.802736  0  -0.283678  -0.18552  0  3.639014  0
N  N149  1  0.94839910  0.96022124  0.63076628  1  -0.7863  0  -0.279937  -0.18833  0  3.595115  0
N  N150  1  0.15941260  0.04113629  0.48485296  1  -0.768781  0  -0.276367  -0.277018  0  3.465539  0
N  N151  1  0.12034814  0.18725002  0.66622815  1  -0.80396  0  -0.28408  -0.225858  0  3.515266  0
N  N152  1  0.98687371  0.87643918  0.48267195  1  -0.812937  0  -0.296841  -0.254777  0  3.522922  0
N  N153  1  0.53198771  0.36561609  0.00048203  1  -0.557512  0  -0.1793  -0.158844  0  3.372256  0
N  N154  1  0.52509286  0.38207915  0.06256435  1  -0.564637  0  -0.184208  -0.169321  0  3.342787  0
N  N155  1  0.20605888  0.01599051  0.06814707  1  -0.610402  0  -0.178973  -0.139934  0  3.432215  0
N  N156  1  0.83309930  0.98130068  0.50818058  1  -0.835152  0  -0.302539  -0.209183  0  3.712273  0
N  N157  1  0.17205952  0.95245142  0.00333853  1  -0.59193  0  -0.193099  -0.195424  0  3.313969  0
N  N158  1  0.87737698  0.82963850  0.33229114  1  -0.825155  0  -0.287858  -0.186414  0  3.644284  0
N  N159  1  0.98010998  0.15404080  0.54082672  1  -0.798124  0  -0.285274  -0.178774  0  3.657467  0
N  N160  1  0.81680178  0.83959138  0.34715475  1  -0.717892  0  -0.270457  -0.250029  0  3.308314  0
N  N161  1  0.01691957  0.14708897  0.49404715  1  -0.766058  0  -0.275227  -0.186377  0  3.576546  0
N  N162  1  0.85442810  0.05118507  0.56970607  1  -0.769947  0  -0.276233  -0.237545  0  3.452149  0
N  N163  1  0.01821113  0.00516283  0.35466230  1  -0.813238  0  -0.295022  -0.329391  0  3.392466  0
N  N164  1  0.15443031  0.16335212  0.61950775  1  -0.808099  0  -0.279819  -0.197425  0  3.57767  0
N  N165  1  0.82530090  0.70731114  0.47817148  1  -1.219352  0  -0.603176  -0.646766  0  3.258668  0
N  N166  1  0.28864168  0.15761900  0.52594415  1  -1.176398  0  -0.603795  -0.643456  0  3.284428  0
N  N167  1  0.88316945  0.60138480  0.34718989  1  -1.227336  0  -0.606222  -0.617844  0  3.389541  0
N  N168  1  0.85113574  0.31140656  0.28218189  1  -1.214443  0  -0.605967  -0.622219  0  3.315776  0
N  N169  1  0.07287472  0.40095975  0.62262938  1  -1.251152  0  -0.605967  -0.620249  0  3.352302  0
N  N170  1  0.44376232  0.79066069  0.29504013  1  -1.209229  0  -0.60219  -0.622336  0  3.311072  0
N  N171  1  0.54217097  0.34903938  0.86900543  1  -1.221248  0  -0.600692  -0.613279  0  3.338466  0
N  N172  1  0.50891658  0.44707811  0.18989386  1  -1.254165  0  -0.601092  -0.616963  0  3.335957  0
N  N173  1  0.23600631  0.17944204  0.86579975  1  -1.199718  0  -0.609081  -0.627617  0  3.327201  0
N  N174  1  0.05608940  0.09402784  0.89660958  1  -1.221905  0  -0.606526  -0.623464  0  3.313482  0
N  N175  1  0.30906651  0.14006256  0.20878775  1  -1.244574  0  -0.585056  -0.596949  0  3.33907  0
N  N176  1  0.08855567  0.85989326  0.05475860  1  -1.271791  0  -0.576466  -0.571203  0  3.341431  0
N  N177  1  0.98133364  0.88319864  0.25258763  1  -1.28459  0  -0.604337  -0.646548  0  3.337619  0
