# generated using pymatgen
data_ZnH4(CN5)2
_symmetry_space_group_name_H-M   'P 1'
_cell_length_a   9.17705860
_cell_length_b   10.33807114
_cell_length_c   10.04620467
_cell_angle_alpha   121.36930398
_cell_angle_beta   117.63002275
_cell_angle_gamma   89.23719453
_symmetry_Int_Tables_number   1
_chemical_formula_structural   ZnH4(CN5)2
_chemical_formula_sum   'Zn2 H8 C4 N20'
_cell_volume   687.43426911
_cell_formula_units_Z   2
loop_
 _symmetry_equiv_pos_site_id
 _symmetry_equiv_pos_as_xyz
  1  'x, y, z'
loop_
 _atom_site_type_symbol
 _atom_site_label
 _atom_site_symmetry_multiplicity
 _atom_site_fract_x
 _atom_site_fract_y
 _atom_site_fract_z
 _atom_site_occupancy
 _atom_site_hle17_bader_spin_density
 _atom_site_hle17_ddec_charge
 _atom_site_hle17_ddec_spin_density
 _atom_site_hle17_ddec_sum_bond_order
 _atom_site_hle17_magmom
 _atom_site_hse06_10hf_bader_spin_density
 _atom_site_hse06_10hf_ddec_charge
 _atom_site_hse06_10hf_ddec_spin_density
 _atom_site_hse06_10hf_ddec_sum_bond_order
 _atom_site_hse06_10hf_magmom
 _atom_site_hse06_bader_spin_density
 _atom_site_hse06_ddec_charge
 _atom_site_hse06_ddec_spin_density
 _atom_site_hse06_ddec_sum_bond_order
 _atom_site_hse06_magmom
 _atom_site_pbe_bader_spin_density
 _atom_site_pbe_cm5_charge
 _atom_site_pbe_ddec_charge
 _atom_site_pbe_ddec_spin_density
 _atom_site_pbe_ddec_sum_bond_order
 _atom_site_pbe_magmom
Zn  Zn0  1  0.90329729  0.55871468  0.72135524  1  0  0.896886  0  2.010174  0  0  0.687514  0  2.498785  0  0  0.726076  0  2.454314  0  0  0.756326  0.661039  0  2.529425  0
Zn  Zn1  1  0.68194951  0.83735956  0.27861431  1  0  0.89712  0  2.009528  0  0  0.687741  0  2.497655  0  0  0.726274  0  2.453294  0  0  0.756462  0.661252  0  2.528305  0
H  H2  1  0.72142918  0.41019631  0.28678665  1  0  0.326077  0  0.941915  0  0  0.297399  0  1.027072  0  0  0.30557  0  1.019655  0  0  0.295827  0.291604  0  1.032273  0
H  H3  1  0.93411841  0.12331990  0.71318740  1  0  0.325815  0  0.941795  0  0  0.29685  0  1.027288  0  0  0.305009  0  1.019868  0  0  0.29558  0.291067  0  1.032488  0
H  H4  1  0.71246241  0.50276875  0.17592590  1  0  0.330284  0  0.933872  0  0  0.299837  0  1.021034  0  0  0.308366  0  1.01317  0  0  0.296967  0.293796  0  1.026553  0
H  H5  1  0.03601449  0.32682139  0.82420306  1  0  0.330293  0  0.934004  0  0  0.300163  0  1.020571  0  0  0.308696  0  1.012696  0  0  0.297186  0.29412  0  1.026093  0
H  H6  1  0.77042999  0.96849595  0.08498789  1  0  0.33092  0  0.910102  0  0  0.309589  0  0.979454  0  0  0.315744  0  0.974004  0  0  0.303754  0.304772  0  0.98285  0
H  H7  1  0.18545178  0.88320870  0.91498180  1  0  0.330032  0  0.911334  0  0  0.308314  0  0.980579  0  0  0.314756  0  0.975405  0  0  0.303093  0.303726  0  0.984265  0
H  H8  1  0.84284165  0.89098685  0.93401653  1  0  0.321032  0  0.941097  0  0  0.294672  0  1.024142  0  0  0.30214  0  1.017272  0  0  0.294721  0.289284  0  1.029117  0
H  H9  1  0.40884404  0.95663566  0.06597642  1  0  0.322729  0  0.939846  0  0  0.296624  0  1.022651  0  0  0.304125  0  1.015685  0  0  0.295401  0.291262  0  1.027591  0
C  C10  1  0.79418445  0.65244372  0.44845584  1  0  0.599759  0  3.835172  0  0  0.542317  0  4.119353  0  0  0.565923  0  4.130375  0  0  0.339715  0.526431  0  4.111556  0
C  C11  1  0.84524687  0.20400032  0.55159470  1  0  0.600217  0  3.83491  0  0  0.542253  0  4.119386  0  0  0.566553  0  4.129426  0  0  0.33995  0.526364  0  4.111602  0
C  C12  1  0.78538858  0.74374339  0.99278811  1  0  0.582985  0  3.85743  0  0  0.534805  0  4.129381  0  0  0.557381  0  4.140556  0  0  0.330645  0.519515  0  4.121531  0
C  C13  1  0.29256142  0.75060180  0.00715922  1  0  0.581367  0  3.858665  0  0  0.532735  0  4.131233  0  0  0.555327  0  4.142441  0  0  0.329599  0.517529  0  4.123279  0
N  N14  1  0.74529531  0.51037139  0.29297786  1  0  -0.69552  0  3.125359  0  0  -0.653202  0  3.370294  0  0  -0.674525  0  3.364335  0  0  -0.57366  -0.638241  0  3.374019  0
N  N15  1  0.95160757  0.21744417  0.70716731  1  0  -0.694641  0  3.125705  0  0  -0.652081  0  3.371011  0  0  -0.673677  0  3.364872  0  0  -0.573271  -0.637123  0  3.374681  0
N  N16  1  0.79575276  0.79271624  0.46724016  1  0  -0.403744  0  3.143369  0  0  -0.325721  0  3.45226  0  0  -0.346742  0  3.458303  0  0  -0.261766  -0.311725  0  3.44808  0
N  N17  1  0.82807758  0.32546860  0.53277578  1  0  -0.406346  0  3.144088  0  0  -0.328085  0  3.453318  0  0  -0.349348  0  3.459149  0  0  -0.26286  -0.314094  0  3.449168  0
N  N18  1  0.86105417  0.90832412  0.64847634  1  0  -0.067805  0  3.055904  0  0  -0.056979  0  3.338202  0  0  -0.053846  0  3.347172  0  0  -0.085351  -0.058805  0  3.332152  0
N  N19  1  0.71240805  0.25984041  0.35147068  1  0  -0.065573  0  3.05355  0  0  -0.054772  0  3.335966  0  0  -0.051688  0  3.345022  0  0  -0.084586  -0.056642  0  3.329921  0
N  N20  1  0.89620906  0.84496955  0.73757250  1  0  -0.105717  0  3.063131  0  0  -0.090415  0  3.350295  0  0  -0.089153  0  3.35878  0  0  -0.097412  -0.091085  0  3.34465  0
N  N21  1  0.65850994  0.10738898  0.26235952  1  0  -0.106363  0  3.061861  0  0  -0.091378  0  3.349503  0  0  -0.090055  0  3.357892  0  0  -0.097177  -0.091984  0  3.343739  0
N  N22  1  0.85606850  0.68423782  0.61733586  1  0  -0.420815  0  3.154319  0  0  -0.342431  0  3.463347  0  0  -0.363403  0  3.469411  0  0  -0.272021  -0.328465  0  3.459233  0
N  N23  1  0.73836899  0.06690881  0.38266978  1  0  -0.421567  0  3.153849  0  0  -0.34276  0  3.46264  0  0  -0.363948  0  3.46845  0  0  -0.272852  -0.328833  0  3.45855  0
N  N24  1  0.82091205  0.88632295  0.02260378  1  0  -0.701175  0  3.081993  0  0  -0.661756  0  3.311191  0  0  -0.680061  0  3.305622  0  0  -0.584978  -0.647998  0  3.314561  0
N  N25  1  0.29830551  0.86336776  0.97735073  1  0  -0.701963  0  3.08221  0  0  -0.661979  0  3.31131  0  0  -0.680803  0  3.305775  0  0  -0.584872  -0.648658  0  3.314804  0
N  N26  1  0.79554062  0.60712936  0.86876302  1  0  -0.427316  0  3.173447  0  0  -0.350065  0  3.483615  0  0  -0.371934  0  3.491595  0  0  -0.271823  -0.335454  0  3.478151  0
N  N27  1  0.42679169  0.73801686  0.13119898  1  0  -0.427465  0  3.173877  0  0  -0.350115  0  3.484113  0  0  -0.371945  0  3.492056  0  0  -0.272106  -0.335498  0  3.478574  0
N  N28  1  0.75546380  0.49417667  0.88894409  1  0  -0.060677  0  2.960749  0  0  -0.071391  0  3.256269  0  0  -0.066758  0  3.265073  0  0  -0.103833  -0.074288  0  3.2503  0
N  N29  1  0.36653433  0.60491582  0.11107230  1  0  -0.059601  0  2.961589  0  0  -0.070306  0  3.257084  0  0  -0.065674  0  3.265884  0  0  -0.103218  -0.073199  0  3.251111  0
N  N30  1  0.72088146  0.55766107  0.01616429  1  0  -0.076884  0  3.038927  0  0  -0.060862  0  3.329897  0  0  -0.06008  0  3.339216  0  0  -0.090714  -0.061199  0  3.323605  0
N  N31  1  0.20467565  0.54118903  0.98385778  1  0  -0.077735  0  3.039111  0  0  -0.061775  0  3.330429  0  0  -0.060981  0  3.339716  0  0  -0.090807  -0.062114  0  3.324145  0
N  N32  1  0.73912082  0.71497631  0.08625475  1  0  -0.42761  0  3.177056  0  0  -0.352557  0  3.480564  0  0  -0.373877  0  3.488777  0  0  -0.275734  -0.33837  0  3.475075  0
N  N33  1  0.15280232  0.62838792  0.91372160  1  0  -0.426999  0  3.176901  0  0  -0.352184  0  3.480921  0  0  -0.373441  0  3.48904  0  0  -0.276189  -0.337985  0  3.475348  0
