# generated using pymatgen
data_SnH13C9NO4
_symmetry_space_group_name_H-M   'P 1'
_cell_length_a   6.53792691
_cell_length_b   10.01319865
_cell_length_c   19.68800000
_cell_angle_alpha   90.00000000
_cell_angle_beta   93.33375784
_cell_angle_gamma   90.00000000
_symmetry_Int_Tables_number   1
_chemical_formula_structural   SnH13C9NO4
_chemical_formula_sum   'Sn4 H52 C36 N4 O16'
_cell_volume   1286.70481760
_cell_formula_units_Z   4
loop_
 _symmetry_equiv_pos_site_id
 _symmetry_equiv_pos_as_xyz
  1  'x, y, z'
loop_
 _atom_site_type_symbol
 _atom_site_label
 _atom_site_symmetry_multiplicity
 _atom_site_fract_x
 _atom_site_fract_y
 _atom_site_fract_z
 _atom_site_occupancy
 _atom_site_hle17_bader_spin_density
 _atom_site_hle17_ddec_charge
 _atom_site_hle17_ddec_spin_density
 _atom_site_hle17_ddec_sum_bond_order
 _atom_site_hle17_magmom
 _atom_site_hse06_10hf_bader_spin_density
 _atom_site_hse06_10hf_ddec_charge
 _atom_site_hse06_10hf_ddec_spin_density
 _atom_site_hse06_10hf_ddec_sum_bond_order
 _atom_site_hse06_10hf_magmom
 _atom_site_hse06_bader_spin_density
 _atom_site_hse06_ddec_charge
 _atom_site_hse06_ddec_spin_density
 _atom_site_hse06_ddec_sum_bond_order
 _atom_site_hse06_magmom
 _atom_site_pbe_bader_charge
 _atom_site_pbe_bader_spin_density
 _atom_site_pbe_cm5_charge
 _atom_site_pbe_ddec_charge
 _atom_site_pbe_ddec_spin_density
 _atom_site_pbe_ddec_sum_bond_order
 _atom_site_pbe_magmom
Sn  Sn0  1  0.43300434  0.44077324  0.72094606  1  0  1.373672  0  2.882117  0  0  1.247259  0  3.362172  0  0  1.285313  0  3.348203  0  1.690415  0  0.525493  1.220875  0  3.3716  0
Sn  Sn1  1  0.43300281  0.05922583  0.22094502  1  0  1.373798  0  2.881969  0  0  1.247333  0  3.362097  0  0  1.285387  0  3.348129  0  1.690461  0  0.525516  1.220948  0  3.371526  0
Sn  Sn2  1  0.56700133  0.55922490  0.27905227  1  0  1.373708  0  2.882067  0  0  1.247266  0  3.362203  0  0  1.285322  0  3.348239  0  1.690581  0  0.525498  1.220883  0  3.371628  0
Sn  Sn3  1  0.56700287  0.94077430  0.77905382  1  0  1.373764  0  2.882081  0  0  1.247337  0  3.362192  0  0  1.285389  0  3.348224  0  1.690436  0  0.525496  1.220952  0  3.371621  0
H  H4  1  0.37357916  0.63120190  0.62317162  1  0  0.151947  0  0.996965  0  0  0.170442  0  1.053564  0  0  0.173065  0  1.054117  0  0.044926  0  0.084073  0.168407  0  1.053618  0
H  H5  1  0.37357457  0.86879830  0.12316950  1  0  0.151897  0  0.996962  0  0  0.170411  0  1.053543  0  0  0.173039  0  1.05409  0  0.044943  0  0.084051  0.168375  0  1.053599  0
H  H6  1  0.62641885  0.36879724  0.37682707  1  0  0.151887  0  0.996927  0  0  0.170396  0  1.053519  0  0  0.173021  0  1.05407  0  0.044948  0  0.084051  0.16836  0  1.053576  0
H  H7  1  0.62642345  0.13119884  0.87682919  1  0  0.151882  0  0.996884  0  0  0.170395  0  1.05347  0  0  0.17302  0  1.05402  0  0.044971  0  0.084036  0.16836  0  1.053524  0
H  H8  1  0.18894835  0.65187062  0.68611323  1  0  0.152195  0  0.990351  0  0  0.170934  0  1.046472  0  0  0.173394  0  1.047414  0  0.067233  0  0.08525  0.168955  0  1.046462  0
H  H9  1  0.18894529  0.84812958  0.18611215  1  0  0.152183  0  0.990352  0  0  0.170922  0  1.046478  0  0  0.173381  0  1.047422  0  0.067214  0  0.08524  0.168944  0  1.046469  0
H  H10  1  0.81105273  0.34812552  0.31388552  1  0  0.152184  0  0.990343  0  0  0.170922  0  1.046468  0  0  0.173382  0  1.047411  0  0.067375  0  0.085244  0.168944  0  1.046459  0
H  H11  1  0.81105579  0.15187355  0.81388812  1  0  0.152213  0  0.990309  0  0  0.170945  0  1.046438  0  0  0.173405  0  1.047381  0  0.067179  0  0.085252  0.168968  0  1.046428  0
H  H12  1  0.15643809  0.52227167  0.62276803  1  0  0.149153  0  0.992042  0  0  0.167293  0  1.047721  0  0  0.169845  0  1.048301  0  0.049346  0  0.083176  0.165699  0  1.046839  0
H  H13  1  0.15643350  0.97772753  0.12276693  1  0  0.149161  0  0.991984  0  0  0.167301  0  1.047671  0  0  0.169851  0  1.048253  0  0.049296  0  0.083186  0.165707  0  1.046789  0
H  H14  1  0.84356452  0.47772347  0.37723177  1  0  0.149107  0  0.992076  0  0  0.167262  0  1.04773  0  0  0.169814  0  1.048309  0  0.049221  0  0.083179  0.165668  0  1.046847  0
H  H15  1  0.84356758  0.02227061  0.87723183  1  0  0.14919  0  0.991927  0  0  0.167336  0  1.047606  0  0  0.169887  0  1.048186  0  0.049536  0  0.08321  0.165741  0  1.046725  0
H  H16  1  0.83816376  0.42061584  0.76236721  1  0  0.151003  0  0.999146  0  0  0.170135  0  1.05631  0  0  0.172424  0  1.057384  0  0.01069  0  0.084254  0.168395  0  1.055869  0
H  H17  1  0.83816529  0.07938223  0.26236216  1  0  0.151003  0  0.999211  0  0  0.170167  0  1.056332  0  0  0.172455  0  1.057408  0  0.010542  0  0.084262  0.168427  0  1.055893  0
H  H18  1  0.16184192  0.57937530  0.23763264  1  0  0.150994  0  0.999217  0  0  0.170171  0  1.056322  0  0  0.17246  0  1.057397  0  0.010591  0  0.08425  0.168433  0  1.055881  0
H  H19  1  0.16183732  0.92062590  0.73763611  1  0  0.151037  0  0.999211  0  0  0.170215  0  1.05631  0  0  0.172501  0  1.057389  0  0.01066  0  0.084277  0.168475  0  1.05587  0
H  H20  1  0.81078001  0.51398061  0.68537914  1  0  0.147845  0  0.998872  0  0  0.167971  0  1.053854  0  0  0.169988  0  1.05543  0  0.040547  0  0.083563  0.166344  0  1.053141  0
H  H21  1  0.81077541  0.98601759  0.18537499  1  0  0.147807  0  0.998872  0  0  0.167962  0  1.053824  0  0  0.169978  0  1.055402  0  0.040462  0  0.083563  0.166337  0  1.05311  0
H  H22  1  0.18923486  0.48601253  0.31461988  1  0  0.147863  0  0.998882  0  0  0.167993  0  1.053852  0  0  0.170008  0  1.055431  0  0.040423  0  0.08357  0.166369  0  1.053136  0
H  H23  1  0.18923792  0.01399053  0.81462248  1  0  0.147918  0  0.998815  0  0  0.168033  0  1.053801  0  0  0.170048  0  1.05538  0  0.040325  0  0.083595  0.166408  0  1.053087  0
H  H24  1  0.79214012  0.33488600  0.68320539  1  0  0.165208  0  0.984362  0  0  0.182274  0  1.039719  0  0  0.185409  0  1.039757  0  0.036262  0  0.087392  0.180003  0  1.039825  0
H  H25  1  0.79213705  0.16511307  0.18320076  1  0  0.165204  0  0.984337  0  0  0.182257  0  1.039723  0  0  0.185394  0  1.039762  0  0.036223  0  0.087391  0.179988  0  1.039827  0
H  H26  1  0.20786402  0.66510915  0.31679393  1  0  0.165152  0  0.984375  0  0  0.18223  0  1.039726  0  0  0.185367  0  1.039764  0  0.036342  0  0.087369  0.179959  0  1.039831  0
H  H27  1  0.20786709  0.83489505  0.81679754  1  0  0.165198  0  0.984328  0  0  0.182274  0  1.039685  0  0  0.185413  0  1.03972  0  0.036437  0  0.087387  0.180004  0  1.039788  0
H  H28  1  0.38998674  0.29486781  0.83540995  1  0  0.152145  0  1.009247  0  0  0.167936  0  1.071915  0  0  0.17047  0  1.072962  0  0.041111  0  0.082618  0.165975  0  1.071605  0
H  H29  1  0.38998827  0.20513125  0.33540947  1  0  0.152189  0  1.009266  0  0  0.167939  0  1.071964  0  0  0.170474  0  1.073009  0  0.041377  0  0.0826  0.165977  0  1.071656  0
H  H30  1  0.61001740  0.70513032  0.16458785  1  0  0.152068  0  1.009358  0  0  0.167877  0  1.072006  0  0  0.170426  0  1.073037  0  0.041081  0  0.082615  0.165915  0  1.071695  0
H  H31  1  0.61001894  0.79486588  0.66458940  1  0  0.152158  0  1.00929  0  0  0.167948  0  1.071955  0  0  0.170484  0  1.072994  0  0.041122  0  0.082632  0.165989  0  1.071642  0
H  H32  1  0.17715555  0.26496229  0.77605362  1  0  0.152856  0  0.994144  0  0  0.171461  0  1.049461  0  0  0.174169  0  1.050215  0  0.040283  0  0.084921  0.169375  0  1.049312  0
H  H33  1  0.17716015  0.23503878  0.27605218  1  0  0.152892  0  0.994135  0  0  0.171491  0  1.049446  0  0  0.1742  0  1.0502  0  0.040348  0  0.084934  0.169407  0  1.049297  0
H  H34  1  0.82284859  0.73503885  0.22394468  1  0  0.152816  0  0.994138  0  0  0.171437  0  1.049449  0  0  0.174146  0  1.050204  0  0.040275  0  0.084914  0.169341  0  1.049314  0
H  H35  1  0.82284706  0.76495936  0.72394770  1  0  0.152854  0  0.994089  0  0  0.171459  0  1.04941  0  0  0.174168  0  1.050163  0  0.040333  0  0.084911  0.169367  0  1.049271  0
H  H36  1  0.18819454  0.41565140  0.82624190  1  0  0.16273  0  1.018931  0  0  0.176586  0  1.082281  0  0  0.179954  0  1.081866  0  0.090393  0  0.081541  0.174214  0  1.082603  0
H  H37  1  0.18819608  0.08434967  0.32624092  1  0  0.16272  0  1.018995  0  0  0.176527  0  1.082386  0  0  0.179891  0  1.08197  0  0.090432  0  0.081526  0.174156  0  1.08271  0
H  H38  1  0.81180960  0.58434774  0.17375589  1  0  0.162724  0  1.019033  0  0  0.176546  0  1.082424  0  0  0.179914  0  1.082013  0  0.090424  0  0.081539  0.174174  0  1.082744  0
H  H39  1  0.81181113  0.91564747  0.67375795  1  0  0.162713  0  1.018966  0  0  0.176542  0  1.082344  0  0  0.179908  0  1.081931  0  0.090481  0  0.081523  0.174171  0  1.082666  0
H  H40  1  0.48935454  0.02839352  0.57690269  1  0  0.128191  0  0.92077  0  0  0.135908  0  0.988599  0  0  0.138922  0  0.986169  0  0.136664  0  0.125611  0.133852  0  0.990293  0
H  H41  1  0.48935760  0.47160055  0.07690021  1  0  0.128153  0  0.920837  0  0  0.135884  0  0.988681  0  0  0.138905  0  0.986227  0  0.13655  0  0.125604  0.133836  0  0.990385  0
H  H42  1  0.51064195  0.97160661  0.42309699  1  0  0.128207  0  0.920818  0  0  0.135925  0  0.988642  0  0  0.138944  0  0.986205  0  0.136574  0  0.125614  0.13388  0  0.990342  0
H  H43  1  0.51063735  0.52839559  0.92309842  1  0  0.128171  0  0.920817  0  0  0.135925  0  0.988653  0  0  0.138924  0  0.986194  0  0.136481  0  0.125599  0.133877  0  0.990352  0
H  H44  1  0.28237455  0.97210096  0.62376714  1  0  0.110232  0  0.916924  0  0  0.123449  0  0.978315  0  0  0.125213  0  0.977418  0  0.101087  0  0.123629  0.121584  0  0.980263  0
H  H45  1  0.28237302  0.52789625  0.12376254  1  0  0.110245  0  0.916785  0  0  0.123461  0  0.9782  0  0  0.125223  0  0.977298  0  0.101254  0  0.123627  0.121605  0  0.980155  0
H  H46  1  0.71763112  0.02789618  0.37623424  1  0  0.110243  0  0.916896  0  0  0.123465  0  0.978276  0  0  0.125229  0  0.977374  0  0.10123  0  0.123632  0.121609  0  0.980235  0
H  H47  1  0.71763112  0.47210688  0.87623780  1  0  0.110272  0  0.91671  0  0  0.123493  0  0.978141  0  0  0.125237  0  0.977227  0  0.101086  0  0.123626  0.121636  0  0.980096  0
H  H48  1  0.06731718  0.29869876  0.41218273  1  0  0.142953  0  0.94429  0  0  0.152184  0  0.999872  0  0  0.156268  0  0.997937  0  0.127437  0  0.121223  0.149247  0  1.001396  0
H  H49  1  0.06731411  0.20130830  0.91217658  1  0  0.142896  0  0.944358  0  0  0.152174  0  0.999907  0  0  0.156259  0  0.997971  0  0.127033  0  0.121208  0.149238  0  1.001431  0
H  H50  1  0.93267930  0.70130437  0.58782101  1  0  0.142878  0  0.944314  0  0  0.152146  0  0.999872  0  0  0.15623  0  0.997938  0  0.127388  0  0.121203  0.149211  0  1.001394  0
H  H51  1  0.93266551  0.79870382  0.08782481  1  0  0.142891  0  0.944228  0  0  0.152177  0  0.999771  0  0  0.156253  0  0.997846  0  0.127236  0  0.121229  0.149239  0  1.001298  0
H  H52  1  0.75180068  0.23399416  0.49046327  1  0  0.161405  0  0.960718  0  0  0.166675  0  1.019865  0  0  0.171936  0  1.015753  0  0.192152  0  0.121867  0.162699  0  1.02325  0
H  H53  1  0.75180221  0.26600191  0.99046025  1  0  0.161447  0  0.960663  0  0  0.166698  0  1.019824  0  0  0.171962  0  1.015712  0  0.192172  0  0.121895  0.162723  0  1.023209  0
H  H54  1  0.24819427  0.76600198  0.50953790  1  0  0.161388  0  0.960674  0  0  0.166662  0  1.019828  0  0  0.171921  0  1.015716  0  0.192191  0  0.121862  0.162686  0  1.023215  0
H  H55  1  0.24818355  0.73400821  0.00954379  1  0  0.161342  0  0.96065  0  0  0.166661  0  1.019756  0  0  0.171928  0  1.015641  0  0.192076  0  0.121891  0.162684  0  1.023149  0
C  C56  1  0.26719574  0.57906871  0.65515423  1  0  -0.713138  0  3.525319  0  0  -0.750219  0  3.750986  0  0  -0.764254  0  3.758241  0  -0.483395  0  -0.337451  -0.740136  0  3.746177  0
C  C57  1  0.26719115  0.92093249  0.15515313  1  0  -0.713126  0  3.525204  0  0  -0.750216  0  3.750848  0  0  -0.764252  0  3.758101  0  -0.483391  0  -0.337455  -0.740132  0  3.746042  0
C  C58  1  0.73280687  0.42092843  0.34484404  1  0  -0.713059  0  3.525293  0  0  -0.750147  0  3.750882  0  0  -0.76418  0  3.758126  0  -0.48345  0  -0.337436  -0.740064  0  3.746075  0
C  C59  1  0.73281146  0.07906864  0.84484565  1  0  -0.713149  0  3.525096  0  0  -0.750244  0  3.750766  0  0  -0.764278  0  3.758017  0  -0.48362  0  -0.337453  -0.74016  0  3.745958  0
C  C60  1  0.75829078  0.42519780  0.71191682  1  0  -0.715611  0  3.516603  0  0  -0.753136  0  3.738738  0  0  -0.767097  0  3.746459  0  -0.394748  0  -0.333627  -0.743361  0  3.733733  0
C  C61  1  0.75828772  0.07480027  0.21191270  1  0  -0.715584  0  3.516615  0  0  -0.753155  0  3.738745  0  0  -0.767112  0  3.746471  0  -0.39442  0  -0.333629  -0.743385  0  3.733738  0
C  C62  1  0.24171796  0.57479734  0.28808208  1  0  -0.715585  0  3.516768  0  0  -0.753164  0  3.738861  0  0  -0.767122  0  3.746589  0  -0.394586  0  -0.333609  -0.743397  0  3.733847  0
C  C63  1  0.24171949  0.92520585  0.78808516  1  0  -0.71575  0  3.516666  0  0  -0.753312  0  3.738766  0  0  -0.76727  0  3.746491  0  -0.394646  0  -0.333676  -0.74354  0  3.733758  0
C  C64  1  0.27741198  0.34178489  0.79958811  1  0  -0.728739  0  3.531889  0  0  -0.771115  0  3.766648  0  0  -0.785344  0  3.77329  0  -0.465189  0  -0.340281  -0.761211  0  3.762346  0
C  C65  1  0.27741505  0.15821618  0.29958715  1  0  -0.728838  0  3.531961  0  0  -0.771126  0  3.766816  0  0  -0.785348  0  3.773457  0  -0.465539  0  -0.340262  -0.761214  0  3.762491  0
C  C66  1  0.72259369  0.65821524  0.20041022  1  0  -0.728596  0  3.532036  0  0  -0.770983  0  3.766783  0  0  -0.785228  0  3.773408  0  -0.465243  0  -0.340262  -0.761068  0  3.762496  0
C  C67  1  0.72259216  0.84178196  0.70041172  1  0  -0.728754  0  3.531932  0  0  -0.771111  0  3.766709  0  0  -0.785334  0  3.773356  0  -0.465379  0  -0.340267  -0.761203  0  3.762413  0
C  C68  1  0.40689839  0.16432811  0.65471865  1  0  0.688452  0  3.829704  0  0  0.635962  0  4.133745  0  0  0.669914  0  4.124442  0  1.596858  0  0.235687  0.612952  0  4.139121  0
C  C69  1  0.40689992  0.33567196  0.15471715  1  0  0.688277  0  3.829834  0  0  0.635889  0  4.133744  0  0  0.669837  0  4.124439  0  1.596772  0  0.235709  0.612891  0  4.139124  0
C  C70  1  0.59309963  0.83567302  0.34527954  1  0  0.688543  0  3.829664  0  0  0.63601  0  4.13374  0  0  0.669964  0  4.124435  0  1.596964  0  0.235727  0.613015  0  4.139121  0
C  C71  1  0.59310269  0.66433117  0.84528315  1  0  0.688385  0  3.82974  0  0  0.636004  0  4.13366  0  0  0.669928  0  4.124346  0  1.596912  0  0.235704  0.613005  0  4.139043  0
C  C72  1  0.34889502  0.06008569  0.60026657  1  0  -0.133309  0  3.656049  0  0  -0.198139  0  3.918512  0  0  -0.196729  0  3.923068  0  0.306581  0  -0.049041  -0.198918  0  3.915586  0
C  C73  1  0.34889809  0.43990938  0.10026307  1  0  -0.133294  0  3.65594  0  0  -0.198204  0  3.918452  0  0  -0.196774  0  3.92297  0  0.306696  0  -0.049056  -0.19903  0  3.915587  0
C  C74  1  0.65110146  0.93991344  0.39973362  1  0  -0.133403  0  3.656045  0  0  -0.198209  0  3.918457  0  0  -0.196804  0  3.923014  0  0.306563  0  -0.049064  -0.199043  0  3.9156  0
C  C75  1  0.65109993  0.56009076  0.89973765  1  0  -0.133299  0  3.655802  0  0  -0.198253  0  3.918335  0  0  -0.196725  0  3.922721  0  0.30685  0  -0.049022  -0.199074  0  3.915465  0
C  C76  1  0.26210294  0.18351479  0.49115300  1  0  0.555413  0  3.790537  0  0  0.510209  0  4.080794  0  0  0.539113  0  4.080082  0  1.377537  0  0.256581  0.490653  0  4.080803  0
C  C77  1  0.26212439  0.31648129  0.99114833  1  0  0.55547  0  3.790685  0  0  0.51041  0  4.080747  0  0  0.539295  0  4.080045  0  1.377964  0  0.256671  0.490888  0  4.080716  0
C  C78  1  0.73787668  0.81648335  0.50885042  1  0  0.555312  0  3.79075  0  0  0.510296  0  4.080725  0  0  0.539186  0  4.08002  0  1.377963  0  0.256557  0.490733  0  4.080749  0
C  C79  1  0.73786749  0.68352084  0.00885329  1  0  0.555167  0  3.790648  0  0  0.509939  0  4.080966  0  0  0.538819  0  4.080278  0  1.377162  0  0.256455  0.490426  0  4.080921  0
C  C80  1  0.06974407  0.24199260  0.45922422  1  0  -0.155309  0  3.613569  0  0  -0.17655  0  3.864433  0  0  -0.180903  0  3.877738  0  -0.045722  0  -0.06728  -0.17363  0  3.855051  0
C  C81  1  0.06974407  0.25801046  0.95921964  1  0  -0.155329  0  3.61367  0  0  -0.176687  0  3.864502  0  0  -0.18103  0  3.877803  0  -0.045757  0  -0.067295  -0.173778  0  3.855115  0
C  C82  1  0.93025394  0.75800753  0.54077702  1  0  -0.155305  0  3.613709  0  0  -0.17664  0  3.864507  0  0  -0.180991  0  3.877816  0  -0.045937  0  -0.067285  -0.173715  0  3.855125  0
C  C83  1  0.93024169  0.74199567  0.04078186  1  0  -0.155384  0  3.613512  0  0  -0.176684  0  3.864438  0  0  -0.181018  0  3.877745  0  -0.046076  0  -0.067338  -0.173777  0  3.855048  0
C  C84  1  0.91402563  0.21093160  0.49771272  1  0  -0.155117  0  3.596955  0  0  -0.179314  0  3.851725  0  0  -0.182614  0  3.863553  0  -0.09873  0  -0.06828  -0.176978  0  3.843673  0
C  C85  1  0.91403022  0.28906447  0.99770976  1  0  -0.155017  0  3.5972  0  0  -0.1792  0  3.851981  0  0  -0.182499  0  3.863805  0  -0.09854  0  -0.068206  -0.176865  0  3.843933  0
C  C86  1  0.08596473  0.78906454  0.50228837  1  0  -0.155113  0  3.597095  0  0  -0.179315  0  3.851911  0  0  -0.182607  0  3.86373  0  -0.098567  0  -0.068267  -0.176978  0  3.843859  0
C  C87  1  0.08596013  0.71094065  0.00229336  1  0  -0.154779  0  3.597023  0  0  -0.179064  0  3.851812  0  0  -0.182361  0  3.863625  0  -0.098403  0  -0.068158  -0.17673  0  3.843769  0
C  C88  1  0.99708084  0.13020015  0.55695932  1  0  0.538093  0  3.804055  0  0  0.492493  0  4.100722  0  0  0.520045  0  4.101437  0  1.374276  0  0.248126  0.473975  0  4.099568  0
C  C89  1  0.99709310  0.36978693  0.05695042  1  0  0.537744  0  3.803704  0  0  0.492214  0  4.100315  0  0  0.51975  0  4.101051  0  1.37463  0  0.247929  0.473696  0  4.099156  0
C  C90  1  0.00292024  0.86979699  0.44303943  1  0  0.538168  0  3.804181  0  0  0.492528  0  4.100916  0  0  0.52007  0  4.101639  0  1.374205  0  0.248152  0.474012  0  4.099758  0
C  C91  1  0.00290032  0.63021520  0.94305377  1  0  0.537787  0  3.803524  0  0  0.492319  0  4.100071  0  0  0.519856  0  4.100806  0  1.374377  0  0.248002  0.473801  0  4.098915  0
N  N92  1  0.20613425  0.11114930  0.54791707  1  0  -0.298722  0  3.443485  0  0  -0.222257  0  3.682057  0  0  -0.247116  0  3.701114  0  -1.211558  0  -0.267996  -0.205311  0  3.668375  0
N  N93  1  0.20613885  0.38884378  0.04791512  1  0  -0.298583  0  3.443374  0  0  -0.222205  0  3.681967  0  0  -0.247053  0  3.701014  0  -1.21171  0  -0.268061  -0.205259  0  3.668292  0
N  N94  1  0.79386223  0.88884584  0.45208312  1  0  -0.298724  0  3.443361  0  0  -0.222323  0  3.681933  0  0  -0.247175  0  3.700988  0  -1.211533  0  -0.268014  -0.205359  0  3.668269  0
N  N95  1  0.79385457  0.61115735  0.95208703  1  0  -0.298591  0  3.443388  0  0  -0.222126  0  3.681975  0  0  -0.247004  0  3.701006  0  -1.21137  0  -0.267983  -0.205185  0  3.668297  0
O  O96  1  0.35725585  0.28490297  0.64048694  1  0  -0.607403  0  2.013374  0  0  -0.541887  0  2.244661  0  0  -0.568114  0  2.237805  0  -1.182766  0  -0.279592  -0.523438  0  2.248715  0
O  O97  1  0.35725585  0.21509410  0.14048643  1  0  -0.607354  0  2.01345  0  0  -0.541857  0  2.244689  0  0  -0.568087  0  2.237837  0  -1.18289  0  -0.279566  -0.523408  0  2.248741  0
O  O98  1  0.64274063  0.71509617  0.35951172  1  0  -0.607438  0  2.013316  0  0  -0.541921  0  2.244631  0  0  -0.568151  0  2.237775  0  -1.182954  0  -0.27961  -0.523467  0  2.24867  0
O  O99  1  0.64274523  0.78490503  0.85951333  1  0  -0.60737  0  2.013608  0  0  -0.541888  0  2.244858  0  0  -0.568119  0  2.238014  0  -1.182847  0  -0.279584  -0.523437  0  2.248907  0
O  O100  1  0.50180309  0.12903170  0.70938607  1  0  -0.629226  0  2.052411  0  0  -0.557017  0  2.290079  0  0  -0.584397  0  2.284303  0  -1.211246  0  -0.272473  -0.537494  0  2.293202  0
O  O101  1  0.50180309  0.37097137  0.20938353  1  0  -0.629125  0  2.05245  0  0  -0.556955  0  2.290101  0  0  -0.584337  0  2.284328  0  -1.21121  0  -0.272483  -0.537431  0  2.293217  0
O  O102  1  0.49820259  0.87097044  0.29061226  1  0  -0.629322  0  2.052531  0  0  -0.557048  0  2.290187  0  0  -0.584429  0  2.28441  0  -1.211321  0  -0.272518  -0.537525  0  2.293304  0
O  O103  1  0.49820259  0.62902977  0.79061429  1  0  -0.629227  0  2.052249  0  0  -0.55704  0  2.289854  0  0  -0.584424  0  2.284093  0  -1.211198  0  -0.272494  -0.537516  0  2.292973  0
O  O104  1  0.43723455  0.19454423  0.47262822  1  0  -0.480847  0  1.938345  0  0  -0.436682  0  2.148489  0  0  -0.456887  0  2.14275  0  -1.118079  0  -0.249921  -0.422825  0  2.152538  0
O  O105  1  0.43722842  0.30545085  0.97262810  1  0  -0.480766  0  1.938683  0  0  -0.436628  0  2.148756  0  0  -0.456821  0  2.143016  0  -1.118307  0  -0.249892  -0.422785  0  2.152785  0
O  O106  1  0.56277419  0.80546090  0.52737322  1  0  -0.480705  0  1.938702  0  0  -0.436592  0  2.148744  0  0  -0.456785  0  2.143002  0  -1.118362  0  -0.249888  -0.422733  0  2.152796  0
O  O107  1  0.56275580  0.69454829  0.02737134  1  0  -0.480497  0  1.938529  0  0  -0.436324  0  2.148705  0  0  -0.456519  0  2.142978  0  -1.117767  0  -0.249748  -0.422474  0  2.15271  0
O  O108  1  0.90596816  0.08750151  0.60512264  1  0  -0.466064  0  1.910413  0  0  -0.422843  0  2.115509  0  0  -0.441983  0  2.111562  0  -1.112348  0  -0.249065  -0.409898  0  2.117919  0
O  O109  1  0.90596662  0.41249656  0.10512668  1  0  -0.466045  0  1.909656  0  0  -0.422816  0  2.11467  0  0  -0.441973  0  2.110758  0  -1.112627  0  -0.248997  -0.409864  0  2.117076  0
O  O110  1  0.09403139  0.91249463  0.39488065  1  0  -0.46604  0  1.910758  0  0  -0.422803  0  2.115876  0  0  -0.441944  0  2.111943  0  -1.11234  0  -0.249037  -0.409857  0  2.118281  0
O  O111  1  0.09403752  0.58750457  0.89487823  1  0  -0.466124  0  1.909397  0  0  -0.422944  0  2.114415  0  0  -0.442103  0  2.110506  0  -1.11239  0  -0.249095  -0.409992  0  2.116823  0
