# generated using pymatgen
data_Zn4H2C24S4Br4Cl2O13
_symmetry_space_group_name_H-M   'P 1'
_cell_length_a   19.68326975
_cell_length_b   19.76914271
_cell_length_c   33.38918659
_cell_angle_alpha   78.91605068
_cell_angle_beta   79.16669208
_cell_angle_gamma   63.93052880
_symmetry_Int_Tables_number   1
_chemical_formula_structural   Zn4H2C24S4Br4Cl2O13
_chemical_formula_sum   'Zn16 H8 C96 S16 Br16 Cl8 O52'
_cell_volume   11373.75425728
_cell_formula_units_Z   4
loop_
 _symmetry_equiv_pos_site_id
 _symmetry_equiv_pos_as_xyz
  1  'x, y, z'
loop_
 _atom_site_type_symbol
 _atom_site_label
 _atom_site_symmetry_multiplicity
 _atom_site_fract_x
 _atom_site_fract_y
 _atom_site_fract_z
 _atom_site_occupancy
 _atom_site_pbe_bader_charge
 _atom_site_pbe_bader_spin_density
 _atom_site_pbe_cm5_charge
 _atom_site_pbe_ddec_charge
 _atom_site_pbe_ddec_spin_density
 _atom_site_pbe_ddec_sum_bond_order
 _atom_site_pbe_magmom
Zn  Zn0  1  0.05545080  0.40065516  0.47791211  1  1.316802  0  0.674101  0.976347  0  2.318416  0
Zn  Zn1  1  0.98583815  0.48395509  0.56017387  1  1.317402  0  0.674523  0.968985  0  2.369919  0
Zn  Zn2  1  0.05808545  0.56176662  0.48176275  1  1.323009  0  0.674761  0.970906  0  2.372763  0
Zn  Zn3  1  0.89993355  0.55513624  0.48018002  1  1.320024  0  0.67485  0.970786  0  2.375095  0
Zn  Zn4  1  0.69381704  0.34931647  0.27224954  1  1.316118  0  0.674084  0.97595  0  2.317585  0
Zn  Zn5  1  0.69082620  0.18822084  0.26601697  1  1.317439  0  0.674318  0.972866  0  2.346147  0
Zn  Zn6  1  0.76952845  0.26633679  0.19002264  1  1.322735  0  0.674961  0.971754  0  2.372324  0
Zn  Zn7  1  0.84748029  0.19514525  0.27163866  1  1.315912  0  0.675084  0.966037  0  2.400837  0
Zn  Zn8  1  0.26475672  0.76543307  0.68988660  1  1.317332  0  0.674451  0.96868  0  2.371751  0
Zn  Zn9  1  0.34960544  0.69768130  0.77122683  1  1.322187  0  0.6745  0.9732  0  2.346318  0
Zn  Zn10  1  0.19171038  0.84963895  0.77082502  1  1.323481  0  0.674571  0.975179  0  2.347348  0
Zn  Zn11  1  0.19223884  0.68782473  0.76826367  1  1.322616  0  0.67483  0.97167  0  2.370813  0
Zn  Zn12  1  0.55847349  0.06230763  0.98403407  1  1.316459  0  0.674275  0.972649  0  2.346683  0
Zn  Zn13  1  0.40284248  0.05225225  0.97688250  1  1.324111  0  0.674645  0.969068  0  2.368472  0
Zn  Zn14  1  0.55868845  0.90025619  0.97930142  1  1.320705  0  0.67423  0.974192  0  2.349734  0
Zn  Zn15  1  0.48008100  0.98392064  0.05997332  1  1.32163  0  0.675049  0.971995  0  2.372973  0
H  H16  1  0.74996654  0.44871351  0.34866745  1  0.14048  0  0.114317  0.13668  0  0.991096  0
H  H17  1  0.99896118  0.30299055  0.40125497  1  0.115532  0  0.114253  0.136383  0  0.992644  0
H  H18  1  0.20135528  0.69937751  0.60243825  1  0.131793  0  0.113526  0.134767  0  0.995759  0
H  H19  1  0.04870130  0.55077537  0.64746111  1  0.134702  0  0.11358  0.134847  0  0.9952  0
H  H20  1  0.64664217  0.14893911  0.04956834  1  0.118548  0  0.114045  0.135832  0  0.993736  0
H  H21  1  0.60356849  0.10069394  0.20046827  1  0.117633  0  0.114047  0.135906  0  0.993607  0
H  H22  1  0.30473814  0.99787766  0.90139647  1  0.132499  0  0.113077  0.134528  0  0.995887  0
H  H23  1  0.44660636  0.75056796  0.84852083  1  0.110759  0  0.113602  0.13524  0  0.994782  0
C  C24  1  0.06179826  0.31690027  0.56175046  1  1.605967  0  0.217359  0.624734  0  4.204767  0
C  C25  1  0.07025366  0.57158332  0.56739867  1  1.568939  0  0.230203  0.616455  0  4.155048  0
C  C26  1  0.18335603  0.43971222  0.43837891  1  1.61208  0  0.216677  0.623657  0  4.203595  0
C  C27  1  0.93514656  0.68433554  0.43873756  1  1.576861  0  0.215792  0.620088  0  4.209921  0
C  C28  1  0.92878513  0.43247639  0.43131785  1  1.578835  0  0.231014  0.618842  0  4.153188  0
C  C29  1  0.81778668  0.56086847  0.56339118  1  1.603086  0  0.216176  0.620058  0  4.208127  0
C  C30  1  0.56630315  0.30919430  0.31119310  1  1.590482  0  0.216816  0.622409  0  4.205126  0
C  C31  1  0.68376037  0.18051913  0.17964285  1  1.57747  0  0.231071  0.620134  0  4.147368  0
C  C32  1  0.68975033  0.43321479  0.18859345  1  1.595933  0  0.216663  0.622541  0  4.206777  0
C  C33  1  0.93559052  0.18792782  0.18965102  1  1.573695  0  0.216186  0.619564  0  4.212286  0
C  C34  1  0.81973746  0.31849587  0.31922733  1  1.588115  0  0.230337  0.617667  0  4.153581  0
C  C35  1  0.81211921  0.06563492  0.31089018  1  1.572426  0  0.216353  0.620881  0  4.209439  0
C  C36  1  0.43246011  0.68969523  0.68763624  1  1.592127  0  0.216992  0.623616  0  4.202952  0
C  C37  1  0.31619790  0.82256826  0.81869660  1  1.585024  0  0.231603  0.620562  0  4.148247  0
C  C38  1  0.18791213  0.93266659  0.68733738  1  1.554608  0  0.21705  0.622565  0  4.204499  0
C  C39  1  0.06554043  0.80916014  0.81114401  1  1.589362  0  0.216473  0.621622  0  4.207146  0
C  C40  1  0.17996017  0.67842268  0.68249440  1  1.582966  0  0.22981  0.617331  0  4.154315  0
C  C41  1  0.31599064  0.56649703  0.81171149  1  1.620424  0  0.216832  0.62196  0  4.205628  0
C  C42  1  0.43685871  0.18365311  0.93859357  1  1.618186  0  0.216437  0.620857  0  4.20795  0
C  C43  1  0.43540056  0.92633980  0.93081196  1  1.58355  0  0.230691  0.618339  0  4.151965  0
C  C44  1  0.68422604  0.94203945  0.93936523  1  1.587346  0  0.21689  0.624119  0  4.203717  0
C  C45  1  0.56069986  0.81685005  0.06251376  1  1.598953  0  0.215823  0.620664  0  4.207368  0
C  C46  1  0.56619164  0.06937011  0.07039125  1  1.585226  0  0.231093  0.619668  0  4.147748  0
C  C47  1  0.31412395  0.06188299  0.05921046  1  1.537902  0  0.215948  0.620169  0  4.207859  0
C  C48  1  0.89800713  0.40644033  0.40226981  1  -0.014472  0  -0.011688  -0.070281  0  3.913336  0
C  C49  1  0.85077910  0.34512052  0.34782626  1  0.056398  0  -0.011461  -0.070291  0  3.914247  0
C  C50  1  0.82673063  0.44807974  0.38697968  1  0.076284  0  0.023315  0.138618  0  4.008474  0
C  C51  1  0.92224832  0.30365352  0.36293307  1  0.050052  0  0.023428  0.139629  0  4.005705  0
C  C52  1  0.80486518  0.41681031  0.36040713  1  0.014101  0  -0.083099  -0.149654  0  3.947373  0
C  C53  1  0.94403455  0.33487454  0.38956086  1  0.070664  0  -0.083522  -0.14983  0  3.95093  0
C  C54  1  0.09989996  0.60065438  0.59543965  1  0.026579  0  -0.01053  -0.067843  0  3.915725  0
C  C55  1  0.15007972  0.64958166  0.65444902  1  -0.012723  0  -0.010737  -0.068424  0  3.91577  0
C  C56  1  0.14367160  0.64328232  0.58269526  1  0.075389  0  0.022995  0.137876  0  4.014496  0
C  C57  1  0.10623117  0.60702646  0.66719406  1  0.05048  0  0.022977  0.1375  0  4.013585  0
C  C58  1  0.16760008  0.66658161  0.61215499  1  0.054911  0  -0.083055  -0.148257  0  3.948948  0
C  C59  1  0.08236820  0.58366224  0.63773676  1  0.03517  0  -0.083366  -0.148307  0  3.948645  0
C  C60  1  0.30525497  0.45370928  0.40056759  1  0.012441  0  -0.021739  0.063933  0  3.989923  0
C  C61  1  0.44477545  0.29478049  0.34952963  1  -0.042981  0  -0.022394  0.061947  0  3.992928  0
C  C62  1  0.25854002  0.41556738  0.41385075  1  -0.150092  0  -0.028653  -0.17159  0  3.931952  0
C  C63  1  0.49146790  0.33289629  0.33615414  1  -0.113766  0  -0.028305  -0.169418  0  3.932068  0
C  C64  1  0.37697946  0.33870405  0.37302193  1  -0.077591  0  -0.028621  -0.059535  0  4.095764  0
C  C65  1  0.37315157  0.40973576  0.37714265  1  -0.149774  0  -0.029107  -0.060481  0  4.095787  0
C  C66  1  0.72547468  0.57556311  0.63112970  1  0.017105  0  -0.02192  0.063128  0  3.994607  0
C  C67  1  0.52491250  0.67377095  0.61998086  1  0.045295  0  -0.022165  0.063209  0  3.991138  0
C  C68  1  0.74346425  0.58481423  0.58870559  1  -0.164748  0  -0.028359  -0.169054  0  3.935319  0
C  C69  1  0.50692424  0.66487007  0.66243161  1  -0.127585  0  -0.028365  -0.169617  0  3.934191  0
C  C70  1  0.60455209  0.64126356  0.60853917  1  -0.171505  0  -0.028145  -0.059305  0  4.094142  0
C  C71  1  0.64583571  0.60799400  0.64257583  1  -0.106726  0  -0.028899  -0.059906  0  4.096144  0
C  C72  1  0.07673089  0.22458736  0.62960192  1  -0.002515  0  -0.022111  0.064067  0  3.991568  0
C  C73  1  0.17417054  0.02465234  0.61937573  1  -0.040369  0  -0.022124  0.062653  0  3.992352  0
C  C74  1  0.08606339  0.24254615  0.58712534  1  -0.06637  0  -0.028591  -0.171408  0  3.933099  0
C  C75  1  0.16443322  0.00684707  0.66184518  1  -0.080953  0  -0.028021  -0.169629  0  3.933241  0
C  C76  1  0.14217709  0.10400660  0.60755843  1  -0.110136  0  -0.028623  -0.05847  0  4.093931  0
C  C77  1  0.10878938  0.14522922  0.64136647  1  -0.176862  0  -0.028405  -0.061203  0  4.098066  0
C  C78  1  0.84112335  0.80203292  0.39693616  1  0.023183  0  -0.021757  0.063995  0  3.99342  0
C  C79  1  0.90582455  0.94812951  0.35284594  1  -0.097668  0  -0.0214  0.06473  0  3.989577  0
C  C80  1  0.90927913  0.75884948  0.41372402  1  -0.165336  0  -0.028623  -0.170798  0  3.939232  0
C  C81  1  0.83770728  0.99117645  0.33596558  1  -0.057356  0  -0.028795  -0.170031  0  3.939191  0
C  C82  1  0.90717767  0.87909235  0.37502381  1  -0.092393  0  -0.028675  -0.061171  0  4.09795  0
C  C83  1  0.83985360  0.87098304  0.37469173  1  -0.111176  0  -0.028456  -0.05931  0  4.095838  0
C  C84  1  0.65523614  0.15328332  0.15006002  1  0.007693  0  -0.011174  -0.069595  0  3.91165  0
C  C85  1  0.59493466  0.09637511  0.09997723  1  -0.000407  0  -0.011853  -0.069897  0  3.912056  0
C  C86  1  0.66738052  0.16693683  0.10674764  1  0.088806  0  0.023684  0.138606  0  4.010343  0
C  C87  1  0.58282332  0.08269912  0.14328370  1  0.082777  0  0.023574  0.138635  0  4.01021  0
C  C88  1  0.63733016  0.13846441  0.08290558  1  0.040731  0  -0.083525  -0.149145  0  3.947601  0
C  C89  1  0.61291414  0.11111242  0.16712848  1  0.042873  0  -0.083785  -0.149513  0  3.947142  0
C  C90  1  0.67349910  0.52503433  0.12060648  1  -0.003587  0  -0.022198  0.062621  0  3.99275  0
C  C91  1  0.57584785  0.72507914  0.13052756  1  -0.024193  0  -0.022432  0.062326  0  3.99364  0
C  C92  1  0.66471488  0.50742493  0.16312565  1  -0.068964  0  -0.02834  -0.170065  0  3.934555  0
C  C93  1  0.58502644  0.74272140  0.08803389  1  -0.114724  0  -0.028594  -0.169357  0  3.935021  0
C  C94  1  0.60815295  0.64577560  0.14243039  1  -0.11154  0  -0.02811  -0.058398  0  4.095328  0
C  C95  1  0.64120369  0.60434627  0.10869569  1  -0.177114  0  -0.028473  -0.060373  0  4.095947  0
C  C96  1  0.08307405  0.12320129  0.17740333  1  -0.070489  0  -0.021903  0.063444  0  3.992334  0
C  C97  1  0.16654696  0.12759566  0.07153864  1  0.036542  0  -0.021969  0.063148  0  3.994185  0
C  C98  1  0.01051527  0.16278807  0.16509620  1  -0.066795  0  -0.028417  -0.168512  0  3.9377  0
C  C99  1  0.23912767  0.08792449  0.08376341  1  -0.128267  0  -0.028494  -0.169767  0  3.936724  0
C  C100  1  0.10965033  0.14061792  0.10565634  1  -0.177998  0  -0.028517  -0.058262  0  4.094728  0
C  C101  1  0.14005059  0.11046091  0.14331636  1  -0.158449  0  -0.02825  -0.060756  0  4.096266  0
C  C102  1  0.34362868  0.85211507  0.84769376  1  -0.016349  0  -0.011811  -0.069874  0  3.910134  0
C  C103  1  0.40775176  0.89633707  0.90218838  1  0.079692  0  -0.011696  -0.070734  0  3.913701  0
C  C104  1  0.30320107  0.92293750  0.86299984  1  0.059833  0  0.022782  0.137443  0  4.011268  0
C  C105  1  0.44808297  0.82540783  0.88700034  1  0.05017  0  0.022379  0.137207  0  4.015578  0
C  C106  1  0.33575371  0.94333555  0.88961625  1  0.000109  0  -0.082698  -0.147471  0  3.946299  0
C  C107  1  0.41555257  0.80505856  0.86034740  1  0.085339  0  -0.082775  -0.149225  0  3.949557  0
C  C108  1  0.40993021  0.44742114  0.85313621  1  -0.071716  0  -0.022683  0.061878  0  3.995069  0
C  C109  1  0.34331657  0.30251535  0.89698691  1  -0.082971  0  -0.022558  0.062369  0  3.990373  0
C  C110  1  0.34183478  0.49153274  0.83644252  1  -0.115036  0  -0.028185  -0.169656  0  3.932188  0
C  C111  1  0.41138555  0.25849069  0.91375028  1  -0.103271  0  -0.027943  -0.168031  0  3.931506  0
C  C112  1  0.34274670  0.37135785  0.87487160  1  -0.104585  0  -0.028427  -0.060068  0  4.09369  0
C  C113  1  0.41056630  0.37852486  0.87519784  1  -0.072726  0  -0.02805  -0.0579  0  4.091664  0
C  C114  1  0.94364147  0.79587753  0.84960700  1  -0.022736  0  -0.022115  0.063127  0  3.993687  0
C  C115  1  0.80560934  0.95587974  0.90031612  1  0.008161  0  -0.022687  0.062563  0  3.996211  0
C  C116  1  0.99066650  0.83353503  0.83590470  1  -0.11614  0  -0.028768  -0.170725  0  3.93738  0
C  C117  1  0.75867738  0.91816449  0.91414167  1  -0.12642  0  -0.028418  -0.170955  0  3.935001  0
C  C118  1  0.87303769  0.91136756  0.87679423  1  -0.124223  0  -0.028852  -0.060218  0  4.097693  0
C  C119  1  0.87616996  0.84041750  0.87308319  1  -0.132598  0  -0.028637  -0.059946  0  4.095989  0
S  S120  1  0.29793860  0.32569011  0.39771759  1  0.311409  0  0.09313  0.155462  0  2.775678  0
S  S121  1  0.45221140  0.42268208  0.35240145  1  0.299778  0  0.093658  0.156015  0  2.777304  0
S  S122  1  0.66284410  0.63300589  0.56274638  1  0.306998  0  0.094514  0.157036  0  2.779611  0
S  S123  1  0.58755530  0.61660502  0.68837823  1  0.302808  0  0.093758  0.155908  0  2.779325  0
S  S124  1  0.13422156  0.16209943  0.56157053  1  0.304706  0  0.093363  0.155698  0  2.774824  0
S  S125  1  0.11632237  0.08730480  0.68736700  1  0.303252  0  0.094768  0.15814  0  2.779452  0
S  S126  1  0.97191260  0.80261342  0.40225817  1  0.308967  0  0.094422  0.157588  0  2.781917  0
S  S127  1  0.77523940  0.94729418  0.34728183  1  0.309543  0  0.093535  0.155945  0  2.779794  0
S  S128  1  0.61656550  0.58803083  0.18853173  1  0.303646  0  0.093181  0.155148  0  2.7753  0
S  S129  1  0.63321570  0.66211084  0.06261622  1  0.304845  0  0.094557  0.156973  0  2.776943  0
S  S130  1  0.01189986  0.18448582  0.11185154  1  0.352572  0  0.094474  0.156412  0  2.781846  0
S  S131  1  0.23781324  0.06656250  0.13704951  1  0.344313  0  0.094513  0.15774  0  2.781582  0
S  S132  1  0.27845308  0.44856422  0.84773972  1  0.310551  0  0.093709  0.156327  0  2.780598  0
S  S133  1  0.47467648  0.30151627  0.90253003  1  0.303379  0  0.092905  0.154201  0  2.779384  0
S  S134  1  0.95216358  0.92365432  0.85163438  1  0.298894  0  0.094174  0.156971  0  2.779928  0
S  S135  1  0.79708603  0.82811609  0.89830749  1  0.311434  0  0.094538  0.157452  0  2.780182  0
Br  Br136  1  0.28626292  0.55097387  0.41078904  1  0.015954  0  0.04923  -0.005018  0  1.400055  0
Br  Br137  1  0.46375353  0.19742277  0.33945232  1  0.011194  0  0.048248  -0.005608  0  1.389332  0
Br  Br138  1  0.79390309  0.52703588  0.67069102  1  0.009317  0  0.046967  -0.007704  0  1.397648  0
Br  Br139  1  0.45673841  0.72221584  0.58027731  1  0.008711  0  0.047454  -0.007181  0  1.398138  0
Br  Br140  1  0.02839106  0.29250248  0.66903223  1  0.010198  0  0.047257  -0.007442  0  1.400801  0
Br  Br141  1  0.22253502  0.95647642  0.58009625  1  0.017705  0  0.047027  -0.007629  0  1.400398  0
Br  Br142  1  0.75829662  0.77689340  0.40114477  1  0.010878  0  0.049358  -0.005092  0  1.399592  0
Br  Br143  1  0.98889814  0.97295384  0.34860180  1  0.01734  0  0.048368  -0.006675  0  1.409569  0
Br  Br144  1  0.72072497  0.45684970  0.08127838  1  0.0154  0  0.04917  -0.004904  0  1.40146  0
Br  Br145  1  0.52837223  0.79343560  0.16974854  1  0.012408  0  0.04896  -0.005461  0  1.399662  0
Br  Br146  1  0.10822660  0.08882043  0.23138444  1  0.018927  0  0.048463  -0.006311  0  1.408214  0
Br  Br147  1  0.14116907  0.16182774  0.01758544  1  0.012073  0  0.047492  -0.007393  0  1.398876  0
Br  Br148  1  0.49364249  0.47125788  0.84879391  1  0.012653  0  0.048363  -0.005621  0  1.387326  0
Br  Br149  1  0.25926126  0.27906637  0.90154301  1  0.010721  0  0.047137  -0.007488  0  1.398679  0
Br  Br150  1  0.96189394  0.69869781  0.83963163  1  0.011531  0  0.049013  -0.005243  0  1.396947  0
Br  Br151  1  0.78725346  0.05323122  0.91004129  1  0.013093  0  0.048097  -0.006054  0  1.388021  0
Cl  Cl152  1  0.76276212  0.53723549  0.39877111  1  -0.164923  0  -0.008873  -0.069225  0  1.490123  0
Cl  Cl153  1  0.98673546  0.21484976  0.35077985  1  -0.184296  0  -0.010243  -0.071413  0  1.495887  0
Cl  Cl154  1  0.17109786  0.66907067  0.53207507  1  -0.174816  0  -0.009434  -0.069825  0  1.487779  0
Cl  Cl155  1  0.07894509  0.58107925  0.71781412  1  -0.171064  0  -0.009608  -0.06989  0  1.487533  0
Cl  Cl156  1  0.71772526  0.21772226  0.08022467  1  -0.170968  0  -0.009546  -0.070055  0  1.488044  0
Cl  Cl157  1  0.53234867  0.03203319  0.16981301  1  -0.172305  0  -0.009465  -0.070002  0  1.48743  0
Cl  Cl158  1  0.21423258  0.98826710  0.85088656  1  -0.172019  0  -0.00874  -0.068437  0  1.478443  0
Cl  Cl159  1  0.53704729  0.76020790  0.89913516  1  -0.173296  0  -0.007678  -0.066976  0  1.477994  0
O  O160  1  0.00063172  0.49905044  0.49980721  1  -1.229937  0  -0.570434  -1.031094  0  2.517584  0
O  O161  1  0.07752136  0.31544771  0.52278111  1  -1.172082  0  -0.319403  -0.546309  0  2.316053  0
O  O162  1  0.03486155  0.53086654  0.58488409  1  -1.163014  0  -0.312784  -0.539281  0  2.336105  0
O  O163  1  0.15415792  0.50599573  0.44926473  1  -1.168457  0  -0.314117  -0.538355  0  2.385788  0
O  O164  1  0.02770005  0.37549002  0.58050923  1  -1.178388  0  -0.314453  -0.538819  0  2.384586  0
O  O165  1  0.15408191  0.39136504  0.44640686  1  -1.165239  0  -0.319494  -0.546129  0  2.314541  0
O  O166  1  0.08209868  0.58942620  0.52896028  1  -1.156385  0  -0.3088  -0.538928  0  2.416835  0
O  O167  1  0.00300948  0.65760922  0.44841505  1  -1.166444  0  -0.317642  -0.539067  0  2.330289  0
O  O168  1  0.88638113  0.49614973  0.44406585  1  -1.16573  0  -0.3104  -0.541014  0  2.42742  0
O  O169  1  0.88885208  0.65317585  0.44861434  1  -1.154554  0  -0.313654  -0.538259  0  2.38024  0
O  O170  1  0.99543705  0.38795330  0.44097397  1  -1.174468  0  -0.311895  -0.540852  0  2.318253  0
O  O171  1  0.87735814  0.52667307  0.58176179  1  -1.161426  0  -0.313766  -0.53906  0  2.376033  0
O  O172  1  0.81517023  0.57724167  0.52448629  1  -1.169925  0  -0.317321  -0.538934  0  2.331914  0
O  O173  1  0.74856689  0.25102244  0.25023970  1  -1.229894  0  -0.570136  -1.031246  0  2.51746  0
O  O174  1  0.59563088  0.35748114  0.30378355  1  -1.168623  0  -0.319003  -0.544321  0  2.31738  0
O  O175  1  0.66569137  0.16367771  0.21783918  1  -1.167102  0  -0.312267  -0.540594  0  2.326373  0
O  O176  1  0.72646883  0.37470553  0.16993016  1  -1.173431  0  -0.31481  -0.53848  0  2.387347  0
O  O177  1  0.59497554  0.24372692  0.29930625  1  -1.170994  0  -0.315187  -0.541228  0  2.378129  0
O  O178  1  0.67218772  0.43465089  0.22750502  1  -1.171616  0  -0.318853  -0.544864  0  2.315407  0
O  O179  1  0.72326994  0.21775623  0.16469501  1  -1.166144  0  -0.310052  -0.541707  0  2.418033  0
O  O180  1  0.87824422  0.22479083  0.16925338  1  -1.172183  0  -0.318164  -0.541266  0  2.33033  0
O  O181  1  0.86145360  0.25376100  0.30757844  1  -1.166751  0  -0.30973  -0.537983  0  2.431089  0
O  O182  1  0.93384335  0.17122915  0.22849162  1  -1.14681  0  -0.312985  -0.534713  0  2.386374  0
O  O183  1  0.75362610  0.36326523  0.30892244  1  -1.173555  0  -0.311839  -0.540863  0  2.315248  0
O  O184  1  0.74578211  0.09138596  0.29926755  1  -1.172611  0  -0.319136  -0.544608  0  2.320879  0
O  O185  1  0.85758098  0.09776644  0.30298916  1  -1.147253  0  -0.313451  -0.534589  0  2.390467  0
O  O186  1  0.24980187  0.75042694  0.75025553  1  -1.232026  0  -0.570408  -1.031418  0  2.519167  0
O  O187  1  0.37330782  0.72283748  0.66891006  1  -1.166866  0  -0.314084  -0.538978  0  2.379781  0
O  O188  1  0.36224864  0.75797323  0.80738713  1  -1.172914  0  -0.31328  -0.542015  0  2.330621  0
O  O189  1  0.17024670  0.93462173  0.72620812  1  -1.153487  0  -0.318094  -0.542417  0  2.322601  0
O  O190  1  0.43447631  0.67522856  0.72662902  1  -1.163708  0  -0.319078  -0.544581  0  2.3238  0
O  O191  1  0.22315726  0.87373809  0.66891739  1  -1.166945  0  -0.314643  -0.539391  0  2.381819  0
O  O192  1  0.25027877  0.86330411  0.80773792  1  -1.16693  0  -0.309961  -0.542571  0  2.412022  0
O  O193  1  0.09363809  0.85846050  0.80212111  1  -1.162736  0  -0.31866  -0.54283  0  2.325387  0
O  O194  1  0.16724289  0.66140014  0.72094916  1  -1.174387  0  -0.309104  -0.540122  0  2.416683  0
O  O195  1  0.09573484  0.74224917  0.80104098  1  -1.164668  0  -0.313392  -0.537677  0  2.380392  0
O  O196  1  0.21636414  0.71816924  0.66499395  1  -1.160217  0  -0.311676  -0.538359  0  2.33637  0
O  O197  1  0.36116631  0.59901862  0.80296419  1  -1.167871  0  -0.314014  -0.540727  0  2.369737  0
O  O198  1  0.24879783  0.59221258  0.80122873  1  -1.170487  0  -0.318376  -0.540672  0  2.333335  0
O  O199  1  0.50068083  0.99957601  0.99976310  1  -1.230489  0  -0.570081  -1.031278  0  2.518109  0
O  O200  1  0.50266089  0.15861363  0.95076802  1  -1.168594  0  -0.318885  -0.543588  0  2.325402  0
O  O201  1  0.39039123  0.99230164  0.94068447  1  -1.175055  0  -0.312158  -0.538925  0  2.339241  0
O  O202  1  0.65585878  0.89295062  0.94760550  1  -1.154704  0  -0.319024  -0.542971  0  2.326913  0
O  O203  1  0.39226966  0.15055681  0.94572521  1  -1.170508  0  -0.313857  -0.537448  0  2.379701  0
O  O204  1  0.65484918  0.00800421  0.95066854  1  -1.164938  0  -0.314001  -0.541375  0  2.37567  0
O  O205  1  0.50027682  0.88485894  0.94290819  1  -1.162451  0  -0.309305  -0.541559  0  2.410156  0
O  O206  1  0.58084652  0.81507474  0.02377109  1  -1.157055  0  -0.318027  -0.541674  0  2.321895  0
O  O207  1  0.52721367  0.03158906  0.08533106  1  -1.169377  0  -0.309601  -0.540947  0  2.418401  0
O  O208  1  0.52206510  0.87563879  0.08077518  1  -1.174306  0  -0.31355  -0.53822  0  2.383238  0
O  O209  1  0.58355869  0.08693831  0.03219862  1  -1.165955  0  -0.312566  -0.540875  0  2.327108  0
O  O210  1  0.31618257  0.07574981  0.02026077  1  -1.140997  0  -0.313681  -0.538229  0  2.377622  0
O  O211  1  0.37120643  0.02684632  0.07992649  1  -1.156673  0  -0.317992  -0.540304  0  2.331958  0
