# generated using pymatgen
data_Zn4H33C33N3O16
_symmetry_space_group_name_H-M   'P 1'
_cell_length_a   16.20972688
_cell_length_b   16.37687914
_cell_length_c   16.97066695
_cell_angle_alpha   90.66006501
_cell_angle_beta   117.96598976
_cell_angle_gamma   119.50521520
_symmetry_Int_Tables_number   1
_chemical_formula_structural   Zn4H33C33N3O16
_chemical_formula_sum   'Zn8 H66 C66 N6 O32'
_cell_volume   3286.18742507
_cell_formula_units_Z   2
loop_
 _symmetry_equiv_pos_site_id
 _symmetry_equiv_pos_as_xyz
  1  'x, y, z'
loop_
 _atom_site_type_symbol
 _atom_site_label
 _atom_site_symmetry_multiplicity
 _atom_site_fract_x
 _atom_site_fract_y
 _atom_site_fract_z
 _atom_site_occupancy
 _atom_site_pbe_bader_charge
 _atom_site_pbe_bader_spin_density
 _atom_site_pbe_cm5_charge
 _atom_site_pbe_ddec_charge
 _atom_site_pbe_ddec_spin_density
 _atom_site_pbe_ddec_sum_bond_order
 _atom_site_pbe_magmom
Zn  Zn0  1  0.07248215  0.04734356  0.12459526  1  1.328268  0  0.699296  0.985656  0  2.371061  0
Zn  Zn1  1  0.06807913  0.03108851  0.93809851  1  1.321487  0  0.692366  0.990305  0  2.294424  0
Zn  Zn2  1  0.86688457  0.02908349  0.93630296  1  1.310418  0  0.677587  0.970607  0  2.300759  0
Zn  Zn3  1  0.88113725  0.84214413  0.96150254  1  1.299801  0  0.664058  0.954912  0  2.303204  0
Zn  Zn4  1  0.89873919  0.46092897  0.35299736  1  1.312046  0  0.670947  0.969507  0  2.33544  0
Zn  Zn5  1  0.87148101  0.45059908  0.53405645  1  1.310591  0  0.677609  0.974525  0  2.318678  0
Zn  Zn6  1  0.06436714  0.64175720  0.53552851  1  1.296347  0  0.678328  0.947949  0  2.438914  0
Zn  Zn7  1  0.08245212  0.46134574  0.54561853  1  1.32173  0  0.6842  0.975496  0  2.360565  0
H  H8  1  0.52456892  0.48307467  0.50060786  1  0.027079  0  0.081691  0.105137  0  1.014689  0
H  H9  1  0.51694536  0.42227271  0.58481930  1  0.015316  0  0.089355  0.120183  0  0.995753  0
H  H10  1  0.40138519  0.36387741  0.46474390  1  0.085224  0  0.090656  0.137122  0  1.039268  0
H  H11  1  0.52136014  0.29299960  0.51166829  1  0.060187  0  0.115448  0.094899  0  0.972324  0
H  H12  1  0.64109209  0.41252881  0.54184039  1  0.051061  0  0.097619  0.067632  0  0.983419  0
H  H13  1  0.62549744  0.48345708  0.40604923  1  0.038769  0  0.110489  0.063472  0  0.96481  0
H  H14  1  0.41715667  0.43305074  0.32650842  1  0.062718  0  0.110501  0.125853  0  0.964993  0
H  H15  1  0.48328428  0.48833810  0.26592733  1  0.01664  0  0.09663  0.097097  0  0.969461  0
H  H16  1  0.28008535  0.32572977  0.15637158  1  0.071855  0  0.103533  0.106025  0  1.001601  0
H  H17  1  0.47604761  0.20278966  0.22593137  1  0.080775  0  0.115351  0.114299  0  0.939658  0
H  H18  1  0.56071740  0.39523575  0.22952871  1  0.054271  0  0.110553  0.111582  0  0.95846  0
H  H19  1  0.15893550  0.09160332  0.47475853  1  0.051465  0  0.089603  0.128849  0  1.016625  0
H  H20  1  0.29845112  0.18480161  0.56939256  1  0.027691  0  0.088376  0.114799  0  1.012099  0
H  H21  1  0.25690010  0.18271928  0.45178194  1  0.043875  0  0.094567  0.131589  0  1.000024  0
H  H22  1  0.26473015  0.31616411  0.53609889  1  0.067745  0  0.106519  0.077317  0  0.972389  0
H  H23  1  0.16137345  0.22586446  0.55479420  1  0.051849  0  0.107612  0.080807  0  0.993919  0
H  H24  1  0.98035103  0.18913732  0.44962113  1  0.084841  0  0.116997  0.077538  0  0.952604  0
H  H25  1  0.95352543  0.03140655  0.37350633  1  0.071843  0  0.109517  0.123286  0  0.954688  0
H  H26  1  0.82977185  0.03016567  0.32384318  1  0.047722  0  0.099797  0.101035  0  0.965378  0
H  H27  1  0.85958971  0.97878489  0.19672795  1  0.067477  0  0.104586  0.108139  0  0.995771  0
H  H28  1  0.01180303  0.28768321  0.22813126  1  0.061213  0  0.114905  0.114771  0  0.939987  0
H  H29  1  0.85193220  0.18367469  0.26778151  1  0.040757  0  0.112866  0.113144  0  0.954238  0
H  H30  1  0.43200771  0.05762293  0.50379988  1  0.028007  0  0.088381  0.122746  0  1.012878  0
H  H31  1  0.43984301  0.10368646  0.60405254  1  0.031605  0  0.088453  0.117682  0  1.000005  0
H  H32  1  0.32977502  0.07949596  0.48876292  1  0.038283  0  0.09148  0.127432  0  1.020819  0
H  H33  1  0.26072426  0.94816781  0.56141879  1  0.038473  0  0.105629  0.073064  0  1.00516  0
H  H34  1  0.35718720  0.92051648  0.57039409  1  0.077031  0  0.104922  0.086595  0  0.999362  0
H  H35  1  0.28866889  0.79589528  0.44033543  1  0.079361  0  0.116645  0.075396  0  0.951613  0
H  H36  1  0.36603508  0.94023611  0.37688903  1  0.077086  0  0.108559  0.120196  0  0.966386  0
H  H37  1  0.30733608  0.82369347  0.30501169  1  0.043808  0  0.098372  0.098173  0  0.967882  0
H  H38  1  0.23462679  0.92684623  0.21203396  1  0.082142  0  0.106127  0.114846  0  0.991921  0
H  H39  1  0.96503131  0.74003031  0.25044070  1  0.058347  0  0.113621  0.113093  0  0.945549  0
H  H40  1  0.10141940  0.68641102  0.25856916  1  0.07219  0  0.115354  0.117919  0  0.945406  0
H  H41  1  0.41382617  0.43409411  0.92606488  1  0.019252  0  0.084479  0.10887  0  1.020094  0
H  H42  1  0.45385235  0.41095670  0.85179460  1  0.033695  0  0.093509  0.125029  0  0.993365  0
H  H43  1  0.34465528  0.31065669  0.85841761  1  0.03754  0  0.096201  0.133368  0  0.990127  0
H  H44  1  0.26653495  0.35160113  0.70911382  1  0.075068  0  0.111563  0.084474  0  0.983714  0
H  H45  1  0.32821164  0.47297179  0.77494677  1  0.054287  0  0.103402  0.073906  0  0.980854  0
H  H46  1  0.21276756  0.49586366  0.81045215  1  0.070434  0  0.108529  0.059321  0  0.971233  0
H  H47  1  0.29805673  0.45037224  0.96094950  1  0.068754  0  0.10173  0.105129  0  0.977269  0
H  H48  1  0.20515960  0.48204747  0.95166313  1  0.04503  0  0.100695  0.103892  0  0.962769  0
H  H49  1  0.15864447  0.31774673  0.99375723  1  0.080054  0  0.101826  0.102364  0  1.01126  0
H  H50  1  0.92618637  0.19792484  0.69503889  1  0.067497  0  0.117588  0.117401  0  0.935361  0
H  H51  1  0.00818403  0.38062955  0.79501230  1  0.081873  0  0.114152  0.117242  0  0.951206  0
H  H52  1  0.09703129  0.06137333  0.64849174  1  0.074861  0  0.086071  0.13016  0  1.031403  0
H  H53  1  0.23118637  0.10440565  0.66813274  1  0.000371  0  0.08637  0.116642  0  1.017128  0
H  H54  1  0.19958993  0.06047272  0.75229259  1  0.021162  0  0.089424  0.124736  0  0.998686  0
H  H55  1  0.19275821  0.93621108  0.65668041  1  0.050687  0  0.105406  0.071903  0  1.005901  0
H  H56  1  0.08632364  0.93102891  0.55182326  1  0.082533  0  0.105928  0.086782  0  1.002766  0
H  H57  1  0.90150992  0.79588795  0.49872391  1  0.081168  0  0.11537  0.075035  0  0.955563  0
H  H58  1  0.89488567  0.92827378  0.57626440  1  0.050781  0  0.107129  0.117372  0  0.961223  0
H  H59  1  0.76637042  0.81038723  0.51689538  1  0.031289  0  0.097008  0.096798  0  0.969018  0
H  H60  1  0.83233767  0.89242042  0.68941623  1  0.057752  0  0.104668  0.11212  0  0.991919  0
H  H61  1  0.95565155  0.70697401  0.74328548  1  0.091712  0  0.115039  0.116058  0  0.942985  0
H  H62  1  0.78571270  0.66698101  0.56916561  1  0.083544  0  0.111813  0.110721  0  0.957195  0
H  H63  1  0.50720383  0.03351162  0.95227644  1  0.026292  0  0.084391  0.108233  0  1.018895  0
H  H64  1  0.48021270  0.10500714  0.87883041  1  0.023599  0  0.091509  0.122407  0  0.995768  0
H  H65  1  0.57672869  0.07530080  0.89094103  1  0.057103  0  0.09105  0.124791  0  0.99739  0
H  H66  1  0.38866339  0.97141093  0.73658732  1  0.069998  0  0.107905  0.079135  0  0.993885  0
H  H67  1  0.31942978  0.92479193  0.79748395  1  0.10225  0  0.105418  0.092112  0  1.029331  0
H  H68  1  0.30077353  0.77803721  0.83443208  1  0.091359  0  0.117186  0.080448  0  0.957598  0
H  H69  1  0.49933720  0.89541395  0.98814511  1  0.051243  0  0.104875  0.111413  0  0.971457  0
H  H70  1  0.43549512  0.76916805  0.97792627  1  0.024372  0  0.097227  0.098038  0  0.966917  0
H  H71  1  0.64745320  0.86007466  0.02577346  1  0.080814  0  0.101851  0.103721  0  1.00671  0
H  H72  1  0.47418884  0.73786446  0.72817955  1  0.084957  0  0.115736  0.1176  0  0.941117  0
H  H73  1  0.37579941  0.66056364  0.82479789  1  0.028733  0  0.106992  0.099129  0  0.976801  0
C  C74  1  0.49397171  0.41032951  0.51163686  1  -0.088005  0  -0.246738  -0.389472  0  3.958299  0
C  C75  1  0.54797221  0.36300549  0.49547130  1  0.3225  0  -0.057174  0.002222  0  3.936395  0
C  C76  1  0.54959331  0.41226793  0.35278423  1  0.33796  0  0.022588  0.102996  0  3.808667  0
C  C77  1  0.45168035  0.42208516  0.28790477  1  0.016587  0  -0.152422  -0.206684  0  3.968601  0
C  C78  1  0.35835680  0.33116892  0.20343115  1  -0.009492  0  -0.086829  -0.100225  0  3.899562  0
C  C79  1  0.36492927  0.25414078  0.18904015  1  -0.070136  0  -0.019764  -0.066656  0  3.928644  0
C  C80  1  0.26228035  0.15865307  0.11604507  1  1.546892  0  0.227874  0.614943  0  4.160372  0
C  C81  1  0.47075882  0.25806445  0.25626902  1  -0.016506  0  -0.067816  -0.114466  0  3.845801  0
C  C82  1  0.57034919  0.36652792  0.28902660  1  0.005945  0  -0.079275  -0.195304  0  3.846214  0
C  C83  1  0.68625652  0.38447892  0.34084392  1  1.551953  0  0.229321  0.635697  0  4.100148  0
C  C84  1  0.47608406  0.24645659  0.34895339  1  1.428204  0  0.235705  0.439604  0  4.105762  0
C  C85  1  0.22792537  0.16997992  0.50010111  1  -0.079498  0  -0.244492  -0.391758  0  3.952335  0
C  C86  1  0.19192507  0.23859804  0.50745613  1  0.319387  0  -0.055942  0.005105  0  3.938175  0
C  C87  1  0.98443927  0.17789890  0.38793884  1  0.322527  0  0.02208  0.100229  0  3.819138  0
C  C88  1  0.91333742  0.06747784  0.33288023  1  -0.034646  0  -0.152191  -0.201688  0  3.964263  0
C  C89  1  0.90000083  0.05362371  0.23889305  1  -0.041102  0  -0.088113  -0.105566  0  3.901293  0
C  C90  1  0.94359427  0.13049519  0.20908822  1  -0.03643  0  -0.020852  -0.067556  0  3.926349  0
C  C91  1  0.94816373  0.11485610  0.12504435  1  1.544439  0  0.226137  0.613335  0  4.156342  0
C  C92  1  0.00482144  0.23565600  0.26849588  1  -0.00618  0  -0.067873  -0.11707  0  3.846133  0
C  C93  1  0.94380299  0.22945744  0.31819266  1  0.044668  0  -0.07663  -0.188794  0  3.851722  0
C  C94  1  0.97456463  0.32855182  0.36387102  1  1.563019  0  0.2342  0.639634  0  4.095579  0
C  C95  1  0.12240470  0.26709247  0.35292258  1  1.439062  0  0.234403  0.440235  0  4.104584  0
C  C96  1  0.38139844  0.05327678  0.53146584  1  -0.045027  0  -0.243386  -0.383862  0  3.944532  0
C  C97  1  0.30643868  0.94850382  0.52972910  1  0.322198  0  -0.058187  0.003568  0  3.923621  0
C  C98  1  0.23626209  0.81649226  0.38803970  1  0.319234  0  0.020426  0.101856  0  3.820089  0
C  C99  1  0.28600352  0.86766153  0.33129315  1  -0.041999  0  -0.152058  -0.200771  0  3.974526  0
C  C100  1  0.20446837  0.88119259  0.25107899  1  -0.036111  0  -0.088789  -0.105496  0  3.899439  0
C  C101  1  0.09914059  0.84333151  0.22992746  1  -0.047061  0  -0.021914  -0.0676  0  3.922581  0
C  C102  1  0.02512690  0.86639675  0.15505272  1  1.566804  0  0.235846  0.6374  0  4.129413  0
C  C103  1  0.05727951  0.78508032  0.28679881  1  0.012642  0  -0.067933  -0.119729  0  3.848362  0
C  C104  1  0.11308431  0.72751270  0.31855880  1  -0.006032  0  -0.075101  -0.188459  0  3.845526  0
C  C105  1  0.06432602  0.65629754  0.36479688  1  1.553099  0  0.232454  0.63356  0  4.105612  0
C  C106  1  0.11608756  0.86085456  0.38213303  1  1.410164  0  0.233073  0.436877  0  4.107677  0
C  C107  1  0.38154914  0.38757464  0.85806975  1  -0.056524  0  -0.240516  -0.382769  0  3.956179  0
C  C108  1  0.29342957  0.39613774  0.77585372  1  0.313925  0  -0.054876  0.012569  0  3.934407  0
C  C109  1  0.17116624  0.42161132  0.81694289  1  0.325977  0  0.023854  0.109636  0  3.814289  0
C  C110  1  0.20886947  0.42598255  0.91945905  1  -0.035221  0  -0.154102  -0.201939  0  3.986179  0
C  C111  1  0.13588036  0.32655957  0.92439332  1  -0.029518  0  -0.092333  -0.110559  0  3.912388  0
C  C112  1  0.04714563  0.24821291  0.84711983  1  -0.084301  0  -0.015643  -0.056563  0  3.905966  0
C  C113  1  0.98582074  0.14975997  0.85847809  1  1.5804  0  0.230589  0.623681  0  4.150774  0
C  C114  1  0.01310247  0.25780028  0.74956500  1  0.018665  0  -0.066527  -0.114591  0  3.840594  0
C  C115  1  0.03969283  0.36311577  0.75729315  1  -0.028086  0  -0.076004  -0.190516  0  3.82977  0
C  C116  1  0.99414047  0.38150900  0.66359827  1  1.551679  0  0.228363  0.630503  0  4.113183  0
C  C117  1  0.09895849  0.26469154  0.72837822  1  1.431959  0  0.238064  0.448586  0  4.109896  0
C  C118  1  0.16432854  0.04854407  0.67672128  1  -0.045419  0  -0.247687  -0.388464  0  3.948892  0
C  C119  1  0.12210251  0.94496953  0.62765775  1  0.305662  0  -0.060225  0.001027  0  3.932446  0
C  C120  1  0.91505754  0.80698044  0.56875640  1  0.32476  0  0.019219  0.099302  0  3.823443  0
C  C121  1  0.85459427  0.85159142  0.57803668  1  0.001679  0  -0.153333  -0.198714  0  3.975088  0
C  C122  1  0.85917932  0.85137754  0.66857972  1  0.003117  0  -0.092306  -0.110919  0  3.907308  0
C  C123  1  0.90492357  0.81057973  0.72773643  1  -0.090164  0  -0.022047  -0.071173  0  3.93132  0
C  C124  1  0.93293659  0.83315868  0.82584917  1  1.574579  0  0.231406  0.626793  0  4.140318  0
C  C125  1  0.94904400  0.75797222  0.70347952  1  -0.01327  0  -0.068723  -0.118377  0  3.850278  0
C  C126  1  0.87615056  0.71100596  0.59542716  1  -0.017532  0  -0.076774  -0.190365  0  3.85189  0
C  C127  1  0.90489980  0.64552829  0.56643694  1  1.542328  0  0.230692  0.627877  0  4.114965  0
C  C128  1  0.06397602  0.83860921  0.71870360  1  1.405134  0  0.232889  0.435008  0  4.108136  0
C  C129  1  0.49687092  0.04718578  0.88607108  1  -0.084356  0  -0.241745  -0.376738  0  3.961783  0
C  C130  1  0.39906306  0.95382128  0.80160055  1  0.284165  0  -0.06211  -0.012737  0  3.917739  0
C  C131  1  0.38036982  0.79683762  0.84349953  1  0.335357  0  0.019641  0.092843  0  3.812997  0
C  C132  1  0.47189218  0.82454667  0.94699490  1  -0.019456  0  -0.153902  -0.199961  0  3.978759  0
C  C133  1  0.57194337  0.83156751  0.95561360  1  -0.042075  0  -0.089979  -0.104876  0  3.90512  0
C  C134  1  0.57444838  0.81122598  0.87992762  1  -0.041635  0  -0.020037  -0.065601  0  3.920999  0
C  C135  1  0.68299000  0.83890265  0.89243846  1  1.558685  0  0.224006  0.614461  0  4.16413  0
C  C136  1  0.47263706  0.77493536  0.78106721  1  -0.000251  0  -0.068872  -0.117646  0  3.842808  0
C  C137  1  0.36758191  0.71251921  0.78650969  1  0.01928  0  -0.07848  -0.19266  0  3.867009  0
C  C138  1  0.25757713  0.65317348  0.69115328  1  1.55463  0  0.231838  0.630845  0  4.10892  0
C  C139  1  0.46543251  0.86372037  0.75899180  1  1.418917  0  0.233662  0.429467  0  4.106868  0
N  N140  1  0.51737095  0.33821466  0.39903707  1  -1.137194  0  -0.28387  -0.144791  0  3.558882  0
N  N141  1  0.10282104  0.22748343  0.41736396  1  -1.165425  0  -0.280811  -0.156005  0  3.590805  0
N  N142  1  0.22071639  0.87840762  0.43525216  1  -1.148226  0  -0.280257  -0.151597  0  3.593877  0
N  N143  1  0.19139291  0.36008761  0.77546653  1  -1.159776  0  -0.285476  -0.169998  0  3.599901  0
N  N144  1  0.03709940  0.86729164  0.64029854  1  -1.138683  0  -0.280473  -0.153852  0  3.587593  0
N  N145  1  0.41690225  0.87499309  0.80194470  1  -1.145823  0  -0.282283  -0.133841  0  3.556372  0
O  O146  1  0.97085893  0.98685960  0.98787776  1  -1.21576  0  -0.577439  -1.040173  0  2.509918  0
O  O147  1  0.22013020  0.15191867  0.02911111  1  -1.139231  0  -0.303649  -0.530044  0  2.265183  0
O  O148  1  0.22040380  0.08810950  0.14690065  1  -1.177564  0  -0.319306  -0.556999  0  2.290668  0
O  O149  1  0.71972928  0.36519814  0.41826250  1  -1.180926  0  -0.318173  -0.554701  0  2.320673  0
O  O150  1  0.74205822  0.41939540  0.30211123  1  -1.155663  0  -0.317906  -0.546168  0  2.280167  0
O  O151  1  0.44801260  0.17101173  0.37173344  1  -1.1429  0  -0.30743  -0.483147  0  2.10367  0
O  O152  1  0.85718871  0.06688596  0.04385416  1  -1.156084  0  -0.302178  -0.526113  0  2.257371  0
O  O153  1  0.04785263  0.15075485  0.14205641  1  -1.165214  0  -0.329772  -0.569281  0  2.270958  0
O  O154  1  0.06342413  0.37920944  0.44659807  1  -1.183746  0  -0.314212  -0.543796  0  2.326248  0
O  O155  1  0.90691881  0.35242365  0.31454128  1  -1.169507  0  -0.317251  -0.548524  0  2.297147  0
O  O156  1  0.21384192  0.31618355  0.36001083  1  -1.153009  0  -0.308845  -0.489716  0  2.117756  0
O  O157  1  0.96284421  0.80890533  0.07106411  1  -1.153977  0  -0.305822  -0.530287  0  2.267392  0
O  O158  1  0.03098366  0.94382948  0.18146361  1  -1.163953  0  -0.324297  -0.562571  0  2.291212  0
O  O159  1  0.11930174  0.68672880  0.45430164  1  -1.160105  0  -0.312506  -0.546329  0  2.374984  0
O  O160  1  0.97156072  0.57251832  0.31089343  1  -1.178143  0  -0.316473  -0.547887  0  2.272995  0
O  O161  1  0.07701304  0.89836782  0.40436973  1  -1.158107  0  -0.317636  -0.505206  0  2.114158  0
O  O162  1  0.92334420  0.13863533  0.88887032  1  -1.150324  0  -0.308616  -0.531181  0  2.283336  0
O  O163  1  0.00201976  0.08553437  0.83912425  1  -1.175956  0  -0.318713  -0.560504  0  2.274351  0
O  O164  1  0.02632066  0.36993635  0.61141811  1  -1.187037  0  -0.319012  -0.561048  0  2.343756  0
O  O165  1  0.92648499  0.40826732  0.64430433  1  -1.155829  0  -0.316262  -0.540489  0  2.271361  0
O  O166  1  0.08798614  0.19882874  0.68055347  1  -1.1534  0  -0.3009  -0.48952  0  2.14037  0
O  O167  1  0.85612621  0.78435209  0.84226200  1  -1.145098  0  -0.305175  -0.521144  0  2.254259  0
O  O168  1  0.03582393  0.90361518  0.88777130  1  -1.17562  0  -0.326994  -0.562102  0  2.281622  0
O  O169  1  0.97067693  0.68233258  0.53683243  1  -1.158462  0  -0.310628  -0.537689  0  2.357163  0
O  O170  1  0.86242689  0.55968226  0.57548094  1  -1.177196  0  -0.314715  -0.558339  0  2.302047  0
O  O171  1  0.15925140  0.87064724  0.78735754  1  -1.166629  0  -0.310247  -0.488996  0  2.124206  0
O  O172  1  0.73392078  0.80160468  0.94259586  1  -1.159773  0  -0.313747  -0.538462  0  2.26585  0
O  O173  1  0.71883275  0.90147579  0.85259396  1  -1.174637  0  -0.322294  -0.553561  0  2.271192  0
O  O174  1  0.19758422  0.68788651  0.66131210  1  -1.173241  0  -0.303845  -0.526046  0  2.350156  0
O  O175  1  0.23381001  0.57190582  0.64918125  1  -1.176622  0  -0.318852  -0.560221  0  2.298372  0
O  O176  1  0.49715348  0.91389718  0.71333721  1  -1.148249  0  -0.313649  -0.487491  0  2.101556  0
O  O177  1  0.97444499  0.49752575  0.49040159  1  -1.212523  0  -0.580058  -1.042745  0  2.570537  0
