# generated using pymatgen
data_AlH13C18O5
_symmetry_space_group_name_H-M   'P 1'
_cell_length_a   6.64216189
_cell_length_b   24.01554180
_cell_length_c   25.35166771
_cell_angle_alpha   89.98092337
_cell_angle_beta   90.96295145
_cell_angle_gamma   89.32527891
_symmetry_Int_Tables_number   1
_chemical_formula_structural   AlH13C18O5
_chemical_formula_sum   'Al4 H52 C72 O20'
_cell_volume   4043.12217503
_cell_formula_units_Z   4
loop_
 _symmetry_equiv_pos_site_id
 _symmetry_equiv_pos_as_xyz
  1  'x, y, z'
loop_
 _atom_site_type_symbol
 _atom_site_label
 _atom_site_symmetry_multiplicity
 _atom_site_fract_x
 _atom_site_fract_y
 _atom_site_fract_z
 _atom_site_occupancy
 _atom_site_pbe_bader_charge
 _atom_site_pbe_bader_spin_density
 _atom_site_pbe_cm5_charge
 _atom_site_pbe_ddec_charge
 _atom_site_pbe_ddec_spin_density
 _atom_site_pbe_ddec_sum_bond_order
 _atom_site_pbe_magmom
Al  Al0  1  0.92731011  0.99930966  0.49768259  1  2.501315  0  0.398224  1.64653  0  2.577417  0
Al  Al1  1  0.42748134  0.00065851  0.49927895  1  2.499493  0  0.397225  1.645239  0  2.59063  0
Al  Al2  1  0.07193486  0.49936368  0.00018723  1  2.495239  0  0.396684  1.64313  0  2.590585  0
Al  Al3  1  0.57163143  0.50061484  0.00137840  1  2.502273  0  0.397426  1.641795  0  2.584411  0
H  H4  1  0.17000351  0.07403386  0.49913150  1  0.595565  0  0.35531  0.431786  0  0.852155  0
H  H5  1  0.68172689  0.93191490  0.52128653  1  0.612674  0  0.353535  0.42859  0  0.857009  0
H  H6  1  0.32919766  0.42881153  0.01686572  1  0.636716  0  0.349424  0.423524  0  0.87089  0
H  H7  1  0.81769436  0.56937498  0.98077425  1  0.624373  0  0.354291  0.429264  0  0.854904  0
H  H8  1  0.54632694  0.42444957  0.14301364  1  0.104567  0  0.111525  0.11449  0  0.993305  0
H  H9  1  0.50799689  0.35372237  0.21421844  1  0.076522  0  0.107704  0.113534  0  0.987306  0
H  H10  1  0.07166383  0.27852621  0.16894088  1  0.059985  0  0.104601  0.111418  0  0.997662  0
H  H11  1  0.42407348  0.22082567  0.33028335  1  0.077695  0  0.104075  0.110484  0  0.999295  0
H  H12  1  0.95373110  0.07621699  0.35692403  1  0.109329  0  0.112429  0.116363  0  0.990103  0
H  H13  1  0.99031570  0.14679920  0.28546452  1  0.084469  0  0.107324  0.112805  0  0.987393  0
H  H14  1  0.02734520  0.63995445  0.91200551  1  0.083482  0  0.108127  0.107838  0  0.99882  0
H  H15  1  0.99761629  0.71421011  0.84353158  1  0.081332  0  0.107386  0.113025  0  0.988145  0
H  H16  1  0.54447622  0.65234011  0.77413262  1  0.051976  0  0.104944  0.1122  0  0.995273  0
H  H17  1  0.95659771  0.84760088  0.72590689  1  0.049811  0  0.105269  0.112887  0  0.992668  0
H  H18  1  0.47030989  0.85948243  0.58716541  1  0.077147  0  0.108175  0.108448  0  0.997712  0
H  H19  1  0.50128756  0.78533226  0.65570125  1  0.081711  0  0.107433  0.112875  0  0.987968  0
H  H20  1  0.60034682  0.63879527  0.10220436  1  0.08054  0  0.109157  0.113041  0  0.997405  0
H  H21  1  0.58043300  0.71304372  0.17099135  1  0.059743  0  0.10555  0.111127  0  0.990955  0
H  H22  1  0.00040016  0.65133566  0.21528041  1  0.06948  0  0.103039  0.109533  0  1.000235  0
H  H23  1  0.49932839  0.84908007  0.28403707  1  0.060959  0  0.103088  0.109421  0  1.000877  0
H  H24  1  0.89904148  0.86199461  0.39696120  1  0.091587  0  0.109927  0.113954  0  0.996737  0
H  H25  1  0.91864741  0.78770501  0.32821732  1  0.065452  0  0.105357  0.11063  0  0.991336  0
H  H26  1  0.52776482  0.36015274  0.91260358  1  0.081294  0  0.109023  0.112275  0  0.996968  0
H  H27  1  0.49861895  0.28658061  0.84340203  1  0.061094  0  0.105644  0.110775  0  0.990927  0
H  H28  1  0.06279018  0.33998506  0.77992414  1  0.060129  0  0.103237  0.109812  0  0.998825  0
H  H29  1  0.44497405  0.15937066  0.72125082  1  0.071205  0  0.103808  0.110866  0  0.999118  0
H  H30  1  0.97390922  0.13901692  0.58709325  1  0.104971  0  0.10677  0.107726  0  1.002748  0
H  H31  1  0.00898929  0.21161418  0.65685842  1  0.072619  0  0.106217  0.11165  0  0.990236  0
H  H32  1  0.25549436  0.30957897  0.09996481  1  0.045192  0  0.091685  0.127174  0  0.999729  0
H  H33  1  0.12913260  0.34717067  0.04829916  1  0.04587  0  0.098759  0.138665  0  0.985566  0
H  H34  1  0.26644915  0.38342552  0.09730178  1  0.062725  0  0.097091  0.136559  0  1.015112  0
H  H35  1  0.23613766  0.11492384  0.40465530  1  0.103163  0  0.098857  0.143119  0  1.01076  0
H  H36  1  0.37048272  0.15477415  0.45121445  1  0.050213  0  0.09637  0.134807  0  0.986741  0
H  H37  1  0.23813739  0.18879581  0.39838200  1  0.020522  0  0.090127  0.124058  0  1.002639  0
H  H38  1  0.58960498  0.52644012  0.85420012  1  0.037957  0  0.098938  0.144585  0  0.995248  0
H  H39  1  0.68347087  0.56584700  0.80037532  1  0.052182  0  0.092339  0.126441  0  0.995484  0
H  H40  1  0.75585825  0.58165461  0.86625190  1  0.037588  0  0.094966  0.135933  0  1.008892  0
H  H41  1  0.73678446  0.91551515  0.63894403  1  0.064256  0  0.094112  0.134794  0  1.008989  0
H  H42  1  0.83121694  0.93804702  0.70094605  1  0.037555  0  0.092766  0.127417  0  0.994217  0
H  H43  1  0.90340469  0.97204799  0.64167753  1  0.096665  0  0.098055  0.14429  0  1.003407  0
H  H44  1  0.87663363  0.57202220  0.11174583  1  0.102305  0  0.101541  0.152245  0  1.003762  0
H  H45  1  0.02504334  0.52330472  0.14677851  1  0.036545  0  0.093898  0.134998  0  0.996518  0
H  H46  1  0.87055793  0.57120301  0.18203252  1  0.032969  0  0.088153  0.121032  0  1.004432  0
H  H47  1  0.62959023  0.92921836  0.31729219  1  0.023961  0  0.08835  0.121478  0  1.00556  0
H  H48  1  0.47521629  0.97719388  0.35248846  1  0.057848  0  0.094704  0.136252  0  0.995707  0
H  H49  1  0.62300366  0.92839083  0.38755841  1  0.114722  0  0.102134  0.15299  0  1.004195  0
H  H50  1  0.23308652  0.41566418  0.81180099  1  0.036001  0  0.088981  0.121957  0  1.003834  0
H  H51  1  0.09952171  0.46688199  0.84883129  1  0.056234  0  0.096234  0.139428  0  0.987827  0
H  H52  1  0.24604398  0.41651604  0.88211495  1  0.104805  0  0.099559  0.148235  0  1.003328  0
H  H53  1  0.25683245  0.08336728  0.61840964  1  0.071127  0  0.097528  0.14364  0  1.009268  0
H  H54  1  0.40040828  0.03331434  0.65294743  1  0.061386  0  0.097239  0.140802  0  0.984353  0
H  H55  1  0.26757930  0.08571424  0.68864466  1  0.024958  0  0.089456  0.122585  0  1.004039  0
C  C56  1  0.68207116  0.06902295  0.56945008  1  1.568063  0  0.262244  0.642092  0  4.099337  0
C  C57  1  0.66874538  0.06652219  0.42641084  1  1.572037  0  0.268203  0.645828  0  4.09299  0
C  C58  1  0.17708195  0.93384327  0.42652260  1  1.540015  0  0.26669  0.644568  0  4.096388  0
C  C59  1  0.18607733  0.93417641  0.57199676  1  1.567575  0  0.268358  0.651708  0  4.083481  0
C  C60  1  0.81698748  0.43112529  0.93020053  1  1.552307  0  0.261828  0.638166  0  4.106047  0
C  C61  1  0.83091704  0.43349507  0.07318960  1  1.562257  0  0.269874  0.650088  0  4.085302  0
C  C62  1  0.32239911  0.56685398  0.07259073  1  1.541692  0  0.264171  0.643967  0  4.099599  0
C  C63  1  0.31237501  0.56529374  0.92731596  1  1.538566  0  0.269836  0.651359  0  4.084901  0
C  C64  1  0.82934998  0.39174270  0.11663627  1  -0.065561  0  -0.015555  -0.11406  0  3.925385  0
C  C65  1  0.66111644  0.39229649  0.14953570  1  0.002083  0  -0.080356  -0.082976  0  4.022072  0
C  C66  1  0.63924517  0.35308282  0.18901198  1  -0.069454  0  -0.086005  -0.138206  0  3.966776  0
C  C67  1  0.78717421  0.31092723  0.19583258  1  0.073752  0  0.001017  0.15074  0  4.137691  0
C  C68  1  0.95781258  0.31121730  0.16347283  1  -0.040722  0  -0.085816  -0.196676  0  3.897743  0
C  C69  1  0.98356367  0.35111558  0.12408076  1  0.035734  0  0.003981  0.17095  0  3.942762  0
C  C70  1  0.76160841  0.26842978  0.23364492  1  -0.407038  0  -0.044557  -0.108263  0  4.119891  0
C  C71  1  0.73435588  0.23142146  0.26568977  1  0.089695  0  -0.043666  -0.105524  0  4.118977  0
C  C72  1  0.70953902  0.18895651  0.30359212  1  0.066935  0  0.000979  0.149133  0  4.138712  0
C  C73  1  0.53877085  0.18840558  0.33590587  1  -0.097549  0  -0.086258  -0.196442  0  3.898869  0
C  C74  1  0.51395128  0.14860905  0.37544752  1  0.090805  0  0.004577  0.171057  0  3.943175  0
C  C75  1  0.66932100  0.10831069  0.38296551  1  -0.048102  0  -0.014748  -0.11241  0  3.922585  0
C  C76  1  0.83781487  0.10802755  0.35015182  1  -0.011312  0  -0.079912  -0.08204  0  4.0155  0
C  C77  1  0.85877357  0.14718773  0.31058635  1  -0.071629  0  -0.086437  -0.13877  0  3.966296  0
C  C78  1  0.30506844  0.60607689  0.88298631  1  0.017121  0  -0.015457  -0.112496  0  3.930553  0
C  C79  1  0.14084637  0.64354742  0.88168651  1  -0.032722  0  -0.083721  -0.089303  0  4.035381  0
C  C80  1  0.12381968  0.68481619  0.84369165  1  -0.052909  0  -0.087364  -0.137425  0  3.969765  0
C  C81  1  0.27226012  0.68878819  0.80475008  1  0.100771  0  0.00105  0.149915  0  4.137527  0
C  C82  1  0.43313631  0.64994570  0.80519620  1  -0.033884  0  -0.084657  -0.194877  0  3.894937  0
C  C83  1  0.45421304  0.60862037  0.84385959  1  0.037501  0  0.004028  0.169599  0  3.948723  0
C  C84  1  0.25795469  0.73112834  0.76604036  1  -0.088396  0  -0.04445  -0.107502  0  4.118647  0
C  C85  1  0.24210708  0.76853698  0.73354491  1  -0.312521  0  -0.044669  -0.107192  0  4.118716  0
C  C86  1  0.22756419  0.81090831  0.69486977  1  0.074782  0  0.000491  0.149198  0  4.138817  0
C  C87  1  0.06725867  0.84989808  0.69466708  1  -0.02923  0  -0.084908  -0.194698  0  3.893309  0
C  C88  1  0.04577039  0.89126321  0.65601461  1  0.045971  0  0.004648  0.169664  0  3.946653  0
C  C89  1  0.19361115  0.89361562  0.61656946  1  -0.057572  0  -0.015549  -0.111438  0  3.928481  0
C  C90  1  0.35761050  0.85602805  0.61769839  1  0.004725  0  -0.084627  -0.090781  0  4.036199  0
C  C91  1  0.37521924  0.81478375  0.65569059  1  -0.03001  0  -0.087271  -0.137716  0  3.970612  0
C  C92  1  0.30962707  0.60531184  0.11855786  1  0.003162  0  -0.017107  -0.111876  0  3.918717  0
C  C93  1  0.46877601  0.64241767  0.12716656  1  -0.011815  0  -0.082131  -0.084774  0  4.017128  0
C  C94  1  0.45818097  0.68365019  0.16538440  1  -0.046978  0  -0.089637  -0.144527  0  3.968183  0
C  C95  1  0.28490308  0.68809700  0.19662148  1  0.115073  0  6.5e-05  0.151255  0  4.13917  0
C  C96  1  0.13074510  0.64874052  0.18973347  1  -0.053306  0  -0.087104  -0.197365  0  3.900115  0
C  C97  1  0.13832289  0.60723929  0.15128534  1  0.021687  0  0.005024  0.173524  0  3.938888  0
C  C98  1  0.26251845  0.73138348  0.23390435  1  -0.449215  0  -0.045019  -0.107748  0  4.119462  0
C  C99  1  0.23669479  0.76919548  0.26537014  1  0.081197  0  -0.04497  -0.106991  0  4.11873  0
C  C100  1  0.21444013  0.81250633  0.30263792  1  0.038169  0  0.000819  0.150388  0  4.140122  0
C  C101  1  0.36880853  0.85179168  0.30951300  1  -0.020071  0  -0.08771  -0.197883  0  3.898733  0
C  C102  1  0.36137408  0.89331726  0.34794014  1  -0.001643  0  0.005912  0.176347  0  3.93725  0
C  C103  1  0.18988614  0.89536161  0.38060328  1  -0.022462  0  -0.016815  -0.113789  0  3.921816  0
C  C104  1  0.03052018  0.85832109  0.37198541  1  0.000196  0  -0.08189  -0.085498  0  4.01702  0
C  C105  1  0.04108354  0.81704155  0.33382787  1  -0.033844  0  -0.089305  -0.14258  0  3.967904  0
C  C106  1  0.81237782  0.38984488  0.88624899  1  -0.058019  0  -0.016899  -0.110151  0  3.921552  0
C  C107  1  0.64502579  0.35468144  0.88343656  1  -0.051659  0  -0.082329  -0.086399  0  4.026016  0
C  C108  1  0.62837203  0.31390259  0.84504860  1  0.039378  0  -0.088835  -0.140098  0  3.97211  0
C  C109  1  0.78101328  0.30804632  0.80734849  1  0.071853  0  0.000476  0.149527  0  4.140082  0
C  C110  1  0.94707334  0.34409843  0.80976974  1  -0.001643  0  -0.087234  -0.198243  0  3.897252  0
C  C111  1  0.96728462  0.38498184  0.84869376  1  0.02913  0  0.004334  0.170591  0  3.941778  0
C  C112  1  0.76485504  0.26703170  0.76752976  1  -0.233158  0  -0.044761  -0.105788  0  4.118753  0
C  C113  1  0.74550540  0.23139430  0.73351856  1  -0.170366  0  -0.045866  -0.110602  0  4.119043  0
C  C114  1  0.72710738  0.19067644  0.69349522  1  0.10151  0  0.00028  0.151616  0  4.136902  0
C  C115  1  0.55945523  0.15516319  0.69108967  1  -0.057152  0  -0.087073  -0.199201  0  3.897858  0
C  C116  1  0.53594336  0.11477231  0.65183123  1  0.047131  0  0.004263  0.171698  0  3.942168  0
C  C117  1  0.68908917  0.10983015  0.61376759  1  -0.088676  0  -0.017623  -0.113656  0  3.925017  0
C  C118  1  0.85794042  0.14447111  0.61659014  1  -0.056033  0  -0.083581  -0.08545  0  4.030744  0
C  C119  1  0.87807637  0.18470800  0.65535514  1  -0.003888  0  -0.087956  -0.139533  0  3.970392  0
C  C120  1  0.16848693  0.34751087  0.09059565  1  -0.051196  0  -0.236253  -0.41418  0  3.963575  0
C  C121  1  0.32952650  0.15205131  0.40909157  1  -0.10441  0  -0.237453  -0.412792  0  3.964237  0
C  C122  1  0.62919222  0.56830444  0.84098389  1  -0.033375  0  -0.237003  -0.412524  0  3.957609  0
C  C123  1  0.87114093  0.93166471  0.65949931  1  -0.115531  0  -0.237865  -0.413932  0  3.958119  0
C  C124  1  0.96825380  0.56641394  0.14781389  1  -0.085795  0  -0.239651  -0.415869  0  3.954845  0
C  C125  1  0.53166884  0.93405361  0.35145785  1  -0.08276  0  -0.239895  -0.418646  0  3.958085  0
C  C126  1  0.14625512  0.42285615  0.84765662  1  -0.108546  0  -0.23842  -0.414097  0  3.957374  0
C  C127  1  0.35537660  0.07749422  0.65315270  1  -0.059169  0  -0.238805  -0.412933  0  3.958844  0
O  O128  1  0.85134864  0.05228337  0.55194168  1  -1.261389  0  -0.242773  -0.608806  0  2.361669  0
O  O129  1  0.50054480  0.05016719  0.44362084  1  -1.262981  0  -0.229916  -0.587325  0  2.375689  0
O  O130  1  0.34343163  0.94824729  0.44779170  1  -1.256175  0  -0.232801  -0.588187  0  2.391707  0
O  O131  1  0.01435097  0.94758482  0.55229914  1  -1.252211  0  -0.233661  -0.593277  0  2.342338  0
O  O132  1  0.00325291  0.94819560  0.44287308  1  -1.251897  0  -0.237994  -0.593757  0  2.333782  0
O  O133  1  0.35517821  0.95124893  0.55565250  1  -1.267594  0  -0.23871  -0.605826  0  2.352359  0
O  O134  1  0.50987692  0.05481793  0.55130006  1  -1.256395  0  -0.237233  -0.598084  0  2.363468  0
O  O135  1  0.84065241  0.05014414  0.44384794  1  -1.265823  0  -0.23657  -0.597086  0  2.357684  0
O  O136  1  0.17499558  0.03378677  0.49846283  1  -1.400001  0  -0.449364  -0.998746  0  2.234206  0
O  O137  1  0.67847616  0.96577958  0.50048201  1  -1.417768  0  -0.447832  -0.988891  0  2.205839  0
O  O138  1  0.98840192  0.44497498  0.94900923  1  -1.254579  0  -0.235866  -0.593098  0  2.368212  0
O  O139  1  0.65920097  0.44941905  0.05515184  1  -1.264601  0  -0.23668  -0.599841  0  2.354823  0
O  O140  1  0.49633431  0.55210708  0.05656245  1  -1.254728  0  -0.240291  -0.598277  0  2.333872  0
O  O141  1  0.14361341  0.54774603  0.94339992  1  -1.261153  0  -0.23639  -0.601247  0  2.35474  0
O  O142  1  0.15574415  0.55298016  0.05108024  1  -1.259803  0  -0.235824  -0.594802  0  2.392377  0
O  O143  1  0.48384417  0.55190529  0.94712977  1  -1.264934  0  -0.231212  -0.589308  0  2.347157  0
O  O144  1  0.64709697  0.44836988  0.94676984  1  -1.257731  0  -0.240123  -0.600157  0  2.360958  0
O  O145  1  0.99956675  0.45029062  0.05657813  1  -1.261243  0  -0.231336  -0.590658  0  2.371264  0
O  O146  1  0.32424567  0.46579294  0.00163735  1  -1.442221  0  -0.449313  -0.991174  0  2.223228  0
O  O147  1  0.82055702  0.53412889  0.99937311  1  -1.429823  0  -0.447859  -0.989035  0  2.211373  0
