# generated using pymatgen
data_ZnH5C25N3(ClO)4
_symmetry_space_group_name_H-M   'P 1'
_cell_length_a   14.39021163
_cell_length_b   15.27062182
_cell_length_c   16.05069139
_cell_angle_alpha   87.95022849
_cell_angle_beta   90.26388696
_cell_angle_gamma   90.26007985
_symmetry_Int_Tables_number   1
_chemical_formula_structural   ZnH5C25N3(ClO)4
_chemical_formula_sum   'Zn2 H10 C50 N6 Cl8 O8'
_cell_volume   3524.77095402
_cell_formula_units_Z   2
loop_
 _symmetry_equiv_pos_site_id
 _symmetry_equiv_pos_as_xyz
  1  'x, y, z'
loop_
 _atom_site_type_symbol
 _atom_site_label
 _atom_site_symmetry_multiplicity
 _atom_site_fract_x
 _atom_site_fract_y
 _atom_site_fract_z
 _atom_site_occupancy
 _atom_site_pbe_bader_charge
 _atom_site_pbe_bader_spin_density
 _atom_site_pbe_cm5_charge
 _atom_site_pbe_ddec_charge
 _atom_site_pbe_ddec_spin_density
 _atom_site_pbe_ddec_sum_bond_order
 _atom_site_pbe_magmom
Zn  Zn0  1  0.39761034  0.49970567  0.49865091  1  1.330316  0  0.664545  0.876231  0  2.318551  0
Zn  Zn1  1  0.60238380  0.50029776  0.50135114  1  1.320738  0  0.664622  0.876278  0  2.318217  0
H  H2  1  0.37879657  0.59772209  0.04962001  1  0.08669  0  0.113925  0.120764  0  0.963688  0
H  H3  1  0.53609519  0.07250319  0.71022809  1  0.091684  0  0.11071  0.118269  0  0.989678  0
H  H4  1  0.62120659  0.40227087  0.95038235  1  0.086567  0  0.113908  0.120741  0  0.963682  0
H  H5  1  0.65237933  0.55166464  0.04827215  1  0.096666  0  0.115566  0.125968  0  0.960808  0
H  H6  1  0.34762522  0.44832768  0.95173086  1  0.096736  0  0.115603  0.125928  0  0.960931  0
H  H7  1  0.47231387  0.22646040  0.36773296  1  0.114714  0  0.114905  0.126054  0  0.97305  0
H  H8  1  0.52769346  0.77354112  0.63226480  1  0.114871  0  0.114896  0.126057  0  0.973055  0
H  H9  1  0.46309402  0.08940351  0.29057137  1  0.080614  0  0.111273  0.114472  0  0.980357  0
H  H10  1  0.53690843  0.91059537  0.70942646  1  0.080639  0  0.111289  0.114501  0  0.980358  0
H  H11  1  0.46390171  0.92749567  0.28977160  1  0.091656  0  0.110719  0.118274  0  0.989704  0
C  C12  1  0.50255054  0.67012147  0.50049284  1  1.626614  0  0.218284  0.610614  0  4.175896  0
C  C13  1  0.50027592  0.95342581  0.49981376  1  -0.090466  0  0.003863  -0.002232  0  3.927649  0
C  C14  1  0.51340033  0.08998705  0.57657036  1  0.042278  0  0.00743  0.053601  0  4.002299  0
C  C15  1  0.48660213  0.91001314  0.42342806  1  0.042318  0  0.00741  0.053563  0  4.002348  0
C  C16  1  0.47303867  0.05082740  0.34847274  1  -0.039873  0  -0.079473  -0.118304  0  3.985653  0
C  C17  1  0.52696241  0.94917344  0.65152627  1  -0.03985  0  -0.079458  -0.118348  0  3.985691  0
C  C18  1  0.47346660  0.96132179  0.34798202  1  -0.039968  0  -0.082104  -0.122832  0  3.989529  0
C  C19  1  0.52653378  0.03867839  0.65201702  1  -0.039973  0  -0.082138  -0.122854  0  3.989505  0
C  C20  1  0.19680850  0.45237640  0.55751725  1  0.653823  0  0.162615  0.253002  0  4.01783  0
C  C21  1  0.80318974  0.54760942  0.44247161  1  0.654209  0  0.162421  0.252531  0  4.018053  0
C  C22  1  0.19683633  0.54695946  0.44054528  1  0.673943  0  0.160905  0.261727  0  4.007708  0
C  C23  1  0.49747486  0.32988075  0.49950679  1  1.626666  0  0.218254  0.610536  0  4.175702  0
C  C24  1  0.80315778  0.45303351  0.55945271  1  0.672889  0  0.16096  0.261988  0  4.007427  0
C  C25  1  0.09904904  0.53852047  0.43017104  1  0.035746  0  -0.008392  -0.085682  0  3.98583  0
C  C26  1  0.90094922  0.46146337  0.56982162  1  0.062426  0  -0.008444  -0.085955  0  3.985769  0
C  C27  1  0.50023498  0.50176790  0.66049660  1  1.701675  0  0.22087  0.681193  0  4.218102  0
C  C28  1  0.49973900  0.49823087  0.33950618  1  1.702419  0  0.220856  0.680762  0  4.218517  0
C  C29  1  0.04968998  0.49993783  0.49947108  1  -0.083744  0  0.018776  0.060707  0  3.91802  0
C  C30  1  0.95030618  0.50004600  0.50052095  1  0.072674  0  0.018957  0.061053  0  3.917603  0
C  C31  1  0.09943211  0.46073503  0.56774770  1  0.124203  0  0.001545  -0.049125  0  3.979688  0
C  C32  1  0.90056613  0.53925144  0.43224239  1  0.124279  0  0.001646  -0.048935  0  3.979371  0
C  C33  1  0.04693568  0.56391638  0.35657157  1  0.151958  0  0.037816  0.097445  0  3.992338  0
C  C34  1  0.49818423  0.23130768  0.49949512  1  -0.002769  0  0.003677  -0.0212  0  3.951448  0
C  C35  1  0.95306464  0.43606158  0.64341877  1  0.126009  0  0.037901  0.097546  0  3.992187  0
C  C36  1  0.95030081  0.56586582  0.35767783  1  0.107987  0  0.003662  -0.019457  0  4.040888  0
C  C37  1  0.04970020  0.43411346  0.64231059  1  0.107576  0  0.00369  -0.019523  0  4.040814  0
C  C38  1  0.43204937  0.55374945  0.02714366  1  -0.00597  0  -0.066161  -0.10678  0  3.613825  0
C  C39  1  0.56795449  0.44624285  0.97286122  1  -0.00608  0  -0.066185  -0.106859  0  3.614007  0
C  C40  1  0.51542650  0.58209730  0.97031225  1  0.157523  0  0.030044  0.134294  0  3.700961  0
C  C41  1  0.48457806  0.41789501  0.02969201  1  0.157667  0  0.030124  0.134543  0  3.700711  0
C  C42  1  0.49883602  0.50276726  0.75020946  1  0.237473  0  -0.048803  -0.183445  0  3.980646  0
C  C43  1  0.50114491  0.49721906  0.24979868  1  0.237399  0  -0.048845  -0.183391  0  3.98018  0
C  C44  1  0.41501075  0.47179518  0.97349886  1  -0.025049  0  -0.067245  -0.111533  0  3.610119  0
C  C45  1  0.50182379  0.76869253  0.50050330  1  -0.002852  0  0.003762  -0.020988  0  3.951407  0
C  C46  1  0.58499311  0.52819843  0.02650536  1  -0.024716  0  -0.067224  -0.111597  0  3.609833  0
C  C47  1  0.49823539  0.49950061  0.91400323  1  0.123689  0  0.009595  0.099423  0  3.797643  0
C  C48  1  0.50176847  0.50049235  0.08600100  1  0.123285  0  0.009525  0.099446  0  3.797633  0
C  C49  1  0.49797726  0.50098358  0.82606491  1  -0.550324  0  -0.033557  -0.038725  0  4.089728  0
C  C50  1  0.50202379  0.49900483  0.17393135  1  -0.550247  0  -0.033541  -0.038816  0  4.089273  0
C  C51  1  0.51362677  0.18298931  0.57477932  1  0.132037  0  0.00603  -0.021065  0  4.033033  0
C  C52  1  0.48638125  0.81701156  0.42521909  1  0.132593  0  0.006026  -0.021141  0  4.033174  0
C  C53  1  0.90359559  0.58510342  0.28062335  1  0.848661  0  0.154775  0.206119  0  4.108318  0
C  C54  1  0.09640747  0.41485624  0.71936066  1  0.849662  0  0.154913  0.206318  0  4.108858  0
C  C55  1  0.52996058  0.22820546  0.64962866  1  0.816998  0  0.170767  0.23663  0  4.049737  0
C  C56  1  0.48410314  0.18827685  0.42557440  1  -0.058097  0  -0.076896  -0.151238  0  3.930407  0
C  C57  1  0.47004675  0.77179409  0.35036978  1  0.816342  0  0.170835  0.236794  0  4.049498  0
C  C58  1  0.51590418  0.81172271  0.57442342  1  -0.058205  0  -0.076948  -0.151377  0  3.93033  0
C  C59  1  0.48558412  0.09633659  0.42412404  1  -0.005511  0  0.000702  0.087158  0  4.042933  0
C  C60  1  0.51441904  0.90366360  0.57587438  1  -0.005467  0  0.000714  0.087247  0  4.04281  0
C  C61  1  0.49972516  0.04657439  0.50018403  1  0.021021  0  0.003892  -0.002145  0  3.927714  0
N  N62  1  0.24370555  0.49962826  0.49912492  1  -1.221163  0  -0.296732  -0.292211  0  3.423852  0
N  N63  1  0.75629202  0.50036342  0.50087062  1  -1.221271  0  -0.296671  -0.292089  0  3.423622  0
N  N64  1  0.87031792  0.59834097  0.21484315  1  -1.064116  0  -0.298001  -0.325267  0  2.677039  0
N  N65  1  0.12969064  0.40159122  0.78513481  1  -1.064468  0  -0.298093  -0.325338  0  2.677888  0
N  N66  1  0.54437786  0.26506554  0.71107187  1  -1.137956  0  -0.31759  -0.364525  0  2.694044  0
N  N67  1  0.45562668  0.73493400  0.28892719  1  -1.137868  0  -0.31763  -0.364629  0  2.693853  0
Cl  Cl68  1  0.53489694  0.68825296  0.93139089  1  -0.228275  0  -0.053056  -0.135797  0  1.344184  0
Cl  Cl69  1  0.46510483  0.31174066  0.06861083  1  -0.228478  0  -0.053069  -0.135853  0  1.344184  0
Cl  Cl70  1  0.10049629  0.58203129  0.26267462  1  -0.108329  0  0.052625  -0.000797  0  1.593868  0
Cl  Cl71  1  0.89951165  0.41792702  0.73731816  1  -0.108389  0  0.052556  -0.000839  0  1.593772  0
Cl  Cl72  1  0.25745031  0.37965198  0.61804229  1  -0.050337  0  0.10958  0.067158  0  1.667113  0
Cl  Cl73  1  0.74254858  0.62032013  0.38193824  1  -0.050667  0  0.109604  0.06729  0  1.667139  0
Cl  Cl74  1  0.25931563  0.62164535  0.38367361  1  -0.056683  0  0.090855  0.041095  0  1.727162  0
Cl  Cl75  1  0.74066674  0.37836847  0.61633809  1  -0.055802  0  0.090854  0.041011  0  1.727142  0
O  O76  1  0.42356115  0.63317142  0.49861688  1  -1.158331  0  -0.315029  -0.553813  0  2.354251  0
O  O77  1  0.57644622  0.36682478  0.50139412  1  -1.15872  0  -0.314827  -0.553569  0  2.354976  0
O  O78  1  0.58194119  0.63456633  0.50208831  1  -1.150115  0  -0.315116  -0.552762  0  2.342747  0
O  O79  1  0.41806750  0.36544246  0.49789927  1  -1.149895  0  -0.315266  -0.552867  0  2.341849  0
O  O80  1  0.42148580  0.50030279  0.62379323  1  -1.145378  0  -0.319313  -0.561069  0  2.331437  0
O  O81  1  0.57847360  0.49969132  0.37621465  1  -1.145713  0  -0.31945  -0.560956  0  2.331858  0
O  O82  1  0.58004386  0.50244014  0.62640670  1  -1.142113  0  -0.318082  -0.554348  0  2.32705  0
O  O83  1  0.41991276  0.49757695  0.37359054  1  -1.142707  0  -0.317935  -0.554054  0  2.326659  0
