# generated using pymatgen
data_CoH14C14(NO2)4
_symmetry_space_group_name_H-M   'P 1'
_cell_length_a   7.41801824
_cell_length_b   9.36629803
_cell_length_c   12.65867544
_cell_angle_alpha   105.78076869
_cell_angle_beta   89.99700559
_cell_angle_gamma   113.31625429
_symmetry_Int_Tables_number   1
_chemical_formula_structural   CoH14C14(NO2)4
_chemical_formula_sum   'Co2 H28 C28 N8 O16'
_cell_volume   771.46612181
_cell_formula_units_Z   2
loop_
 _symmetry_equiv_pos_site_id
 _symmetry_equiv_pos_as_xyz
  1  'x, y, z'
loop_
 _atom_site_type_symbol
 _atom_site_label
 _atom_site_symmetry_multiplicity
 _atom_site_fract_x
 _atom_site_fract_y
 _atom_site_fract_z
 _atom_site_occupancy
 _atom_site_hle17_ddec_charge
 _atom_site_hle17_ddec_spin_density
 _atom_site_hle17_ddec_sum_bond_order
 _atom_site_hle17_magmom
 _atom_site_hse06_10hf_ddec_charge
 _atom_site_hse06_10hf_ddec_spin_density
 _atom_site_hse06_10hf_ddec_sum_bond_order
 _atom_site_hse06_10hf_magmom
 _atom_site_hse06_ddec_charge
 _atom_site_hse06_ddec_spin_density
 _atom_site_hse06_ddec_sum_bond_order
 _atom_site_hse06_magmom
 _atom_site_pbe_cm5_charge
 _atom_site_pbe_ddec_charge
 _atom_site_pbe_ddec_spin_density
 _atom_site_pbe_ddec_sum_bond_order
 _atom_site_pbe_magmom
Co  Co0  1  0.85705820  0.99992521  0.24980654  1  1.083083  -2.811891  1.877877  -2.538  1.046607  -2.830532  2.327091  -2.606  1.133009  -2.876323  2.244752  -2.693  0.643182  0.965781  -2.78359  2.40412  -2.52
Co  Co1  1  0.14294130  0.00007346  0.75018940  1  1.083061  -2.811889  1.877837  -2.538  1.046565  -2.830531  2.327073  -2.606  1.132975  -2.876323  2.24473  -2.693  0.643158  0.965748  -2.78362  2.404083  -2.52
H  H2  1  0.44028144  0.40118255  0.19431387  1  0.12649  0.000471  0.935039  0.0  0.137405  0.000112  0.999064  0.0  0.140073  0.000108  0.997491  0.0  0.121688  0.135274  9.4e-05  1.00062  0.0
H  H3  1  0.03893793  0.59846714  0.30537605  1  0.126942  0.000472  0.93393  0.0  0.137153  0.000134  0.998636  0.0  0.139871  0.000117  0.997018  0.0  0.121866  0.135175  9.6e-05  1.000058  0.0
H  H4  1  0.55972124  0.59881979  0.80568516  1  0.126493  0.000464  0.935016  0.0  0.137425  0.000112  0.99902  0.0  0.140093  0.000108  0.997448  0.0  0.121698  0.135293  9.4e-05  1.000579  0.0
H  H5  1  0.96105816  0.40153279  0.69462724  1  0.126967  0.00047  0.933998  0.0  0.137191  0.000134  0.998638  0.0  0.139906  0.000117  0.997021  0.0  0.121899  0.13522  9.6e-05  1.000061  0.0
H  H6  1  0.32996030  0.24163568  0.06966536  1  0.137239  0.000413  0.921016  0.0  0.146422  0.000202  0.981939  0.0  0.150142  0.000218  0.979258  0.0  0.122956  0.14379  0.000163  0.984062  0.0
H  H7  1  0.08807756  0.75821205  0.42989977  1  0.137935  0.000408  0.920156  0.0  0.147285  0.000197  0.980769  0.0  0.150914  0.000215  0.978155  0.0  0.123166  0.14435  0.000163  0.983152  0.0
H  H8  1  0.67004313  0.75836544  0.93033423  1  0.137243  0.00041  0.92102  0.0  0.146432  0.000202  0.981939  0.0  0.150148  0.000219  0.979261  0.0  0.122961  0.143801  0.000163  0.984061  0.0
H  H9  1  0.91191570  0.24179030  0.57010164  1  0.137902  0.000404  0.920178  0.0  0.147244  0.000197  0.980783  0.0  0.150869  0.000215  0.978172  0.0  0.12318  0.144316  0.000163  0.983167  0.0
H  H10  1  0.21381641  0.86648129  0.15229017  1  0.130773  -7e-05  0.925693  0.0  0.139077  -0.000107  0.992065  -0.001  0.141514  3e-06  0.990687  0.0  0.122606  0.137284  -0.000224  0.993116  -0.001
H  H11  1  0.34781423  0.13337560  0.34756844  1  0.131343  -5.8e-05  0.924317  0.0  0.139931  -0.000111  0.990505  -0.001  0.142408  -2e-06  0.98909  0.0  0.122926  0.137975  -0.000224  0.991777  -0.001
H  H12  1  0.78618688  0.13352225  0.84770832  1  0.13077  -6.6e-05  0.925805  0.0  0.139118  -0.000107  0.992094  -0.001  0.141557  3e-06  0.990713  0.0  0.122618  0.137321  -0.000224  0.993145  -0.001
H  H13  1  0.65218920  0.86662553  0.65243194  1  0.13133  -5.6e-05  0.924331  0.0  0.139921  -0.000111  0.990521  -0.001  0.142397  -1e-06  0.989106  0.0  0.122911  0.137962  -0.000224  0.991795  -0.001
H  H14  1  0.24331392  0.85556366  0.01054156  1  0.131162  0.000408  0.917902  0.0  0.143165  8.5e-05  0.974981  0.0  0.145677  0.000138  0.973593  0.0  0.127046  0.141303  3.7e-05  0.976269  0.0
H  H15  1  0.38808094  0.14427229  0.48932129  1  0.130754  0.000466  0.918965  0.0  0.143641  0.00014  0.975171  0.0  0.146121  0.000174  0.973827  0.0  0.127193  0.141788  3.8e-05  0.976299  0.0
H  H16  1  0.75668424  0.14443503  0.98945754  1  0.131175  0.000412  0.917927  0.0  0.143176  8.5e-05  0.975001  0.0  0.145687  0.000138  0.973613  0.0  0.127052  0.141311  3.7e-05  0.976288  0.0
H  H17  1  0.61191945  0.85572276  0.51067867  1  0.130774  0.00047  0.918972  0.0  0.143666  0.000139  0.975169  0.0  0.146145  0.000175  0.973825  0.0  0.127195  0.141813  3.8e-05  0.976296  0.0
H  H18  1  0.38419801  0.67618671  0.21965419  1  0.143339  7.4e-05  0.95416  0.0  0.146001  4.8e-05  1.0225  0.0  0.150286  5.7e-05  1.01675  0.0  0.149642  0.142933  2.3e-05  1.02649  0.0
H  H19  1  0.70808058  0.32361254  0.28022745  1  0.143695  9.5e-05  0.953807  0.0  0.14598  6.8e-05  1.022744  0.0  0.150412  7.2e-05  1.016891  0.0  0.149632  0.142589  2.3e-05  1.027163  0.0
H  H20  1  0.61580076  0.32381320  0.78034594  1  0.143345  8.7e-05  0.954179  0.0  0.146001  4.7e-05  1.022514  0.0  0.150287  5.7e-05  1.01676  0.0  0.149651  0.142933  2.3e-05  1.026502  0.0
H  H21  1  0.29192495  0.67638739  0.71977664  1  0.143721  9.9e-05  0.953905  0.0  0.145969  6.7e-05  1.02285  0.0  0.1504  7.2e-05  1.016997  0.0  0.149617  0.142579  2.3e-05  1.027263  0.0
H  H22  1  0.20448537  0.30553148  0.90995435  1  0.130019  0.000892  0.967693  0.0  0.13385  0.000324  1.037702  0.0  0.137491  0.000305  1.034421  0.0  0.129457  0.131431  0.000317  1.039982  0.0
H  H23  1  0.89906719  0.69441752  0.58987584  1  0.130327  0.000894  0.966203  0.0  0.133438  0.000329  1.037037  0.0  0.137068  0.00031  1.033793  0.0  0.129305  0.130976  0.000326  1.039371  0.0
H  H24  1  0.79551462  0.69447086  0.09004468  1  0.129989  0.000898  0.967706  0.0  0.133834  0.000324  1.03769  0.0  0.137469  0.000305  1.034424  0.0  0.129457  0.131416  0.000317  1.039971  0.0
H  H25  1  0.10092486  0.30558240  0.41012667  1  0.130324  0.000899  0.966172  0.0  0.133401  0.00033  1.037034  0.0  0.137029  0.00031  1.033794  0.0  0.129267  0.130939  0.000326  1.039372  0.0
H  H26  1  0.17352847  0.58604312  0.88655804  1  0.14253  -5e-06  0.963546  0.0  0.150438  -9e-06  1.025114  0.0  0.153879  1e-06  1.022854  0.0  0.131537  0.147833  -1.2e-05  1.027029  0.0
H  H27  1  0.58768216  0.41396557  0.61336433  1  0.142523  6e-06  0.963688  0.0  0.150647  4e-06  1.025077  0.0  0.15408  9e-06  1.02283  0.0  0.13148  0.147999  -1.2e-05  1.027009  0.0
H  H28  1  0.82647300  0.41395678  0.11344130  1  0.142454  -4e-06  0.963551  0.0  0.150364  -9e-06  1.025127  0.0  0.153805  1e-06  1.022867  0.0  0.131509  0.147761  -1.2e-05  1.027042  0.0
H  H29  1  0.41231332  0.58603313  0.38663793  1  0.14255  7e-06  0.963668  0.0  0.150672  4e-06  1.025052  0.0  0.154105  1e-05  1.022805  0.0  0.131485  0.148022  -1.2e-05  1.02699  0.0
C  C30  1  0.12414298  0.27199113  0.18793458  1  0.670827  0.005775  3.87871  0.005  0.632185  -0.001107  4.179691  0.0  0.666994  -0.000351  4.173983  0.0  0.209713  0.6078  -0.002253  4.181401  -0.001
C  C31  1  0.85162722  0.72743015  0.31167544  1  0.672663  0.005542  3.87873  0.005  0.633687  -0.001279  4.179734  -0.001  0.668604  -0.000557  4.173941  0.0  0.210744  0.609308  -0.002251  4.181246  -0.001
C  C32  1  0.87585923  0.72800756  0.81206531  1  0.670657  0.005763  3.878886  0.005  0.632015  -0.001106  4.179876  0.0  0.666823  -0.000351  4.174169  0.0  0.209632  0.607629  -0.002253  4.181582  -0.001
C  C33  1  0.14836704  0.27256610  0.68832397  1  0.672728  0.005539  3.878796  0.005  0.633712  -0.00128  4.179828  -0.001  0.668627  -0.000558  4.174032  0.0  0.210765  0.60934  -0.002251  4.181337  -0.001
C  C34  1  0.30995109  0.33990320  0.13169494  1  -0.17052  -0.003235  3.592336  -0.005  -0.226786  -0.001811  3.828334  -0.003  -0.22874  -0.00112  3.834447  -0.002  -0.052885  -0.225171  -0.002487  3.82451  -0.003
C  C35  1  0.96984403  0.65979652  0.36796338  1  -0.17291  -0.003172  3.592353  -0.005  -0.227981  -0.001793  3.827625  -0.003  -0.229968  -0.001128  3.833727  -0.002  -0.053922  -0.226857  -0.002498  3.824263  -0.003
C  C36  1  0.69004964  0.66009792  0.86830464  1  -0.170492  -0.003225  3.592351  -0.005  -0.226771  -0.00181  3.828349  -0.003  -0.228726  -0.00112  3.834467  -0.002  -0.052904  -0.225159  -0.002487  3.824526  -0.003
C  C37  1  0.03015131  0.34020461  0.63203779  1  -0.172962  -0.003167  3.592402  -0.005  -0.22791  -0.001792  3.827506  -0.003  -0.229889  -0.001126  3.833591  -0.002  -0.053951  -0.226822  -0.002497  3.824191  -0.003
C  C38  1  0.51555647  0.96598683  0.12127085  1  0.686159  0.002068  3.872573  0.002  0.641378  -0.003091  4.182228  -0.003  0.676526  -0.002103  4.176119  -0.002  0.211339  0.616566  -0.003971  4.184702  -0.003
C  C39  1  0.55025765  0.03406485  0.37866295  1  0.686065  0.002065  3.873572  0.002  0.641652  -0.003016  4.183062  -0.003  0.676847  -0.002066  4.176848  -0.002  0.211546  0.616788  -0.003983  4.185497  -0.003
C  C40  1  0.48444412  0.03401672  0.87872763  1  0.686237  0.002074  3.872621  0.002  0.641445  -0.00309  4.182268  -0.003  0.676588  -0.002102  4.176154  -0.002  0.211342  0.616628  -0.00397  4.184743  -0.003
C  C41  1  0.44974773  0.96593749  0.62133608  1  0.686112  0.00207  3.873411  0.002  0.641732  -0.003017  4.182853  -0.003  0.676927  -0.002063  4.176632  -0.002  0.211604  0.616867  -0.003983  4.185287  -0.003
C  C42  1  0.30030826  0.84085015  0.08483868  1  -0.17163  -0.003494  3.588593  -0.005  -0.229561  -0.002012  3.830912  -0.003  -0.23112  -0.001219  3.837377  -0.002  -0.051443  -0.228169  -0.002863  3.82684  -0.004
C  C43  1  0.45986148  0.15905708  0.41505769  1  -0.171735  -0.003451  3.58793  -0.005  -0.230643  -0.001961  3.830576  -0.003  -0.232217  -0.001199  3.837047  -0.002  -0.051719  -0.22948  -0.002849  3.827032  -0.004
C  C44  1  0.69969578  0.15915219  0.91516115  1  -0.171701  -0.003508  3.588736  -0.005  -0.229607  -0.002012  3.830995  -0.003  -0.231165  -0.001219  3.837461  -0.002  -0.051455  -0.228204  -0.002863  3.826911  -0.004
C  C45  1  0.54014074  0.84094162  0.58494299  1  -0.171787  -0.003458  3.587879  -0.005  -0.230737  -0.001961  3.830578  -0.003  -0.232311  -0.001202  3.837051  -0.002  -0.051716  -0.229568  -0.002849  3.827029  -0.004
C  C46  1  0.32501022  0.60992347  0.13356547  1  0.150209  -0.000596  3.495047  -0.001  0.07825  -0.000314  3.757492  -0.001  0.096247  -0.00015  3.762643  0.0  0.175414  0.0667  -0.000476  3.754048  -0.001
C  C47  1  0.71523773  0.38990698  0.36631765  1  0.150423  -0.000561  3.49517  -0.001  0.078189  -0.000312  3.758745  -0.001  0.096154  -0.000159  3.763697  0.0  0.175445  0.066952  -0.000475  3.754993  -0.001
C  C48  1  0.67499051  0.39007765  0.86643491  1  0.150115  -0.00065  3.49521  -0.001  0.078201  -0.000314  3.757596  -0.001  0.096201  -0.000154  3.762741  0.0  0.175385  0.066651  -0.000476  3.754154  -0.001
C  C49  1  0.28476571  0.61009416  0.63368589  1  0.150201  -0.000573  3.495422  -0.001  0.078113  -0.000313  3.75886  -0.001  0.096078  -0.000162  3.763809  0.0  0.175446  0.066878  -0.000475  3.755103  -0.001
C  C50  1  0.23316308  0.42215027  0.96919662  1  -0.034813  0.000219  3.62033  0.0  -0.082452  -5.5e-05  3.894715  0.0  -0.080984  -5e-06  3.912868  0.0  0.01256  -0.083698  -0.000153  3.882753  0.0
C  C51  1  0.81112186  0.57777495  0.53066057  1  -0.034501  -0.000118  3.619048  0.0  -0.081415  -0.000204  3.893997  0.0  -0.079946  -0.000109  3.9121  0.0  0.013204  -0.082525  -0.000152  3.88178  0.0
C  C52  1  0.76683434  0.57784964  0.03080273  1  -0.034709  0.000171  3.620357  0.0  -0.082346  -5.5e-05  3.894733  0.0  -0.080874  -6e-06  3.912873  0.0  0.012602  -0.083593  -0.000154  3.882773  0.0
C  C53  1  0.18887423  0.42222499  0.46934352  1  -0.034479  -0.000143  3.618791  0.0  -0.081332  -0.000204  3.893742  0.0  -0.079862  -0.000109  3.911836  0.0  0.013285  -0.082441  -0.000152  3.881524  0.0
C  C54  1  0.22105093  0.55875362  0.95681662  1  -0.032895  -0.00013  3.615945  0.0  -0.080165  -5.8e-05  3.887843  0.0  -0.0779  -8e-06  3.905546  0.0  0.016797  -0.081935  -0.000117  3.876506  0.0
C  C55  1  0.66249176  0.44116379  0.54307940  1  -0.03279  1.6e-05  3.615964  0.0  -0.080506  -5.2e-05  3.888  0.0  -0.078161  -5e-06  3.905635  0.0  0.017099  -0.081993  -0.000118  3.876544  0.0
C  C56  1  0.77894710  0.44124750  0.04318296  1  -0.032806  -0.000107  3.615914  0.0  -0.080082  -5.8e-05  3.887832  0.0  -0.077814  -7e-06  3.905533  0.0  0.016828  -0.081854  -0.000117  3.876498  0.0
C  C57  1  0.33750641  0.55883492  0.45692286  1  -0.032858  2.8e-05  3.61587  0.0  -0.080598  -5.2e-05  3.887937  0.0  -0.078253  -6e-06  3.905571  0.0  0.017076  -0.082086  -0.000118  3.876481  0.0
N  N58  1  0.29899322  0.45708970  0.07947106  1  -0.019837  -0.000453  3.602781  -0.001  0.068416  -0.000387  3.823864  -0.001  0.054526  -0.000227  3.850025  0.0  -0.230485  0.077509  -0.000576  3.806188  -0.001
N  N59  1  0.84198950  0.54274408  0.42036140  1  -0.019686  -0.000347  3.603839  -0.001  0.068538  -0.00037  3.824861  -0.001  0.054722  -0.000222  3.850876  0.0  -0.230433  0.077843  -0.000577  3.806794  -0.001
N  N60  1  0.70100286  0.54291020  0.92052828  1  -0.019903  -0.000425  3.602975  -0.001  0.068343  -0.000387  3.824026  -0.001  0.054454  -0.000223  3.850186  0.0  -0.230497  0.077436  -0.000576  3.806349  -0.001
N  N61  1  0.15801124  0.45725707  0.57964214  1  -0.019578  -0.000336  3.603828  -0.001  0.068535  -0.00037  3.824855  -0.001  0.054724  -0.000219  3.850852  0.0  -0.230491  0.077848  -0.000577  3.806796  -0.001
N  N62  1  0.27755196  0.67303265  0.06007353  1  -0.012811  0.000144  3.591642  0.0  0.075806  -0.000152  3.811197  0.0  0.062257  -4.3e-05  3.836397  0.0  -0.228656  0.084613  -0.000301  3.794234  0.0
N  N63  1  0.60474316  0.32685528  0.43983529  1  -0.013083  -0.0002  3.591236  0.0  0.075931  -0.000335  3.811157  0.0  0.062352  -0.000171  3.836358  0.0  -0.228973  0.084648  -0.000304  3.794099  0.0
N  N64  1  0.72245072  0.32696970  0.93992709  1  -0.012748  0.000183  3.591603  0.0  0.075828  -0.000152  3.811178  0.0  0.062283  -4.1e-05  3.836373  0.0  -0.228667  0.084632  -0.000301  3.794215  0.0
N  N65  1  0.39525696  0.67314464  0.56016642  1  -0.012947  -0.00019  3.591161  0.0  0.076044  -0.000334  3.811065  0.0  0.062463  -0.000167  3.836267  0.0  -0.228931  0.084761  -0.000304  3.794004  0.0
O  O66  1  0.10878401  0.14552869  0.21651798  1  -0.649177  -0.047118  2.066617  -0.08  -0.611506  -0.035739  2.350864  -0.054  -0.650671  -0.026903  2.33386  -0.04  -0.331276  -0.578886  -0.044077  2.361368  -0.066
O  O67  1  0.96251781  0.85381582  0.28296867  1  -0.649541  -0.046832  2.066478  -0.079  -0.611869  -0.035531  2.351267  -0.053  -0.650907  -0.0268  2.33399  -0.04  -0.331032  -0.579371  -0.044017  2.361697  -0.066
O  O68  1  0.89121759  0.85446878  0.78348167  1  -0.649125  -0.047116  2.066646  -0.08  -0.611459  -0.035738  2.350899  -0.054  -0.650622  -0.026903  2.333893  -0.04  -0.331243  -0.578841  -0.044073  2.361397  -0.066
O  O69  1  0.03747314  0.14617921  0.71702812  1  -0.649597  -0.046833  2.066539  -0.079  -0.61193  -0.035531  2.35136  -0.053  -0.650969  -0.0268  2.33408  -0.04  -0.33105  -0.579436  -0.044015  2.36179  -0.066
O  O70  1  0.00873852  0.34044636  0.20474618  1  -0.617881  -0.002757  1.976078  -0.005  -0.583241  -0.00401  2.220207  -0.007  -0.607357  -0.002951  2.212843  -0.005  -0.30936  -0.565631  -0.005082  2.224193  -0.008
O  O71  1  0.66783051  0.65882668  0.29492192  1  -0.618388  -0.002484  1.976598  -0.005  -0.584018  -0.003691  2.221532  -0.006  -0.608184  -0.002703  2.213974  -0.005  -0.310043  -0.566357  -0.005047  2.224825  -0.008
O  O72  1  0.99126174  0.65955111  0.79525347  1  -0.617768  -0.002756  1.976184  -0.005  -0.583137  -0.00401  2.220318  -0.007  -0.607252  -0.00295  2.212955  -0.005  -0.30933  -0.565527  -0.005081  2.224296  -0.008
O  O73  1  0.33216388  0.34116715  0.70507858  1  -0.61836  -0.002483  1.976621  -0.005  -0.584009  -0.003692  2.221604  -0.006  -0.608175  -0.002703  2.214045  -0.005  -0.310034  -0.566349  -0.005046  2.224892  -0.008
O  O74  1  0.64527162  0.90696337  0.12727852  1  -0.68349  -0.043032  2.093103  -0.073  -0.648916  -0.033239  2.392757  -0.048  -0.687857  -0.025011  2.374729  -0.036  -0.338798  -0.616201  -0.041201  2.404094  -0.06
O  O75  1  0.73898166  0.09326020  0.37263479  1  -0.684123  -0.042446  2.094387  -0.071  -0.649363  -0.032677  2.393772  -0.047  -0.688193  -0.024678  2.375523  -0.035  -0.338936  -0.616488  -0.041158  2.40455  -0.06
O  O76  1  0.35473288  0.09304259  0.87271729  1  -0.683513  -0.043033  2.093256  -0.073  -0.648872  -0.033238  2.3928  -0.048  -0.687862  -0.02501  2.374879  -0.036  -0.338781  -0.616156  -0.041198  2.404129  -0.06
O  O77  1  0.26102237  0.90674212  0.62736188  1  -0.6841  -0.042444  2.094289  -0.071  -0.649352  -0.032677  2.393684  -0.047  -0.688182  -0.024677  2.375434  -0.035  -0.338894  -0.61648  -0.041155  2.404459  -0.06
O  O78  1  0.54528000  0.11185462  0.14429376  1  -0.597224  -0.004054  1.919684  -0.007  -0.553016  -0.003895  2.150964  -0.007  -0.577673  -0.002788  2.144214  -0.005  -0.309532  -0.536034  -0.005113  2.155172  -0.008
O  O79  1  0.43439204  0.88815297  0.35564525  1  -0.59746  -0.003928  1.919309  -0.007  -0.553641  -0.003795  2.150754  -0.007  -0.578286  -0.002732  2.143991  -0.005  -0.310042  -0.536413  -0.005111  2.154539  -0.008
O  O80  1  0.45472060  0.88814894  0.85570710  1  -0.597263  -0.00405  1.919656  -0.007  -0.5531  -0.003895  2.150985  -0.007  -0.577752  -0.002788  2.144235  -0.005  -0.309554  -0.53612  -0.005112  2.155195  -0.008
O  O81  1  0.56561616  0.11184692  0.64435251  1  -0.597459  -0.003933  1.91926  -0.007  -0.5537  -0.003795  2.150768  -0.007  -0.578341  -0.002734  2.144002  -0.005  -0.310132  -0.536472  -0.005111  2.154552  -0.008
