# generated using pymatgen
data_CuH3C5N2
_symmetry_space_group_name_H-M   'P 1'
_cell_length_a   18.03899918
_cell_length_b   18.01983460
_cell_length_c   17.95675613
_cell_angle_alpha   93.66481686
_cell_angle_beta   93.63595262
_cell_angle_gamma   93.34469061
_symmetry_Int_Tables_number   1
_chemical_formula_structural   CuH3C5N2
_chemical_formula_sum   'Cu12 H36 C60 N24'
_cell_volume   5801.93764011
_cell_formula_units_Z   12
loop_
 _symmetry_equiv_pos_site_id
 _symmetry_equiv_pos_as_xyz
  1  'x, y, z'
loop_
 _atom_site_type_symbol
 _atom_site_label
 _atom_site_symmetry_multiplicity
 _atom_site_fract_x
 _atom_site_fract_y
 _atom_site_fract_z
 _atom_site_occupancy
 _atom_site_pbe_bader_charge
 _atom_site_pbe_bader_spin_density
 _atom_site_pbe_cm5_charge
 _atom_site_pbe_ddec_charge
 _atom_site_pbe_ddec_spin_density
 _atom_site_pbe_ddec_sum_bond_order
 _atom_site_pbe_magmom
Cu  Cu0  1  0.74354074  0.74257840  0.86325854  1  0.532157  0  0.481987  0.199671  0  2.12702  0
Cu  Cu1  1  0.86677597  0.74621654  0.74461675  1  0.54857  0  0.483061  0.199895  0  2.131866  0
Cu  Cu2  1  0.74548856  0.86680308  0.74551429  1  0.518456  0  0.482181  0.199269  0  2.130708  0
Cu  Cu3  1  0.74231007  0.26559431  0.14879824  1  0.538841  0  0.486509  0.208409  0  2.143674  0
Cu  Cu4  1  0.89757434  0.24096397  0.23914069  1  0.555807  0  0.477207  0.199708  0  2.090576  0
Cu  Cu5  1  0.73922133  0.15510600  0.26706059  1  0.544216  0  0.486842  0.21101  0  2.131951  0
Cu  Cu6  1  0.26668754  0.73998779  0.15256333  1  0.539711  0  0.486487  0.208958  0  2.137431  0
Cu  Cu7  1  0.15177970  0.74080478  0.26643432  1  0.543176  0  0.487188  0.210061  0  2.139641  0
Cu  Cu8  1  0.23922910  0.89758233  0.23989059  1  0.524736  0  0.476858  0.19927  0  2.08908  0
Cu  Cu9  1  0.23771253  0.23627633  0.90055155  1  0.553045  0  0.475972  0.200074  0  2.081839  0
Cu  Cu10  1  0.15353174  0.26548049  0.74096483  1  0.541237  0  0.485721  0.210179  0  2.133101  0
Cu  Cu11  1  0.26509270  0.14883749  0.74243072  1  0.539836  0  0.485903  0.209313  0  2.138233  0
H  H12  1  0.80123772  0.61730845  0.96398555  1  0.0833  0  0.116558  0.108589  0  0.99842  0
H  H13  1  0.97019190  0.62356951  0.80346906  1  0.074419  0  0.116899  0.109444  0  0.997363  0
H  H14  1  0.62219861  0.96861498  0.80563869  1  0.086175  0  0.117078  0.109879  0  0.996354  0
H  H15  1  0.61809074  0.79842274  0.96503367  1  0.121425  0  0.116715  0.109056  0  0.998269  0
H  H16  1  0.96785645  0.80457324  0.62025830  1  0.091006  0  0.116826  0.109445  0  0.997723  0
H  H17  1  0.80319855  0.96993352  0.62197095  1  0.073194  0  0.116761  0.109348  0  0.996824  0
H  H18  1  0.78934849  0.39265857  0.05205254  1  0.107213  0  0.11875  0.108814  0  0.992877  0
H  H19  1  0.00581840  0.35336241  0.15537889  1  0.070812  0  0.116197  0.107303  0  1.001862  0
H  H20  1  0.60011936  0.04629526  0.21034030  1  0.094373  0  0.119709  0.114206  0  0.989065  0
H  H21  1  0.61067439  0.20011831  0.03535684  1  0.108126  0  0.119622  0.114155  0  0.988049  0
H  H22  1  0.00413346  0.15394751  0.34960561  1  0.092934  0  0.116036  0.10668  0  1.003011  0
H  H23  1  0.78649865  0.06029892  0.39557743  1  0.106342  0  0.118659  0.108945  0  0.993125  0
H  H24  1  0.20544261  0.60518720  0.04029165  1  0.090478  0  0.119521  0.113834  0  0.988488  0
H  H25  1  0.04148804  0.60496084  0.20601634  1  0.089203  0  0.119542  0.114204  0  0.988124  0
H  H26  1  0.35131098  0.00431595  0.15542082  1  0.089893  0  0.116109  0.107281  0  1.002411  0
H  H27  1  0.39577841  0.78639880  0.05841378  1  0.086624  0  0.118867  0.108936  0  0.993214  0
H  H28  1  0.05523928  0.78865976  0.39342892  1  0.096122  0  0.119072  0.10928  0  0.993813  0
H  H29  1  0.15221221  0.00588609  0.34980455  1  0.067143  0  0.116345  0.1073  0  1.002833  0
H  H30  1  0.15061273  0.34788892  0.00706202  1  0.102325  0  0.116154  0.107324  0  1.002484  0
H  H31  1  0.06105434  0.39610538  0.78711477  1  0.06943  0  0.118909  0.109059  0  0.993452  0
H  H32  1  0.39316393  0.05386320  0.78985282  1  0.106487  0  0.118666  0.108608  0  0.993824  0
H  H33  1  0.34901782  0.15007832  0.00861292  1  0.081295  0  0.116188  0.107044  0  1.001617  0
H  H34  1  0.04304706  0.20721220  0.60313724  1  0.10311  0  0.119447  0.113939  0  0.989137  0
H  H35  1  0.20345128  0.03792607  0.60627735  1  0.095296  0  0.11947  0.114253  0  0.987484  0
H  H36  1  0.84050857  0.99364523  0.49512097  1  0.035565  0  0.099315  0.112331  0  1.020435  0
H  H37  1  0.05947865  0.06188336  0.42820149  1  0.032158  0  0.099419  0.08175  0  0.980005  0
H  H38  1  0.98946032  0.84255889  0.49350677  1  0.013258  0  0.099507  0.112133  0  1.021399  0
H  H39  1  0.00739287  0.00767595  0.65061487  1  0.089195  0  0.103356  0.120277  0  1.004452  0
H  H40  1  0.99194777  0.49412707  0.84006977  1  0.030521  0  0.099477  0.112506  0  1.020453  0
H  H41  1  0.06158720  0.43008025  0.06106916  1  0.030595  0  0.099388  0.081352  0  0.980464  0
H  H42  1  0.84224689  0.49545665  0.99023794  1  0.073449  0  0.099452  0.111779  0  1.022218  0
H  H43  1  0.00714576  0.65125607  0.00593109  1  0.073537  0  0.103707  0.121107  0  1.003833  0
H  H44  1  0.49622196  0.83945029  0.99351849  1  0.017048  0  0.099263  0.112083  0  1.02143  0
H  H45  1  0.43050329  0.05913471  0.06378406  1  0.03996  0  0.099307  0.081159  0  0.98075  0
H  H46  1  0.49289499  0.98811707  0.84246632  1  0.014197  0  0.099202  0.112061  0  1.020878  0
H  H47  1  0.65115138  0.00552356  0.00677732  1  0.075788  0  0.103833  0.121217  0  1.003316  0
C  C48  1  0.83576362  0.62671344  0.91775288  1  0.342023  0  -0.003458  -0.065844  0  3.980856  0
C  C49  1  0.90279702  0.59634706  0.90074201  1  0.037363  0  -0.03619  -0.036881  0  4.010284  0
C  C50  1  0.92191623  0.62992212  0.83588429  1  0.409936  0  -0.003549  -0.067101  0  3.980757  0
C  C51  1  0.62915218  0.92012662  0.83766037  1  0.406701  0  -0.003324  -0.066766  0  3.980552  0
C  C52  1  0.59610819  0.90030421  0.90256482  1  0.027505  0  -0.035934  -0.03616  0  4.011345  0
C  C53  1  0.62702799  0.83333759  0.91897129  1  0.318891  0  -0.003816  -0.067131  0  3.981575  0
C  C54  1  0.92071505  0.83821995  0.62857441  1  0.394223  0  -0.003505  -0.066732  0  3.979914  0
C  C55  1  0.90205789  0.90401365  0.59658032  1  -0.015752  0  -0.036188  -0.037239  0  4.00916  0
C  C56  1  0.83671120  0.92252267  0.62947187  1  0.406535  0  -0.002834  -0.066254  0  3.979881  0
C  C57  1  0.83679169  0.37497008  0.08507740  1  0.390836  0  0.005354  -0.048074  0  3.956  0
C  C58  1  0.91278448  0.39687635  0.08326377  1  0.029948  0  -0.037082  -0.025247  0  4.110727  0
C  C59  1  0.94742319  0.35454604  0.13708383  1  0.398633  0  0.000463  -0.064267  0  3.963974  0
C  C60  1  0.60984746  0.09288868  0.17602455  1  0.400444  0  0.001396  -0.059062  0  3.970735  0
C  C61  1  0.58377055  0.10159869  0.10200915  1  0.044951  0  -0.036443  -0.025494  0  4.095444  0
C  C62  1  0.61544504  0.17145992  0.08665654  1  0.359896  0  0.001642  -0.059461  0  3.973395  0
C  C63  1  0.94548739  0.13806680  0.35245357  1  0.418986  0  0.000342  -0.063302  0  3.965479  0
C  C64  1  0.91054381  0.08620831  0.39629317  1  -0.018774  0  -0.037077  -0.025926  0  4.110756  0
C  C65  1  0.83434541  0.09091423  0.37621820  1  0.385769  0  0.005608  -0.048017  0  3.956421  0
C  C66  1  0.17407367  0.61227065  0.08960059  1  0.464475  0  0.00213  -0.057169  0  3.971549  0
C  C67  1  0.10226261  0.58343831  0.10180089  1  -0.095825  0  -0.036478  -0.027236  0  4.095718  0
C  C68  1  0.09032524  0.61217735  0.17422961  1  0.459825  0  0.001498  -0.058635  0  3.970926  0
C  C69  1  0.35383622  0.94562945  0.13867252  1  0.375214  0  -0.000218  -0.064885  0  3.964502  0
C  C70  1  0.39768983  0.91042233  0.08657522  1  0.004683  0  -0.036588  -0.02564  0  4.110704  0
C  C71  1  0.37678521  0.83429302  0.08985005  1  0.422737  0  0.005589  -0.047838  0  3.955918  0
C  C72  1  0.08663987  0.83635481  0.37470926  1  0.377547  0  0.005357  -0.048002  0  3.960134  0
C  C73  1  0.08278084  0.91264317  0.39524619  1  0.036081  0  -0.036613  -0.025676  0  4.110618  0
C  C74  1  0.13550383  0.94730644  0.35215289  1  0.420467  0  -0.000104  -0.064396  0  3.964701  0
C  C75  1  0.13575334  0.35121987  0.94790344  1  0.37535  0  0.000744  -0.063521  0  3.965423  0
C  C76  1  0.08533832  0.39622556  0.91198142  1  0.057828  0  -0.036702  -0.026086  0  4.111841  0
C  C77  1  0.09062747  0.37604597  0.83558764  1  0.413946  0  0.00565  -0.047038  0  3.957243  0
C  C78  1  0.37418131  0.08508033  0.83792164  1  0.392103  0  0.005741  -0.046954  0  3.958781  0
C  C79  1  0.39528343  0.08157230  0.91434418  1  0.034642  0  -0.036614  -0.025972  0  4.111355  0
C  C80  1  0.35142332  0.13354824  0.94967593  1  0.366716  0  0.000378  -0.063088  0  3.962762  0
C  C81  1  0.09125430  0.17451324  0.61098467  1  0.343175  0  0.002329  -0.057352  0  3.973217  0
C  C82  1  0.10208283  0.10193363  0.58243828  1  0.073853  0  -0.036943  -0.027925  0  4.097097  0
C  C83  1  0.17317337  0.08802508  0.61266055  1  0.365827  0  0.001566  -0.059171  0  3.973223  0
C  C84  1  0.94647107  0.94874924  0.54583895  1  0.055917  0  0.003724  0.175079  0  3.884909  0
C  C85  1  0.90088749  0.99629516  0.49450999  1  0.005113  0  -0.104439  -0.223563  0  3.838732  0
C  C86  1  0.94129371  0.03801282  0.45048193  1  -0.056461  0  -0.016414  0.053654  0  3.988051  0
C  C87  1  0.02565824  0.02802648  0.46332492  1  0.012232  0  -0.062947  -0.065021  0  3.790192  0
C  C88  1  0.99288811  0.90303252  0.49342970  1  0.023965  0  -0.104556  -0.223163  0  3.839092  0
C  C89  1  0.03477205  0.94346559  0.44957481  1  -0.06411  0  -0.016333  0.054022  0  3.98532  0
C  C90  1  0.00338566  0.00463734  0.58976050  1  -0.051976  0  -0.095434  -0.211101  0  3.849214  0
C  C91  1  0.04515307  0.04649469  0.54765771  1  -0.01157  0  -0.015566  0.05472  0  3.953479  0
C  C92  1  0.94796263  0.54639201  0.94606766  1  0.069671  0  0.003696  0.174455  0  3.885188  0
C  C93  1  0.99532450  0.49447684  0.90080610  1  -0.006473  0  -0.105043  -0.224179  0  3.838011  0
C  C94  1  0.03737106  0.45101851  0.94196733  1  -0.041514  0  -0.016036  0.054313  0  3.988305  0
C  C95  1  0.02760398  0.46482274  0.02661368  1  0.00038  0  -0.063225  -0.064477  0  3.792364  0
C  C96  1  0.90264937  0.49501271  0.99329734  1  -0.105967  0  -0.104572  -0.221805  0  3.839714  0
C  C97  1  0.94329349  0.45136875  0.03558187  1  0.016778  0  -0.016329  0.052407  0  3.989662  0
C  C98  1  0.00400348  0.59060931  0.00282823  1  -0.028852  0  -0.096112  -0.213394  0  3.848873  0
C  C99  1  0.04604043  0.54890408  0.04528781  1  -0.021608  0  -0.015581  0.055221  0  3.953258  0
C  C100  1  0.54624750  0.94515610  0.94832808  1  0.034525  0  0.004198  0.175892  0  3.884456  0
C  C101  1  0.49569491  0.89990661  0.99641236  1  -0.007464  0  -0.104811  -0.224367  0  3.840886  0
C  C102  1  0.45215859  0.94068258  0.03876882  1  -0.000191  0  -0.016408  0.054546  0  3.989383  0
C  C103  1  0.46503195  0.02502547  0.02918978  1  0.011688  0  -0.063122  -0.064653  0  3.792375  0
C  C104  1  0.49363052  0.99185804  0.90322691  1  0.008812  0  -0.105043  -0.224497  0  3.838503  0
C  C105  1  0.45034999  0.03402161  0.94450157  1  -0.028516  0  -0.015701  0.054943  0  3.985285  0
C  C106  1  0.59057578  0.00197630  0.00425235  1  -0.083164  0  -0.096079  -0.213157  0  3.847051  0
C  C107  1  0.54906110  0.04414649  0.04682683  1  0.006504  0  -0.015672  0.054439  0  3.955006  0
N  N108  1  0.86967486  0.67691741  0.81555716  1  -0.793683  0  -0.341428  -0.140243  0  3.782606  0
N  N109  1  0.81617091  0.67490447  0.86634069  1  -0.757003  0  -0.341173  -0.140391  0  3.779234  0
N  N110  1  0.67509383  0.81446368  0.86718897  1  -0.74658  0  -0.340535  -0.140045  0  3.780856  0
N  N111  1  0.67643908  0.86836457  0.81674916  1  -0.771124  0  -0.341925  -0.140907  0  3.783361  0
N  N112  1  0.81761793  0.87101718  0.67753757  1  -0.743935  0  -0.34116  -0.139752  0  3.78335  0
N  N113  1  0.86973051  0.81872243  0.67699335  1  -0.788877  0  -0.341794  -0.140947  0  3.784144  0
N  N114  1  0.89575452  0.31101839  0.16827088  1  -0.774099  0  -0.336383  -0.140399  0  3.755867  0
N  N115  1  0.82716039  0.32408173  0.13571285  1  -0.790683  0  -0.339762  -0.14054  0  3.784815  0
N  N116  1  0.65826336  0.20166796  0.14673526  1  -0.783944  0  -0.346555  -0.151607  0  3.753367  0
N  N117  1  0.65496666  0.15268710  0.20239100  1  -0.779053  0  -0.345362  -0.152656  0  3.737594  0
N  N118  1  0.82490897  0.14128196  0.32489812  1  -0.761587  0  -0.338573  -0.141231  0  3.781888  0
N  N119  1  0.89387628  0.17083352  0.30978680  1  -0.773657  0  -0.337013  -0.14095  0  3.757514  0
N  N120  1  0.15020944  0.65600521  0.20262453  1  -0.820013  0  -0.346752  -0.153547  0  3.746578  0
N  N121  1  0.20238691  0.65602003  0.14991200  1  -0.746745  0  -0.345798  -0.151759  0  3.74822  0
N  N122  1  0.32500484  0.82511031  0.13965314  1  -0.780859  0  -0.339398  -0.141087  0  3.780743  0
N  N123  1  0.31037961  0.89416635  0.17022165  1  -0.754717  0  -0.336104  -0.139621  0  3.75493  0
N  N124  1  0.16801103  0.89540651  0.30951623  1  -0.774812  0  -0.336348  -0.139685  0  3.754596  0
N  N125  1  0.13736825  0.82659828  0.32387714  1  -0.755191  0  -0.339696  -0.141771  0  3.787114  0
N  N126  1  0.13986333  0.32350636  0.82690712  1  -0.792555  0  -0.338912  -0.141874  0  3.781841  0
N  N127  1  0.16819328  0.30771921  0.89662186  1  -0.774748  0  -0.33624  -0.140929  0  3.753412  0
N  N128  1  0.30776270  0.16524699  0.89799120  1  -0.771147  0  -0.334942  -0.140027  0  3.75083  0
N  N129  1  0.32230432  0.13485639  0.82865435  1  -0.765561  0  -0.340082  -0.142603  0  3.784217  0
N  N130  1  0.20210740  0.14755780  0.65696005  1  -0.784453  0  -0.345806  -0.15167  0  3.745542  0
N  N131  1  0.15105198  0.20143007  0.65597253  1  -0.771232  0  -0.34582  -0.153028  0  3.7418  0
