# generated using pymatgen
data_PrAgH6C12(NO2)4
_symmetry_space_group_name_H-M   'P 1'
_cell_length_a   8.07926317
_cell_length_b   10.16195007
_cell_length_c   18.97234071
_cell_angle_alpha   90.00008371
_cell_angle_beta   90.00004749
_cell_angle_gamma   95.61020873
_symmetry_Int_Tables_number   1
_chemical_formula_structural   PrAgH6C12(NO2)4
_chemical_formula_sum   'Pr4 Ag4 H24 C48 N16 O32'
_cell_volume   1550.18830797
_cell_formula_units_Z   4
loop_
 _symmetry_equiv_pos_site_id
 _symmetry_equiv_pos_as_xyz
  1  'x, y, z'
loop_
 _atom_site_type_symbol
 _atom_site_label
 _atom_site_symmetry_multiplicity
 _atom_site_fract_x
 _atom_site_fract_y
 _atom_site_fract_z
 _atom_site_occupancy
 _atom_site_hle17_bader_spin_density
 _atom_site_hle17_ddec_charge
 _atom_site_hle17_ddec_spin_density
 _atom_site_hle17_ddec_sum_bond_order
 _atom_site_hle17_magmom
 _atom_site_hse06_10hf_bader_spin_density
 _atom_site_hse06_10hf_ddec_charge
 _atom_site_hse06_10hf_ddec_spin_density
 _atom_site_hse06_10hf_ddec_sum_bond_order
 _atom_site_hse06_10hf_magmom
 _atom_site_hse06_bader_spin_density
 _atom_site_hse06_ddec_charge
 _atom_site_hse06_ddec_spin_density
 _atom_site_hse06_ddec_sum_bond_order
 _atom_site_hse06_magmom
 _atom_site_pbe_bader_spin_density
 _atom_site_pbe_cm5_charge
 _atom_site_pbe_ddec_charge
 _atom_site_pbe_ddec_spin_density
 _atom_site_pbe_ddec_sum_bond_order
 _atom_site_pbe_magmom
Pr  Pr0  1  0.25977814  0.65293883  0.10548017  1  0  2.193404  0  1.720233  0  0  1.997249  0  2.22715  0  0  2.04181  0  2.179949  0  0  1.45863  1.96277  0  2.263805  0
Pr  Pr1  1  0.24021993  0.34706009  0.60548266  1  0  2.193486  0  1.720192  0  0  1.997441  0  2.226938  0  0  2.041942  0  2.179837  0  0  1.458663  1.962896  0  2.263713  0
Pr  Pr2  1  0.74021769  0.34705979  0.89451773  1  0  2.193433  0  1.720208  0  0  1.997437  0  2.226856  0  0  2.041891  0  2.179843  0  0  1.458628  1.962861  0  2.263692  0
Pr  Pr3  1  0.75977962  0.65293853  0.39452050  1  0  2.193358  0  1.720256  0  0  1.997209  0  2.227151  0  0  2.041763  0  2.179964  0  0  1.458603  1.9627  0  2.263856  0
Ag  Ag4  1  0.39642575  0.83977253  0.92222609  1  0  0.606113  0  1.289408  0  0  0.46963  0  1.716242  0  0  0.499653  0  1.667386  0  0  0.48455  0.450176  0  1.749537  0
Ag  Ag5  1  0.10357280  0.16022534  0.42222684  1  0  0.606136  0  1.289443  0  0  0.469655  0  1.71629  0  0  0.499679  0  1.667433  0  0  0.48454  0.450204  0  1.749584  0
Ag  Ag6  1  0.60357255  0.16022609  0.07777286  1  0  0.606125  0  1.289461  0  0  0.469651  0  1.716311  0  0  0.49968  0  1.667449  0  0  0.48454  0.4502  0  1.749602  0
Ag  Ag7  1  0.89642539  0.83977230  0.57777369  1  0  0.606097  0  1.289442  0  0  0.469613  0  1.716288  0  0  0.499634  0  1.667431  0  0  0.484543  0.450159  0  1.74958  0
H  H8  1  0.29956397  0.30248044  0.15220490  1  0  0.113889  0  0.972134  0  0  0.114859  0  1.044852  0  0  0.119388  0  1.040574  0  0  0.124001  0.111262  0  1.04842  0
H  H9  1  0.20043531  0.69751763  0.65220502  1  0  0.113913  0  0.972114  0  0  0.114884  0  1.044833  0  0  0.119412  0  1.040554  0  0  0.123997  0.111288  0  1.048397  0
H  H10  1  0.70043409  0.69751620  0.84779457  1  0  0.113867  0  0.972151  0  0  0.114835  0  1.044872  0  0  0.119363  0  1.040595  0  0  0.123978  0.111238  0  1.048437  0
H  H11  1  0.79956423  0.30248100  0.34779498  1  0  0.113837  0  0.972125  0  0  0.114803  0  1.044851  0  0  0.119333  0  1.040573  0  0  0.123975  0.111207  0  1.048419  0
H  H12  1  0.81745822  0.68857232  0.08780771  1  0  0.098299  0  0.933778  0  0  0.10581  0  0.994762  0  0  0.107797  0  0.99459  0  0  0.129662  0.104253  0  0.995142  0
H  H13  1  0.68254369  0.31142807  0.58780752  1  0  0.098332  0  0.933802  0  0  0.105854  0  0.994768  0  0  0.107843  0  0.994595  0  0  0.129669  0.104295  0  0.995147  0
H  H14  1  0.18254280  0.31142828  0.91219282  1  0  0.098327  0  0.933827  0  0  0.10584  0  0.994794  0  0  0.10783  0  0.994621  0  0  0.129667  0.10428  0  0.995173  0
H  H15  1  0.31745845  0.68857154  0.41219195  1  0  0.098321  0  0.933783  0  0  0.105833  0  0.994754  0  0  0.107823  0  0.994581  0  0  0.129664  0.104274  0  0.995134  0
H  H16  1  0.12166173  0.45746630  0.37938143  1  0  0.090041  0  0.96  0  0  0.09682  0  1.027729  0  0  0.099357  0  1.025222  0  0  0.126282  0.094704  0  1.030093  0
H  H17  1  0.37833931  0.54253243  0.87938097  1  0  0.090075  0  0.959999  0  0  0.096852  0  1.02773  0  0  0.099389  0  1.025226  0  0  0.126285  0.094737  0  1.030093  0
H  H18  1  0.87833917  0.54253331  0.62061804  1  0  0.090044  0  0.960006  0  0  0.096821  0  1.027749  0  0  0.099358  0  1.025244  0  0  0.12628  0.094706  0  1.030113  0
H  H19  1  0.62166146  0.45746619  0.12061851  1  0  0.090035  0  0.960011  0  0  0.096814  0  1.027745  0  0  0.099352  0  1.025237  0  0  0.12628  0.094699  0  1.030108  0
H  H20  1  0.26241249  0.14836039  0.25686140  1  0  0.093934  0  0.912301  0  0  0.10374  0  0.967867  0  0  0.106857  0  0.966072  0  0  0.12576  0.101445  0  0.969299  0
H  H21  1  0.23758716  0.85163897  0.75686112  1  0  0.093884  0  0.912289  0  0  0.103687  0  0.967869  0  0  0.106806  0  0.96607  0  0  0.125743  0.101392  0  0.9693  0
H  H22  1  0.73758581  0.85163823  0.74313860  1  0  0.093866  0  0.912265  0  0  0.103669  0  0.96785  0  0  0.106786  0  0.966053  0  0  0.125735  0.101374  0  0.969281  0
H  H23  1  0.76241374  0.14836064  0.24313835  1  0  0.093883  0  0.912294  0  0  0.103681  0  0.967872  0  0  0.106806  0  0.966069  0  0  0.125743  0.101388  0  0.969304  0
H  H24  1  0.01399200  0.15682896  0.08416785  1  0  0.115771  0  0.914373  0  0  0.12251  0  0.977186  0  0  0.125803  0  0.974959  0  0  0.129502  0.120108  0  0.978776  0
H  H25  1  0.48600873  0.84317188  0.58416819  1  0  0.115757  0  0.914385  0  0  0.122514  0  0.977177  0  0  0.125806  0  0.974952  0  0  0.129516  0.120112  0  0.978768  0
H  H26  1  0.98600778  0.84317164  0.91583109  1  0  0.115761  0  0.914384  0  0  0.122501  0  0.9772  0  0  0.125814  0  0.974949  0  0  0.129517  0.1201  0  0.978786  0
H  H27  1  0.51399105  0.15682872  0.41583182  1  0  0.115787  0  0.914343  0  0  0.122535  0  0.977151  0  0  0.125828  0  0.974924  0  0  0.129513  0.120133  0  0.978741  0
H  H28  1  0.61683590  0.86328353  0.07744635  1  0  0.113269  0  0.978376  0  0  0.115422  0  1.049654  0  0  0.11992  0  1.044431  0  0  0.127228  0.111962  0  1.053763  0
H  H29  1  0.88316463  0.13671585  0.57744609  1  0  0.113272  0  0.978378  0  0  0.115436  0  1.049655  0  0  0.119924  0  1.044444  0  0  0.127224  0.111984  0  1.053757  0
H  H30  1  0.38316376  0.13671608  0.92255366  1  0  0.113285  0  0.97838  0  0  0.115446  0  1.049665  0  0  0.119934  0  1.044453  0  0  0.12723  0.111996  0  1.053765  0
H  H31  1  0.11683738  0.86328278  0.42255391  1  0  0.113242  0  0.978418  0  0  0.115384  0  1.049708  0  0  0.119888  0  1.044478  0  0  0.127213  0.111925  0  1.053815  0
C  C32  1  0.16753291  0.50392048  0.26991263  1  0  0.050012  0  3.717769  0  0  0.060445  0  3.956209  0  0  0.057047  0  3.974968  0  0  0.128028  0.062267  0  3.944113  0
C  C33  1  0.33246789  0.49607793  0.76991211  1  0  0.050048  0  3.717701  0  0  0.060391  0  3.95624  0  0  0.057085  0  3.974877  0  0  0.128028  0.062197  0  3.944164  0
C  C34  1  0.83247059  0.49608012  0.73008738  1  0  0.050083  0  3.717833  0  0  0.060446  0  3.956353  0  0  0.057119  0  3.975017  0  0  0.128022  0.062252  0  3.944277  0
C  C35  1  0.66753289  0.50392069  0.23008737  1  0  0.050035  0  3.717796  0  0  0.060436  0  3.956262  0  0  0.057068  0  3.974984  0  0  0.128041  0.062241  0  3.944185  0
C  C36  1  0.25862609  0.33672159  0.20319598  1  0  0.0892  0  3.657904  0  0  0.062729  0  3.915898  0  0  0.063955  0  3.932814  0  0  0.060715  0.061785  0  3.904909  0
C  C37  1  0.24137332  0.66327663  0.70319609  1  0  0.089172  0  3.657933  0  0  0.062693  0  3.915936  0  0  0.063918  0  3.932855  0  0  0.060738  0.061749  0  3.904942  0
C  C38  1  0.74137333  0.66327605  0.79680402  1  0  0.089215  0  3.657989  0  0  0.06275  0  3.915976  0  0  0.063976  0  3.932891  0  0  0.060746  0.061807  0  3.904981  0
C  C39  1  0.75862622  0.33672199  0.29680339  1  0  0.089256  0  3.657942  0  0  0.062788  0  3.915914  0  0  0.064014  0  3.932834  0  0  0.060734  0.061845  0  3.904921  0
C  C40  1  0.07995015  0.95505258  0.09055379  1  0  0.054009  0  3.739464  0  0  0.065538  0  3.978433  0  0  0.060691  0  3.999362  0  0  0.122106  0.068315  0  3.96461  0
C  C41  1  0.42005060  0.04494827  0.59055348  1  0  0.054054  0  3.739394  0  0  0.065578  0  3.978392  0  0  0.060732  0  3.999317  0  0  0.12212  0.068354  0  3.964567  0
C  C42  1  0.92005099  0.04494901  0.90944569  1  0  0.05403  0  3.739382  0  0  0.065566  0  3.978366  0  0  0.060719  0  3.999293  0  0  0.122121  0.06834  0  3.964545  0
C  C43  1  0.57994906  0.95505134  0.40944600  1  0  0.054043  0  3.739467  0  0  0.065625  0  3.978355  0  0  0.060781  0  3.999281  0  0  0.12213  0.068398  0  3.964537  0
C  C44  1  0.86130762  0.79326151  0.08693544  1  0  0.12509  0  3.631367  0  0  0.099753  0  3.882896  0  0  0.101564  0  3.899236  0  0  0.076813  0.098247  0  3.872121  0
C  C45  1  0.63869317  0.20673987  0.58693515  1  0  0.125057  0  3.631456  0  0  0.099728  0  3.882954  0  0  0.101538  0  3.899288  0  0  0.076816  0.098231  0  3.872173  0
C  C46  1  0.13869228  0.20674007  0.91306456  1  0  0.124973  0  3.631529  0  0  0.09966  0  3.88302  0  0  0.101468  0  3.899353  0  0  0.076789  0.098165  0  3.872236  0
C  C47  1  0.36130784  0.79326073  0.41306432  1  0  0.125055  0  3.631394  0  0  0.09975  0  3.882873  0  0  0.101557  0  3.899217  0  0  0.076826  0.098253  0  3.87209  0
C  C48  1  0.10766431  0.64049800  0.27295499  1  0  0.683091  0  3.904256  0  0  0.632403  0  4.202215  0  0  0.667228  0  4.191789  0  0  0.233351  0.608879  0  4.20831  0
C  C49  1  0.39233773  0.35950042  0.77295597  1  0  0.683195  0  3.904103  0  0  0.632556  0  4.202029  0  0  0.667353  0  4.191595  0  0  0.233371  0.609035  0  4.208128  0
C  C50  1  0.89233907  0.35950162  0.72704343  1  0  0.683159  0  3.904231  0  0  0.632519  0  4.202151  0  0  0.667322  0  4.191718  0  0  0.233388  0.608999  0  4.208248  0
C  C51  1  0.60766428  0.64049820  0.22704404  1  0  0.683147  0  3.904209  0  0  0.632492  0  4.202128  0  0  0.667308  0  4.1917  0  0  0.233373  0.608971  0  4.208227  0
C  C52  1  0.26630726  0.98805035  0.09189579  1  0  0.630705  0  3.961031  0  0  0.577086  0  4.258059  0  0  0.611619  0  4.250959  0  0  0.213762  0.553868  0  4.261892  0
C  C53  1  0.23369224  0.01195051  0.59189591  1  0  0.630687  0  3.960972  0  0  0.577072  0  4.258012  0  0  0.611603  0  4.250909  0  0  0.21377  0.553854  0  4.261844  0
C  C54  1  0.73369240  0.01194926  0.90810369  1  0  0.630684  0  3.960982  0  0  0.57708  0  4.257997  0  0  0.611611  0  4.250893  0  0  0.213773  0.553862  0  4.261827  0
C  C55  1  0.76630766  0.98805108  0.40810409  1  0  0.630684  0  3.961053  0  0  0.577078  0  4.258032  0  0  0.611611  0  4.250932  0  0  0.213775  0.553861  0  4.261866  0
C  C56  1  0.95686793  0.46227139  0.03205860  1  0  0.558392  0  3.924785  0  0  0.518376  0  4.217999  0  0  0.548264  0  4.208958  0  0  0.209602  0.498353  0  4.222711  0
C  C57  1  0.54313195  0.53774368  0.53205695  1  0  0.558191  0  3.925404  0  0  0.518212  0  4.218518  0  0  0.548108  0  4.209487  0  0  0.209532  0.498189  0  4.223229  0
C  C58  1  0.04312699  0.53774008  0.96794562  1  0  0.55827  0  3.925102  0  0  0.518263  0  4.218291  0  0  0.548161  0  4.209256  0  0  0.209559  0.498241  0  4.223003  0
C  C59  1  0.45686988  0.46227373  0.46794410  1  0  0.558418  0  3.924754  0  0  0.518422  0  4.217916  0  0  0.548315  0  4.208883  0  0  0.209656  0.4984  0  4.222625  0
C  C60  1  0.45652955  0.43243640  0.01315045  1  0  0.541268  0  3.937906  0  0  0.497154  0  4.236433  0  0  0.527138  0  4.227223  0  0  0.209091  0.476707  0  4.242019  0
C  C61  1  0.04347461  0.56756325  0.51315146  1  0  0.541218  0  3.937996  0  0  0.497166  0  4.236446  0  0  0.52713  0  4.227264  0  0  0.209091  0.476719  0  4.242033  0
C  C62  1  0.54347247  0.56756222  0.98684903  1  0  0.541271  0  3.937929  0  0  0.497212  0  4.23639  0  0  0.52719  0  4.227186  0  0  0.20912  0.476765  0  4.241974  0
C  C63  1  0.95653372  0.43243637  0.48684960  1  0  0.541417  0  3.937812  0  0  0.497325  0  4.236284  0  0  0.527308  0  4.227083  0  0  0.209166  0.476877  0  4.241868  0
C  C64  1  0.15848139  0.42096799  0.32858906  1  0  0.104574  0  3.653507  0  0  0.065591  0  3.909789  0  0  0.070369  0  3.925753  0  0  0.067738  0.062255  0  3.899847  0
C  C65  1  0.34151942  0.57902960  0.82858914  1  0  0.104397  0  3.653498  0  0  0.065444  0  3.909805  0  0  0.070194  0  3.925752  0  0  0.067691  0.062115  0  3.899866  0
C  C66  1  0.84152063  0.57903063  0.67141041  1  0  0.104508  0  3.653462  0  0  0.065532  0  3.909775  0  0  0.070287  0  3.925725  0  0  0.067734  0.062203  0  3.899839  0
C  C67  1  0.65848124  0.42096803  0.17141087  1  0  0.104559  0  3.653524  0  0  0.065577  0  3.909826  0  0  0.070347  0  3.925779  0  0  0.067733  0.062249  0  3.899888  0
C  C68  1  0.23896467  0.25204227  0.26127418  1  0  0.080244  0  3.664482  0  0  0.050799  0  3.919956  0  0  0.054072  0  3.936622  0  0  0.058315  0.04843  0  3.909134  0
C  C69  1  0.26103611  0.74795612  0.76127383  1  0  0.080297  0  3.664394  0  0  0.050865  0  3.919868  0  0  0.054125  0  3.936555  0  0  0.058319  0.048497  0  3.909043  0
C  C70  1  0.76103599  0.74795537  0.73872583  1  0  0.080332  0  3.664474  0  0  0.050895  0  3.919937  0  0  0.054154  0  3.936625  0  0  0.058337  0.048526  0  3.909111  0
C  C71  1  0.73896467  0.25204250  0.23872565  1  0  0.080301  0  3.664485  0  0  0.050877  0  3.919938  0  0  0.054133  0  3.936619  0  0  0.058334  0.048509  0  3.909114  0
C  C72  1  0.96924362  0.05206552  0.08553734  1  0  0.076164  0  3.636019  0  0  0.036372  0  3.890027  0  0  0.040684  0  3.90844  0  0  0.060201  0.033637  0  3.877634  0
C  C73  1  0.53075593  0.94793586  0.58553760  1  0  0.076208  0  3.635968  0  0  0.036394  0  3.890021  0  0  0.040705  0  3.908441  0  0  0.060185  0.03366  0  3.877628  0
C  C74  1  0.03075628  0.94793607  0.91446213  1  0  0.076213  0  3.635937  0  0  0.036375  0  3.890008  0  0  0.040668  0  3.908423  0  0  0.060179  0.03364  0  3.877616  0
C  C75  1  0.46924261  0.05206474  0.41446241  1  0  0.076164  0  3.6359  0  0  0.036333  0  3.88993  0  0  0.040645  0  3.908345  0  0  0.060176  0.033598  0  3.877539  0
C  C76  1  0.75019784  0.88940316  0.08131622  1  0  0.102573  0  3.60909  0  0  0.072094  0  3.858759  0  0  0.077491  0  3.872796  0  0  0.067414  0.068289  0  3.849949  0
C  C77  1  0.74980282  0.11059722  0.58131590  1  0  0.10255  0  3.609123  0  0  0.072051  0  3.85879  0  0  0.077456  0  3.872836  0  0  0.067411  0.068235  0  3.849972  0
C  C78  1  0.24980194  0.11059744  0.91868325  1  0  0.10253  0  3.609146  0  0  0.072014  0  3.858794  0  0  0.077418  0  3.87284  0  0  0.067379  0.068196  0  3.849976  0
C  C79  1  0.25019796  0.88940140  0.41868358  1  0  0.102593  0  3.609072  0  0  0.072111  0  3.858738  0  0  0.077506  0  3.872771  0  0  0.06742  0.068301  0  3.849928  0
N  N80  1  0.22352301  0.46282426  0.20782434  1  0  -0.332819  0  3.213602  0  0  -0.284616  0  3.466119  0  0  -0.29239  0  3.484168  0  0  -0.334403  -0.279148  0  3.454362  0
N  N81  1  0.27647640  0.53717397  0.70782383  1  0  -0.332851  0  3.213629  0  0  -0.28463  0  3.466183  0  0  -0.292424  0  3.4842  0  0  -0.334422  -0.279153  0  3.454431  0
N  N82  1  0.77647900  0.53717436  0.79217514  1  0  -0.332881  0  3.213684  0  0  -0.284675  0  3.466221  0  0  -0.292457  0  3.484244  0  0  -0.334421  -0.279193  0  3.45447  0
N  N83  1  0.72352190  0.46282465  0.29217564  1  0  -0.33284  0  3.213673  0  0  -0.28463  0  3.466188  0  0  -0.292411  0  3.484226  0  0  -0.334402  -0.279153  0  3.454433  0
N  N84  1  0.02518399  0.82564182  0.09099595  1  0  -0.338075  0  3.226798  0  0  -0.289367  0  3.480465  0  0  -0.296887  0  3.49822  0  0  -0.337077  -0.283894  0  3.468554  0
N  N85  1  0.47481800  0.17435904  0.59099523  1  0  -0.338139  0  3.226848  0  0  -0.289442  0  3.480521  0  0  -0.296952  0  3.498272  0  0  -0.337107  -0.283966  0  3.46861  0
N  N86  1  0.97481715  0.17435977  0.90900458  1  0  -0.338029  0  3.226809  0  0  -0.289349  0  3.480467  0  0  -0.296851  0  3.498214  0  0  -0.337073  -0.283869  0  3.468553  0
N  N87  1  0.52518426  0.82564156  0.40900372  1  0  -0.338115  0  3.226844  0  0  -0.289444  0  3.480492  0  0  -0.296964  0  3.498248  0  0  -0.337115  -0.28397  0  3.46858  0
N  N88  1  0.19184141  0.29480180  0.32440293  1  0  -0.253811  0  3.228652  0  0  -0.193076  0  3.520775  0  0  -0.204539  0  3.531848  0  0  -0.307639  -0.185628  0  3.513824  0
N  N89  1  0.30815951  0.70519677  0.82440309  1  0  -0.253697  0  3.228503  0  0  -0.192972  0  3.520631  0  0  -0.204437  0  3.531714  0  0  -0.307605  -0.185524  0  3.513676  0
N  N90  1  0.80815949  0.70519781  0.67559655  1  0  -0.253773  0  3.228568  0  0  -0.193033  0  3.520697  0  0  -0.204492  0  3.531771  0  0  -0.307632  -0.185583  0  3.513744  0
N  N91  1  0.69184127  0.29480185  0.17559692  1  0  -0.253819  0  3.228653  0  0  -0.193094  0  3.520782  0  0  -0.204552  0  3.531854  0  0  -0.307642  -0.185644  0  3.513829  0
N  N92  1  0.80434838  0.01869821  0.08031233  1  0  -0.264605  0  3.27153  0  0  -0.192805  0  3.562555  0  0  -0.207874  0  3.576728  0  0  -0.31346  -0.182849  0  3.552955  0
N  N93  1  0.69565227  0.98130216  0.58031214  1  0  -0.264597  0  3.271518  0  0  -0.192789  0  3.56256  0  0  -0.207862  0  3.576737  0  0  -0.313458  -0.182833  0  3.552962  0
N  N94  1  0.19565140  0.98130238  0.91968715  1  0  -0.264608  0  3.271506  0  0  -0.192747  0  3.562499  0  0  -0.207821  0  3.576685  0  0  -0.313445  -0.182791  0  3.552901  0
N  N95  1  0.30434739  0.01869745  0.41968786  1  0  -0.2646  0  3.271404  0  0  -0.192803  0  3.562438  0  0  -0.207876  0  3.576616  0  0  -0.313451  -0.182848  0  3.552841  0
O  O96  1  0.14433806  0.71651034  0.22131354  1  0  -0.677608  0  1.968102  0  0  -0.629624  0  2.203639  0  0  -0.652168  0  2.192071  0  0  -0.37486  -0.61353  0  2.210919  0
O  O97  1  0.35566250  0.28348694  0.72131233  1  0  -0.677678  0  1.967947  0  0  -0.629708  0  2.203456  0  0  -0.652247  0  2.191902  0  0  -0.374897  -0.613606  0  2.210742  0
O  O98  1  0.85566160  0.28348927  0.77868699  1  0  -0.677689  0  1.967946  0  0  -0.629733  0  2.203461  0  0  -0.652264  0  2.191905  0  0  -0.374912  -0.613628  0  2.210749  0
O  O99  1  0.64433939  0.71651070  0.27868715  1  0  -0.677614  0  1.968021  0  0  -0.629637  0  2.203541  0  0  -0.652181  0  2.191976  0  0  -0.374851  -0.61354  0  2.210825  0
O  O100  1  0.35363104  0.89020919  0.08944799  1  0  -0.713151  0  2.059008  0  0  -0.658028  0  2.326391  0  0  -0.681593  0  2.310157  0  0  -0.384632  -0.641144  0  2.336854  0
O  O101  1  0.14636859  0.10979265  0.58944605  1  0  -0.713171  0  2.059007  0  0  -0.658061  0  2.326388  0  0  -0.681615  0  2.310151  0  0  -0.384684  -0.641171  0  2.336858  0
O  O102  1  0.64636886  0.10979240  0.91055254  1  0  -0.713169  0  2.058993  0  0  -0.658072  0  2.32637  0  0  -0.681617  0  2.310134  0  0  -0.384676  -0.641179  0  2.336841  0
O  O103  1  0.85363132  0.89020894  0.41055290  1  0  -0.713134  0  2.059042  0  0  -0.658023  0  2.326414  0  0  -0.681587  0  2.310179  0  0  -0.384658  -0.641137  0  2.336879  0
O  O104  1  0.99394164  0.50710211  0.09298099  1  0  -0.658435  0  2.040839  0  0  -0.612822  0  2.285584  0  0  -0.635837  0  2.278833  0  0  -0.377846  -0.596274  0  2.289538  0
O  O105  1  0.50605039  0.49289830  0.59298984  1  0  -0.65848  0  2.040404  0  0  -0.61294  0  2.285217  0  0  -0.635962  0  2.27847  0  0  -0.377883  -0.596381  0  2.28917  0
O  O106  1  0.00604824  0.49289849  0.90701321  1  0  -0.658527  0  2.040384  0  0  -0.612928  0  2.285101  0  0  -0.635939  0  2.278351  0  0  -0.377852  -0.596366  0  2.289056  0
O  O107  1  0.49394345  0.50710427  0.40702176  1  0  -0.658395  0  2.040772  0  0  -0.612802  0  2.285524  0  0  -0.63582  0  2.278772  0  0  -0.377916  -0.596252  0  2.289478  0
O  O108  1  0.34153606  0.43690278  0.05797568  1  0  -0.647759  0  2.077076  0  0  -0.599576  0  2.33022  0  0  -0.622393  0  2.321806  0  0  -0.362466  -0.583435  0  2.335546  0
O  O109  1  0.15846992  0.56310096  0.55797673  1  0  -0.647745  0  2.077266  0  0  -0.59956  0  2.330306  0  0  -0.622361  0  2.321901  0  0  -0.362466  -0.583415  0  2.335634  0
O  O110  1  0.65846644  0.56309980  0.94202379  1  0  -0.647708  0  2.077175  0  0  -0.599564  0  2.330292  0  0  -0.622361  0  2.32188  0  0  -0.362455  -0.583414  0  2.335622  0
O  O111  1  0.84153753  0.43690163  0.44202432  1  0  -0.647801  0  2.077085  0  0  -0.599633  0  2.33021  0  0  -0.622449  0  2.321798  0  0  -0.362469  -0.583489  0  2.335534  0
O  O112  1  0.50985427  0.32887185  0.98782403  1  0  -0.649493  0  2.124068  0  0  -0.584877  0  2.389782  0  0  -0.609087  0  2.378402  0  0  -0.356089  -0.567857  0  2.39696  0
O  O113  1  0.99014709  0.67112774  0.48782585  1  0  -0.649537  0  2.12402  0  0  -0.584924  0  2.389686  0  0  -0.60914  0  2.378311  0  0  -0.35612  -0.567904  0  2.396843  0
O  O114  1  0.49014540  0.67112776  0.01217386  1  0  -0.649551  0  2.123975  0  0  -0.584928  0  2.389653  0  0  -0.609153  0  2.378272  0  0  -0.356128  -0.567924  0  2.396842  0
O  O115  1  0.00986000  0.32887188  0.51217468  1  0  -0.64959  0  2.124051  0  0  -0.584952  0  2.389716  0  0  -0.609166  0  2.378332  0  0  -0.356138  -0.567938  0  2.396897  0
O  O116  1  0.85542771  0.36287287  0.01780674  1  0  -0.675379  0  2.092699  0  0  -0.626218  0  2.354088  0  0  -0.65017  0  2.34522  0  0  -0.371761  -0.609237  0  2.359193  0
O  O117  1  0.64455982  0.63712237  0.51781154  1  0  -0.675125  0  2.093565  0  0  -0.625959  0  2.354951  0  0  -0.64987  0  2.345958  0  0  -0.371578  -0.60899  0  2.360049  0
O  O118  1  0.14455402  0.63712179  0.98219168  1  0  -0.675189  0  2.093479  0  0  -0.626036  0  2.354915  0  0  -0.649945  0  2.345912  0  0  -0.371653  -0.609066  0  2.360012  0
O  O119  1  0.35543217  0.36287525  0.48219532  1  0  -0.675391  0  2.092664  0  0  -0.626262  0  2.354099  0  0  -0.650193  0  2.345162  0  0  -0.371729  -0.609282  0  2.359198  0
O  O120  1  0.02279795  0.66615689  0.32657673  1  0  -0.720665  0  2.027118  0  0  -0.668153  0  2.288595  0  0  -0.69407  0  2.278262  0  0  -0.384711  -0.649467  0  2.295096  0
O  O121  1  0.47720062  0.33384267  0.82657561  1  0  -0.720682  0  2.027187  0  0  -0.668201  0  2.288654  0  0  -0.694106  0  2.278341  0  0  -0.384705  -0.649507  0  2.295164  0
O  O122  1  0.97720171  0.33384272  0.67342327  1  0  -0.720665  0  2.027285  0  0  -0.668178  0  2.28874  0  0  -0.694089  0  2.27842  0  0  -0.384702  -0.649486  0  2.295245  0
O  O123  1  0.52279892  0.66615595  0.17342387  1  0  -0.720694  0  2.027166  0  0  -0.668198  0  2.288652  0  0  -0.694118  0  2.278323  0  0  -0.384732  -0.649514  0  2.295151  0
O  O124  1  0.32009889  0.10873247  0.09345509  1  0  -0.588237  0  2.051414  0  0  -0.525257  0  2.31708  0  0  -0.553746  0  2.305632  0  0  -0.30781  -0.505265  0  2.324213  0
O  O125  1  0.17990198  0.89126939  0.59345588  1  0  -0.588214  0  2.051362  0  0  -0.525234  0  2.31703  0  0  -0.553723  0  2.305585  0  0  -0.307783  -0.505243  0  2.324164  0
O  O126  1  0.67990225  0.89126912  0.90654386  1  0  -0.588206  0  2.051409  0  0  -0.525223  0  2.317057  0  0  -0.553713  0  2.305616  0  0  -0.307779  -0.505231  0  2.324191  0
O  O127  1  0.82009668  0.10873220  0.40654465  1  0  -0.58824  0  2.05144  0  0  -0.525266  0  2.317091  0  0  -0.553755  0  2.305645  0  0  -0.307791  -0.505273  0  2.324224  0
