# generated using pymatgen
data_LiH9(C3O2)2
_symmetry_space_group_name_H-M   'P 1'
_cell_length_a   7.44793372
_cell_length_b   8.14726103
_cell_length_c   11.49450577
_cell_angle_alpha   93.63703295
_cell_angle_beta   90.00015133
_cell_angle_gamma   89.99972436
_symmetry_Int_Tables_number   1
_chemical_formula_structural   LiH9(C3O2)2
_chemical_formula_sum   'Li4 H36 C24 O16'
_cell_volume   696.08481107
_cell_formula_units_Z   4
loop_
 _symmetry_equiv_pos_site_id
 _symmetry_equiv_pos_as_xyz
  1  'x, y, z'
loop_
 _atom_site_type_symbol
 _atom_site_label
 _atom_site_symmetry_multiplicity
 _atom_site_fract_x
 _atom_site_fract_y
 _atom_site_fract_z
 _atom_site_occupancy
 _atom_site_hle17_bader_spin_density
 _atom_site_hle17_ddec_charge
 _atom_site_hle17_ddec_spin_density
 _atom_site_hle17_ddec_sum_bond_order
 _atom_site_hle17_magmom
 _atom_site_hse06_10hf_bader_spin_density
 _atom_site_hse06_10hf_ddec_charge
 _atom_site_hse06_10hf_ddec_spin_density
 _atom_site_hse06_10hf_ddec_sum_bond_order
 _atom_site_hse06_10hf_magmom
 _atom_site_hse06_bader_spin_density
 _atom_site_hse06_ddec_charge
 _atom_site_hse06_ddec_spin_density
 _atom_site_hse06_ddec_sum_bond_order
 _atom_site_hse06_magmom
 _atom_site_pbe_bader_spin_density
 _atom_site_pbe_cm5_charge
 _atom_site_pbe_ddec_charge
 _atom_site_pbe_ddec_spin_density
 _atom_site_pbe_ddec_sum_bond_order
 _atom_site_pbe_magmom
Li  Li0  1  0.01548513  0.05373538  0.88808220  1  0  0.849498  0  0.409192  0  0  0.81036  0  0.512767  0  0  0.820141  0  0.496  0  0  0.515096  0.80333  0  0.524755  0
Li  Li1  1  0.51548128  0.94626778  0.61191700  1  0  0.849501  0  0.409213  0  0  0.810354  0  0.512796  0  0  0.820134  0  0.49603  0  0  0.515089  0.803322  0  0.524784  0
Li  Li2  1  0.98451506  0.94626248  0.11191735  1  0  0.849503  0  0.409196  0  0  0.810368  0  0.512756  0  0  0.820148  0  0.495989  0  0  0.515086  0.803337  0  0.524741  0
Li  Li3  1  0.48451757  0.05373255  0.38808351  1  0  0.84952  0  0.409174  0  0  0.810377  0  0.512747  0  0  0.820156  0  0.495982  0  0  0.515094  0.803345  0  0.524733  0
H  H4  1  0.79774459  0.76107863  0.93040371  1  0  0.107209  0  0.938106  0  0  0.120371  0  1.00414  0  0  0.123213  0  1.002494  0  0  0.11582  0.118357  0  1.005399  0
H  H5  1  0.29774349  0.23892461  0.56959772  1  0  0.107203  0  0.938054  0  0  0.120374  0  1.004094  0  0  0.12322  0  1.002445  0  0  0.115823  0.11836  0  1.00535  0
H  H6  1  0.20225560  0.23892169  0.06959593  1  0  0.1072  0  0.93811  0  0  0.120372  0  1.00413  0  0  0.123205  0  1.002495  0  0  0.115815  0.118359  0  1.00539  0
H  H7  1  0.70225536  0.76107450  0.43040275  1  0  0.107166  0  0.938062  0  0  0.120337  0  1.004106  0  0  0.123183  0  1.002458  0  0  0.115815  0.118323  0  1.005363  0
H  H8  1  0.96268839  0.66836912  0.83997928  1  0  0.100133  0  0.933448  0  0  0.117843  0  0.992146  0  0  0.119307  0  0.992519  0  0  0.107164  0.11681  0  0.991952  0
H  H9  1  0.46268850  0.33162849  0.66002223  1  0  0.100163  0  0.933421  0  0  0.117867  0  0.992128  0  0  0.119332  0  0.9925  0  0  0.107177  0.116833  0  0.991935  0
H  H10  1  0.03731180  0.33163119  0.16002036  1  0  0.100141  0  0.933431  0  0  0.117851  0  0.992123  0  0  0.119316  0  0.992494  0  0  0.10717  0.116819  0  0.991929  0
H  H11  1  0.53731169  0.66836940  0.33997906  1  0  0.100182  0  0.933378  0  0  0.117851  0  0.992134  0  0  0.119315  0  0.992508  0  0  0.107171  0.116816  0  0.99194  0
H  H12  1  0.56383037  0.57079084  0.83920771  1  0  0.066287  0  0.938228  0  0  0.084968  0  0.999133  0  0  0.085514  0  1.00016  0  0  0.090372  0.084495  0  0.998513  0
H  H13  1  0.06383400  0.42922074  0.66079275  1  0  0.066344  0  0.938247  0  0  0.085006  0  0.999159  0  0  0.08556  0  1.000178  0  0  0.090397  0.084526  0  0.998554  0
H  H14  1  0.43616982  0.42920948  0.16079193  1  0  0.066305  0  0.938257  0  0  0.084987  0  0.999139  0  0  0.085532  0  1.000172  0  0  0.090375  0.084513  0  0.998519  0
H  H15  1  0.93616888  0.57078207  0.33920872  1  0  0.066323  0  0.938222  0  0  0.084977  0  0.999164  0  0  0.085526  0  1.000179  0  0  0.090384  0.084499  0  0.998554  0
H  H16  1  0.72877687  0.47459576  0.74877579  1  0  0.05772  0  0.936095  0  0  0.077269  0  0.996982  0  0  0.078024  0  0.997012  0  0  0.088229  0.076629  0  0.997101  0
H  H17  1  0.22878034  0.52541022  0.75122563  1  0  0.057788  0  0.936035  0  0  0.077328  0  0.996914  0  0  0.078088  0  0.996942  0  0  0.088267  0.076689  0  0.997031  0
H  H18  1  0.27122332  0.52540459  0.25122559  1  0  0.057842  0  0.936033  0  0  0.077369  0  0.996906  0  0  0.078126  0  0.996934  0  0  0.088292  0.076729  0  0.997024  0
H  H19  1  0.77122388  0.47459134  0.24877493  1  0  0.057814  0  0.936033  0  0  0.07736  0  0.996911  0  0  0.078116  0  0.996939  0  0  0.088283  0.076718  0  0.997031  0
H  H20  1  0.74409100  0.49342069  0.01655113  1  0  0.062956  0  0.937959  0  0  0.081928  0  1.000307  0  0  0.082667  0  1.000755  0  0  0.089907  0.081293  0  1.000135  0
H  H21  1  0.24409417  0.50658150  0.48344957  1  0  0.062931  0  0.938041  0  0  0.081927  0  1.000366  0  0  0.082668  0  1.000809  0  0  0.089899  0.081293  0  1.000193  0
H  H22  1  0.25590784  0.50657961  0.98344764  1  0  0.06293  0  0.937955  0  0  0.081914  0  1.000309  0  0  0.082655  0  1.000755  0  0  0.089908  0.08128  0  1.000137  0
H  H23  1  0.75590736  0.49342008  0.51655185  1  0  0.062956  0  0.937924  0  0  0.081934  0  1.000275  0  0  0.082674  0  1.000721  0  0  0.089914  0.0813  0  1.000101  0
H  H24  1  0.89875478  0.38967884  0.92163373  1  0  0.074883  0  0.941462  0  0  0.09354  0  1.002567  0  0  0.0949  0  1.002663  0  0  0.101395  0.092469  0  1.002659  0
H  H25  1  0.39875443  0.61032397  0.57836786  1  0  0.074884  0  0.941506  0  0  0.093546  0  1.002603  0  0  0.094906  0  1.0027  0  0  0.101413  0.092474  0  1.002696  0
H  H26  1  0.10124675  0.61032276  0.07836857  1  0  0.07485  0  0.941464  0  0  0.093519  0  1.00257  0  0  0.094878  0  1.002668  0  0  0.101399  0.092448  0  1.002662  0
H  H27  1  0.60124442  0.38967882  0.42163274  1  0  0.074863  0  0.941498  0  0  0.093521  0  1.00261  0  0  0.09488  0  1.002709  0  0  0.101407  0.092448  0  1.002704  0
H  H28  1  0.49678047  0.30203855  0.93837217  1  0  0.110782  0  0.933145  0  0  0.1262  0  0.989581  0  0  0.127739  0  0.990255  0  0  0.104458  0.125034  0  0.98927  0
H  H29  1  0.99678043  0.69796381  0.56162782  1  0  0.110778  0  0.933139  0  0  0.126214  0  0.989589  0  0  0.127753  0  0.990263  0  0  0.104459  0.125045  0  0.989274  0
H  H30  1  0.50321972  0.69795936  0.06162999  1  0  0.110752  0  0.933102  0  0  0.126186  0  0.98955  0  0  0.127728  0  0.990219  0  0  0.104447  0.125021  0  0.989239  0
H  H31  1  0.00321976  0.30203406  0.43837260  1  0  0.110778  0  0.933138  0  0  0.126219  0  0.989576  0  0  0.127759  0  0.990249  0  0  0.104454  0.12505  0  0.98926  0
H  H32  1  0.65566354  0.20123258  0.84295982  1  0  0.116654  0  0.930291  0  0  0.130236  0  0.989651  0  0  0.132983  0  0.988682  0  0  0.115231  0.128238  0  0.990465  0
H  H33  1  0.15566250  0.79876994  0.65703699  1  0  0.116679  0  0.930274  0  0  0.130277  0  0.989648  0  0  0.133024  0  0.988679  0  0  0.11525  0.128277  0  0.990462  0
H  H34  1  0.34433665  0.79876523  0.15703712  1  0  0.116666  0  0.930282  0  0  0.130268  0  0.989625  0  0  0.133012  0  0.988664  0  0  0.115258  0.128267  0  0.990444  0
H  H35  1  0.84433769  0.20123164  0.34296443  1  0  0.116693  0  0.930286  0  0  0.130295  0  0.989647  0  0  0.133039  0  0.988683  0  0  0.11526  0.128293  0  0.990464  0
H  H36  1  0.61905646  0.05216341  0.16652638  1  0  0.40307  0  0.894073  0  0  0.36805  0  0.977411  0  0  0.382415  0  0.96211  0  0  0.306057  0.358  0  0.98758  0
H  H37  1  0.11905130  0.94783555  0.33346965  1  0  0.403052  0  0.893989  0  0  0.368072  0  0.977268  0  0  0.382428  0  0.962064  0  0  0.306061  0.358035  0  0.987406  0
H  H38  1  0.38094642  0.94783322  0.83347313  1  0  0.402991  0  0.894069  0  0  0.367957  0  0.977444  0  0  0.382326  0  0.962215  0  0  0.306009  0.357908  0  0.987611  0
H  H39  1  0.88094755  0.05216479  0.66653086  1  0  0.403066  0  0.894062  0  0  0.368083  0  0.977342  0  0  0.382439  0  0.96207  0  0  0.30607  0.358046  0  0.98748  0
C  C40  1  0.77830513  0.81783981  0.75315898  1  0  0.748281  0  3.803565  0  0  0.700171  0  4.111656  0  0  0.733171  0  4.101669  0  0  0.23335  0.677732  0  4.117892  0
C  C41  1  0.27830236  0.18216598  0.74684338  1  0  0.748432  0  3.803508  0  0  0.700326  0  4.111593  0  0  0.733326  0  4.101605  0  0  0.233385  0.67789  0  4.117825  0
C  C42  1  0.22169506  0.18215926  0.24683974  1  0  0.748324  0  3.803544  0  0  0.700181  0  4.111679  0  0  0.733182  0  4.101689  0  0  0.233361  0.677738  0  4.117922  0
C  C43  1  0.72169380  0.81783434  0.25315626  1  0  0.748371  0  3.803609  0  0  0.70029  0  4.11166  0  0  0.733292  0  4.101671  0  0  0.233384  0.677852  0  4.117891  0
C  C44  1  0.81793542  0.69639730  0.84431188  1  0  -0.279281  0  3.686586  0  0  -0.319746  0  3.94059  0  0  -0.325816  0  3.949427  0  0  -0.155495  -0.315569  0  3.934504  0
C  C45  1  0.31793567  0.30360460  0.65568867  1  0  -0.279364  0  3.686537  0  0  -0.319818  0  3.940551  0  0  -0.325889  0  3.949397  0  0  -0.155538  -0.315637  0  3.934457  0
C  C46  1  0.18206477  0.30360179  0.15568772  1  0  -0.279272  0  3.686559  0  0  -0.31972  0  3.940514  0  0  -0.325782  0  3.949354  0  0  -0.155514  -0.315544  0  3.934433  0
C  C47  1  0.68206318  0.69639449  0.34431092  1  0  -0.279244  0  3.686478  0  0  -0.319688  0  3.940492  0  0  -0.325765  0  3.949337  0  0  -0.155494  -0.315506  0  3.934396  0
C  C48  1  0.70733871  0.53895480  0.83478203  1  0  -0.072932  0  3.695028  0  0  -0.115086  0  3.958136  0  0  -0.115118  0  3.972407  0  0  -0.163496  -0.114852  0  3.948175  0
C  C49  1  0.20734084  0.46104883  0.66522013  1  0  -0.073069  0  3.695185  0  0  -0.115189  0  3.958286  0  0  -0.11524  0  3.972593  0  0  -0.163531  -0.114955  0  3.94832  0
C  C50  1  0.29266014  0.46104675  0.16521765  1  0  -0.073186  0  3.695121  0  0  -0.115288  0  3.958187  0  0  -0.115321  0  3.972453  0  0  -0.163577  -0.11505  0  3.94822  0
C  C51  1  0.79265935  0.53895152  0.33478125  1  0  -0.073128  0  3.695119  0  0  -0.115262  0  3.958259  0  0  -0.115291  0  3.97253  0  0  -0.163577  -0.115029  0  3.948292  0
C  C52  1  0.75679721  0.42574997  0.93077743  1  0  -0.08612  0  3.668555  0  0  -0.128637  0  3.930059  0  0  -0.129519  0  3.944247  0  0  -0.157494  -0.127795  0  3.920121  0
C  C53  1  0.25679836  0.57424852  0.56922376  1  0  -0.086082  0  3.668729  0  0  -0.128603  0  3.930268  0  0  -0.129481  0  3.944462  0  0  -0.157547  -0.127763  0  3.920328  0
C  C54  1  0.24320298  0.57424911  0.06922129  1  0  -0.085982  0  3.668408  0  0  -0.128551  0  3.929988  0  0  -0.12943  0  3.944177  0  0  -0.157495  -0.12771  0  3.920052  0
C  C55  1  0.74320183  0.42575060  0.43077758  1  0  -0.086049  0  3.668495  0  0  -0.12856  0  3.930053  0  0  -0.12944  0  3.94424  0  0  -0.157514  -0.127719  0  3.920112  0
C  C56  1  0.63925092  0.27058553  0.92767421  1  0  -0.286872  0  3.663615  0  0  -0.325621  0  3.91421  0  0  -0.332033  0  3.922199  0  0  -0.157345  -0.321155  0  3.908611  0
C  C57  1  0.13925260  0.72941341  0.57232418  1  0  -0.286886  0  3.663603  0  0  -0.325763  0  3.914269  0  0  -0.332167  0  3.922264  0  0  -0.157334  -0.321288  0  3.908657  0
C  C58  1  0.36074927  0.72941478  0.07232455  1  0  -0.28684  0  3.663426  0  0  -0.325635  0  3.914099  0  0  -0.332054  0  3.922094  0  0  -0.157335  -0.321171  0  3.908504  0
C  C59  1  0.86074759  0.27058570  0.42767628  1  0  -0.286924  0  3.663624  0  0  -0.325792  0  3.91429  0  0  -0.332197  0  3.92229  0  0  -0.157356  -0.321314  0  3.908672  0
C  C60  1  0.69480978  0.15840448  0.02020229  1  0  0.766197  0  3.726413  0  0  0.718416  0  4.028201  0  0  0.752582  0  4.01622  0  0  0.260433  0.695201  0  4.035788  0
C  C61  1  0.19481383  0.84159048  0.47979459  1  0  0.766199  0  3.726301  0  0  0.718611  0  4.027859  0  0  0.752753  0  4.015915  0  0  0.26043  0.695396  0  4.035442  0
C  C62  1  0.30518773  0.84159217  0.97979809  1  0  0.766179  0  3.726279  0  0  0.718411  0  4.028076  0  0  0.752582  0  4.01609  0  0  0.260354  0.695197  0  4.035662  0
C  C63  1  0.80518502  0.15840860  0.52020500  1  0  0.766163  0  3.726329  0  0  0.718563  0  4.027914  0  0  0.752698  0  4.01598  0  0  0.260422  0.695348  0  4.035497  0
O  O64  1  0.86660713  0.95579452  0.76375416  1  0  -0.7423  0  2.022653  0  0  -0.689972  0  2.267653  0  0  -0.714777  0  2.254266  0  0  -0.388203  -0.672665  0  2.276295  0
O  O65  1  0.36660908  0.04421093  0.73625008  1  0  -0.742355  0  2.022709  0  0  -0.689998  0  2.267725  0  0  -0.71481  0  2.254346  0  0  -0.388195  -0.672685  0  2.276378  0
O  O66  1  0.13339037  0.04420582  0.23624635  1  0  -0.742353  0  2.022663  0  0  -0.690018  0  2.267674  0  0  -0.71482  0  2.254306  0  0  -0.388234  -0.672709  0  2.276316  0
O  O67  1  0.63338977  0.95578939  0.26374956  1  0  -0.742347  0  2.022723  0  0  -0.690004  0  2.267718  0  0  -0.714813  0  2.254319  0  0  -0.38819  -0.672691  0  2.27637  0
O  O68  1  0.66747164  0.78433188  0.67287057  1  0  -0.696659  0  1.907312  0  0  -0.652343  0  2.143348  0  0  -0.672863  0  2.130566  0  0  -0.389745  -0.638187  0  2.151892  0
O  O69  1  0.16747035  0.21567433  0.82712901  1  0  -0.69671  0  1.907301  0  0  -0.652421  0  2.143367  0  0  -0.672941  0  2.130585  0  0  -0.389767  -0.638269  0  2.151915  0
O  O70  1  0.33252587  0.21566965  0.32712825  1  0  -0.696636  0  1.907318  0  0  -0.652317  0  2.14338  0  0  -0.672838  0  2.130598  0  0  -0.389719  -0.63816  0  2.151927  0
O  O71  1  0.83252312  0.78431737  0.17286945  1  0  -0.696708  0  1.9073  0  0  -0.652414  0  2.143351  0  0  -0.672933  0  2.130562  0  0  -0.389762  -0.638258  0  2.151892  0
O  O72  1  0.57591931  0.13325305  0.10030369  1  0  -0.550914  0  2.081487  0  0  -0.488911  0  2.295268  0  0  -0.51377  0  2.282361  0  0  -0.296768  -0.471794  0  2.303363  0
O  O73  1  0.07592022  0.86674739  0.39969666  1  0  -0.550863  0  2.0814  0  0  -0.488959  0  2.295111  0  0  -0.51381  0  2.28228  0  0  -0.296755  -0.471849  0  2.303189  0
O  O74  1  0.42408088  0.86674608  0.89969851  1  0  -0.550843  0  2.081412  0  0  -0.488816  0  2.295175  0  0  -0.513682  0  2.282324  0  0  -0.296677  -0.471699  0  2.303268  0
O  O75  1  0.92407862  0.13325295  0.60030385  1  0  -0.550846  0  2.081449  0  0  -0.488932  0  2.295148  0  0  -0.513782  0  2.282273  0  0  -0.296751  -0.471822  0  2.303227  0
O  O76  1  0.84951056  0.09723298  0.01977963  1  0  -0.748608  0  2.001317  0  0  -0.709066  0  2.254956  0  0  -0.728784  0  2.239526  0  0  -0.418978  -0.695605  0  2.265424  0
O  O77  1  0.34950892  0.90277614  0.48022063  1  0  -0.748622  0  2.001168  0  0  -0.709147  0  2.25475  0  0  -0.728858  0  2.239334  0  0  -0.418979  -0.695686  0  2.265217  0
O  O78  1  0.15049097  0.90277228  0.98022106  1  0  -0.748581  0  2.0012  0  0  -0.709044  0  2.254838  0  0  -0.728762  0  2.239405  0  0  -0.41894  -0.695583  0  2.265304  0
O  O79  1  0.65048858  0.09722789  0.51978001  1  0  -0.748626  0  2.001224  0  0  -0.709124  0  2.254757  0  0  -0.728828  0  2.239344  0  0  -0.41899  -0.695663  0  2.265224  0
