# generated using pymatgen
data_Tb2H18C14S(NO9)2
_symmetry_space_group_name_H-M   'P 1'
_cell_length_a   6.54443762
_cell_length_b   13.73911059
_cell_length_c   14.79470000
_cell_angle_alpha   116.96051518
_cell_angle_beta   92.24268918
_cell_angle_gamma   89.93555015
_symmetry_Int_Tables_number   1
_chemical_formula_structural   Tb2H18C14S(NO9)2
_chemical_formula_sum   'Tb4 H36 C28 S2 N4 O36'
_cell_volume   1184.57342007
_cell_formula_units_Z   2
loop_
 _symmetry_equiv_pos_site_id
 _symmetry_equiv_pos_as_xyz
  1  'x, y, z'
loop_
 _atom_site_type_symbol
 _atom_site_label
 _atom_site_symmetry_multiplicity
 _atom_site_fract_x
 _atom_site_fract_y
 _atom_site_fract_z
 _atom_site_occupancy
 _atom_site_hle17_bader_spin_density
 _atom_site_hle17_ddec_charge
 _atom_site_hle17_ddec_spin_density
 _atom_site_hle17_ddec_sum_bond_order
 _atom_site_hle17_magmom
 _atom_site_hse06_10hf_bader_spin_density
 _atom_site_hse06_10hf_ddec_charge
 _atom_site_hse06_10hf_ddec_spin_density
 _atom_site_hse06_10hf_ddec_sum_bond_order
 _atom_site_hse06_10hf_magmom
 _atom_site_hse06_bader_spin_density
 _atom_site_hse06_ddec_charge
 _atom_site_hse06_ddec_spin_density
 _atom_site_hse06_ddec_sum_bond_order
 _atom_site_hse06_magmom
 _atom_site_pbe_bader_charge
 _atom_site_pbe_bader_spin_density
 _atom_site_pbe_cm5_charge
 _atom_site_pbe_ddec_charge
 _atom_site_pbe_ddec_spin_density
 _atom_site_pbe_ddec_sum_bond_order
 _atom_site_pbe_magmom
Tb  Tb0  1  0.00386301  0.89892427  0.19731713  1  0  2.262069  0  1.589723  0  0  2.121992  0  2.050722  0  0  2.237058  0  1.87745  0  2.184685  0  1.518043  2.089719  0  2.080171  0
Tb  Tb1  1  0.49618801  0.69825619  0.80273292  1  0  2.264284  0  1.586515  0  0  2.125056  0  2.04523  0  0  2.238979  0  1.873899  0  2.186513  0  1.517923  2.092602  0  2.074862  0
Tb  Tb2  1  0.99614027  0.10108054  0.80268542  1  0  2.262084  0  1.589689  0  0  2.121981  0  2.050727  0  0  2.237079  0  1.877413  0  2.18466  0  1.518064  2.089711  0  2.080176  0
Tb  Tb3  1  0.50381651  0.30174044  0.19726351  1  0  2.264253  0  1.58659  0  0  2.125028  0  2.045292  0  0  2.238946  0  1.873975  0  2.186482  0  1.517888  2.092569  0  2.074932  0
H  H4  1  0.08780276  0.57520290  0.26187406  1  0  0.111058  0  0.89908  0  0  0.120967  0  0.955063  0  0  0.124822  0  0.950888  0  0.162162  0  0.134732  0.118235  0  0.95784  0
H  H5  1  0.41204267  0.31304086  0.74026992  1  0  0.111808  0  0.897878  0  0  0.121685  0  0.954079  0  0  0.125568  0  0.94981  0  0.119395  0  0.135575  0.118923  0  0.956937  0
H  H6  1  0.91219437  0.42480108  0.73813074  1  0  0.111042  0  0.89914  0  0  0.120958  0  0.955108  0  0  0.124814  0  0.950933  0  0.162203  0  0.134757  0.118227  0  0.957883  0
H  H7  1  0.58795876  0.68695496  0.25972814  1  0  0.111821  0  0.897902  0  0  0.121739  0  0.954074  0  0  0.125624  0  0.949802  0  0.119304  0  0.135603  0.118977  0  0.956931  0
H  H8  1  0.06820707  0.89232909  0.52033397  1  0  0.126623  0  0.919012  0  0  0.136619  0  0.978673  0  0  0.141018  0  0.973953  0  0.147876  0  0.123003  0.133491  0  0.981824  0
H  H9  1  0.43290877  0.37244479  0.47874318  1  0  0.126898  0  0.919502  0  0  0.13634  0  0.980048  0  0  0.140717  0  0.97534  0  0.135748  0  0.123189  0.133227  0  0.983198  0
H  H10  1  0.93179768  0.10767408  0.47966860  1  0  0.126632  0  0.919011  0  0  0.136656  0  0.978634  0  0  0.141057  0  0.973911  0  0.147899  0  0.123022  0.133527  0  0.981788  0
H  H11  1  0.56708357  0.62755348  0.52125576  1  0  0.126874  0  0.919534  0  0  0.136418  0  0.979946  0  0  0.140794  0  0.975239  0  0.135704  0  0.123223  0.133304  0  0.983098  0
H  H12  1  0.11375799  0.59556504  0.55128599  1  0  0.098919  0  0.93355  0  0  0.104953  0  1.001781  0  0  0.108956  0  0.997039  0  0.139449  0  0.123871  0.10208  0  1.00505  0
H  H13  1  0.38596878  0.04759306  0.45271164  1  0  0.099777  0  0.929206  0  0  0.1056  0  0.997345  0  0  0.109579  0  0.992657  0  0.147656  0  0.124366  0.102781  0  1.000477  0
H  H14  1  0.88623302  0.40443894  0.44871736  1  0  0.098946  0  0.933525  0  0  0.104972  0  1.00175  0  0  0.108975  0  0.997009  0  0.13952  0  0.123882  0.102099  0  1.00502  0
H  H15  1  0.61401586  0.95240357  0.54728513  1  0  0.099835  0  0.929187  0  0  0.105621  0  0.997346  0  0  0.109591  0  0.992681  0  0.147704  0  0.124392  0.102799  0  1.000506  0
H  H16  1  0.37694404  0.78024789  0.08188539  1  0  0.455269  0  0.821723  0  0  0.432107  0  0.869498  0  0  0.442219  0  0.854921  0  0.646806  0  0.318988  0.425336  0  0.879352  0
H  H17  1  0.12196062  0.69750398  0.91924391  1  0  0.4555  0  0.821904  0  0  0.432488  0  0.869391  0  0  0.442606  0  0.854808  0  0.636872  0  0.318899  0.425705  0  0.879258  0
H  H18  1  0.62305906  0.21975202  0.91811375  1  0  0.455182  0  0.821792  0  0  0.432027  0  0.869563  0  0  0.44214  0  0.854985  0  0.646571  0  0.31896  0.425255  0  0.879419  0
H  H19  1  0.87804548  0.30249429  0.08075324  1  0  0.455493  0  0.821921  0  0  0.432487  0  0.869397  0  0  0.442606  0  0.854814  0  0.63683  0  0.318893  0.425705  0  0.879262  0
H  H20  1  0.45273731  0.83550279  0.19496525  1  0  0.436201  0  0.860932  0  0  0.408651  0  0.919057  0  0  0.419951  0  0.902653  0  0.632916  0  0.303027  0.400932  0  0.930387  0
H  H21  1  0.04870417  0.63673118  0.80586048  1  0  0.436546  0  0.859566  0  0  0.409413  0  0.916717  0  0  0.420689  0  0.900363  0  0.644908  0  0.303835  0.401708  0  0.928026  0
H  H22  1  0.54726729  0.16449630  0.80503424  1  0  0.436204  0  0.860937  0  0  0.408662  0  0.919044  0  0  0.419964  0  0.902636  0  0.632934  0  0.303047  0.400944  0  0.930372  0
H  H23  1  0.95129735  0.36326709  0.19413727  1  0  0.436526  0  0.859602  0  0  0.409398  0  0.916745  0  0  0.420673  0  0.900392  0  0.644797  0  0.303833  0.401692  0  0.928055  0
H  H24  1  0.16082188  0.04732517  0.10388208  1  0  0.458708  0  0.820689  0  0  0.434717  0  0.86991  0  0  0.445216  0  0.854664  0  0.639339  0  0.312822  0.42771  0  0.880134  0
H  H25  1  0.34117595  0.93955299  0.89849332  1  0  0.459909  0  0.816881  0  0  0.436213  0  0.865595  0  0  0.446576  0  0.850535  0  0.630001  0  0.314184  0.429297  0  0.875702  0
H  H26  1  0.83917660  0.95267391  0.89611392  1  0  0.458717  0  0.820678  0  0  0.434724  0  0.869897  0  0  0.445225  0  0.85465  0  0.639117  0  0.31285  0.427717  0  0.88012  0
H  H27  1  0.65883318  0.06044446  0.10150489  1  0  0.460011  0  0.816734  0  0  0.436321  0  0.86544  0  0  0.446683  0  0.85038  0  0.630146  0  0.314247  0.429405  0  0.875546  0
H  H28  1  0.31393955  0.01481158  0.16914846  1  0  0.425982  0  0.880924  0  0  0.393056  0  0.948771  0  0  0.404445  0  0.932358  0  0.63413  0  0.298637  0.384584  0  0.961327  0
H  H29  1  0.18692237  0.84383272  0.83204962  1  0  0.426172  0  0.881433  0  0  0.393418  0  0.949092  0  0  0.404886  0  0.932549  0  0.641347  0  0.298468  0.384921  0  0.961682  0
H  H30  1  0.68606041  0.98518588  0.83084418  1  0  0.426032  0  0.880868  0  0  0.393132  0  0.948669  0  0  0.404522  0  0.932255  0  0.634199  0  0.29868  0.384658  0  0.961228  0
H  H31  1  0.81308526  0.15616555  0.16794958  1  0  0.426158  0  0.881457  0  0  0.393383  0  0.949145  0  0  0.404853  0  0.932599  0  0.641253  0  0.298454  0.384889  0  0.961731  0
H  H32  1  0.60032257  0.96887722  0.28543442  1  0  0.431649  0  0.875099  0  0  0.400464  0  0.939371  0  0  0.411174  0  0.924089  0  0.657067  0  0.301564  0.392959  0  0.950249  0
H  H33  1  0.90091729  0.68112834  0.71492455  1  0  0.430618  0  0.877021  0  0  0.399021  0  0.942257  0  0  0.409809  0  0.926841  0  0.637747  0  0.300897  0.391471  0  0.953194  0
H  H34  1  0.39967441  0.03112269  0.71456394  1  0  0.431647  0  0.875098  0  0  0.400466  0  0.939367  0  0  0.411178  0  0.924082  0  0.657066  0  0.301562  0.392961  0  0.950245  0
H  H35  1  0.09908584  0.31887238  0.28507560  1  0  0.430624  0  0.877017  0  0  0.399019  0  0.942266  0  0  0.409808  0  0.926851  0  0.637746  0  0.300896  0.391472  0  0.953196  0
H  H36  1  0.65360656  0.88106298  0.32800792  1  0  0.390272  0  0.930731  0  0  0.347083  0  1.016802  0  0  0.359169  0  0.999982  0  0.623971  0  0.287683  0.338836  0  1.028341  0
H  H37  1  0.84617310  0.55181229  0.67052635  1  0  0.391738  0  0.927586  0  0  0.348415  0  1.014377  0  0  0.360467  0  0.997539  0  0.63915  0  0.287622  0.340173  0  1.025944  0
H  H38  1  0.34639189  0.11893529  0.67198977  1  0  0.39025  0  0.930707  0  0  0.347056  0  1.016833  0  0  0.359143  0  1.000009  0  0.62395  0  0.287668  0.338809  0  1.028372  0
H  H39  1  0.15382385  0.44818679  0.32947503  1  0  0.391741  0  0.927615  0  0  0.348423  0  1.014372  0  0  0.360476  0  0.997533  0  0.639163  0  0.287619  0.340181  0  1.025941  0
C  C40  1  0.08736881  0.62699074  0.34370166  1  0  0.137379  0  3.635986  0  0  0.092265  0  3.893079  0  0  0.102381  0  3.906583  0  0.411769  0  0.068823  0.086069  0  3.883218  0
C  C41  1  0.41259861  0.28374031  0.65828987  1  0  0.140616  0  3.629038  0  0  0.094531  0  3.886881  0  0  0.104743  0  3.900178  0  0.522536  0  0.069783  0.08827  0  3.877177  0
C  C42  1  0.91262829  0.37301243  0.65630213  1  0  0.137486  0  3.635739  0  0  0.092348  0  3.892836  0  0  0.102465  0  3.906337  0  0.411771  0  0.06886  0.086152  0  3.882975  0
C  C43  1  0.58739673  0.71625632  0.34170708  1  0  0.140749  0  3.628841  0  0  0.094603  0  3.886739  0  0  0.104812  0  3.900037  0  0.522573  0  0.069873  0.088342  0  3.877036  0
C  C44  1  0.07820848  0.74046776  0.38256564  1  0  -0.102619  0  3.750639  0  0  -0.073787  0  3.987321  0  0  -0.086534  0  4.010264  0  0.11354  0  -0.007239  -0.065562  0  3.971595  0
C  C45  1  0.42240008  0.35804159  0.61804045  1  0  -0.103794  0  3.746512  0  0  -0.074239  0  3.983044  0  0  -0.087027  0  4.00596  0  -0.027948  0  -0.006493  -0.066005  0  3.967366  0
C  C46  1  0.92179321  0.25953541  0.61743755  1  0  -0.102734  0  3.750632  0  0  -0.073894  0  3.987325  0  0  -0.086645  0  4.010274  0  0.113496  0  -0.007224  -0.065667  0  3.971596  0
C  C47  1  0.57759534  0.64195750  0.38195889  1  0  -0.103638  0  3.746275  0  0  -0.074064  0  3.982835  0  0  -0.086849  0  4.005752  0  -0.027914  0  -0.006468  -0.065831  0  3.967153  0
C  C48  1  0.07630665  0.80363932  0.48720770  1  0  -0.009621  0  3.66481  0  0  -0.052359  0  3.913973  0  0  -0.044352  0  3.928874  0  -0.129795  0  -0.050228  -0.0569  0  3.903121  0
C  C49  1  0.42435347  0.31731077  0.51315684  1  0  -0.007867  0  3.6592  0  0  -0.050421  0  3.908235  0  0  -0.04234  0  3.923162  0  0.054398  0  -0.049385  -0.05502  0  3.897402  0
C  C50  1  0.92369507  0.19636467  0.51279719  1  0  -0.009652  0  3.664719  0  0  -0.052415  0  3.913893  0  0  -0.044407  0  3.928793  0  -0.129527  0  -0.050299  -0.056957  0  3.903043  0
C  C51  1  0.57563745  0.68269077  0.48684345  1  0  -0.008136  0  3.659375  0  0  -0.050743  0  3.908397  0  0  -0.042666  0  3.923327  0  0.054525  0  -0.049494  -0.055337  0  3.897559  0
C  C52  1  0.07864805  0.75191110  0.54952834  1  0  -0.140046  0  3.758112  0  0  -0.114748  0  4.001249  0  0  -0.129005  0  4.025045  0  0.097345  0  -0.016206  -0.105762  0  3.984823  0
C  C53  1  0.42152625  0.20435157  0.45212042  1  0  -0.140987  0  3.759045  0  0  -0.115907  0  4.002252  0  0  -0.130216  0  4.02613  0  -0.052822  0  -0.016852  -0.106899  0  3.985823  0
C  C54  1  0.92135211  0.24809207  0.45047212  1  0  -0.140017  0  3.758184  0  0  -0.114767  0  4.001324  0  0  -0.129024  0  4.025123  0  0.09703  0  -0.016252  -0.10578  0  3.984897  0
C  C55  1  0.57845847  0.79564752  0.54787873  1  0  -0.140772  0  3.759106  0  0  -0.115724  0  4.002315  0  0  -0.130028  0  4.026188  0  -0.053099  0  -0.016738  -0.106719  0  3.985884  0
C  C56  1  0.09779169  0.63828135  0.50468149  1  0  0.140583  0  3.632522  0  0  0.09533  0  3.893654  0  0  0.105689  0  3.906718  0  0.425747  0  0.06274  0.089046  0  3.884214  0
C  C57  1  0.40202591  0.13598065  0.49835010  1  0  0.140129  0  3.637412  0  0  0.095383  0  3.897848  0  0  0.105715  0  3.910993  0  0.501087  0  0.064371  0.08911  0  3.888405  0
C  C58  1  0.90220529  0.36171855  0.49531889  1  0  0.140498  0  3.632627  0  0  0.095269  0  3.893725  0  0  0.105626  0  3.906792  0  0.425512  0  0.062761  0.088982  0  3.884285  0
C  C59  1  0.59796340  0.86401844  0.50164710  1  0  0.140082  0  3.63752  0  0  0.095387  0  3.897944  0  0  0.105719  0  3.911083  0  0.501237  0  0.064315  0.089103  0  3.888517  0
C  C60  1  0.06097432  0.79298331  0.31381704  1  0  0.640098  0  3.950543  0  0  0.593397  0  4.243559  0  0  0.626403  0  4.244788  0  1.561066  0  0.185316  0.570324  0  4.247311  0
C  C61  1  0.43920298  0.47801658  0.68613145  1  0  0.641247  0  3.947293  0  0  0.594137  0  4.241144  0  0  0.627178  0  4.242285  0  1.570464  0  0.186725  0.571051  0  4.244833  0
C  C62  1  0.93902575  0.20701741  0.68618374  1  0  0.640331  0  3.950348  0  0  0.593639  0  4.243333  0  0  0.626645  0  4.244559  0  1.561165  0  0.18539  0.570567  0  4.247084  0
C  C63  1  0.56079694  0.52198005  0.31386693  1  0  0.641318  0  3.947234  0  0  0.594171  0  4.241142  0  0  0.627211  0  4.242285  0  1.570448  0  0.186725  0.571086  0  4.244831  0
C  C64  1  0.06560005  0.82003047  0.66183769  1  0  0.712155  0  3.867365  0  0  0.657996  0  4.161774  0  0  0.693866  0  4.153319  0  1.605777  0  0.23414  0.634205  0  4.167525  0
C  C65  1  0.43471226  0.16044690  0.33958656  1  0  0.715299  0  3.865722  0  0  0.661042  0  4.160273  0  0  0.696949  0  4.15164  0  1.579622  0  0.235166  0.63721  0  4.166097  0
C  C66  1  0.93439850  0.17997025  0.33816509  1  0  0.712169  0  3.867498  0  0  0.658069  0  4.161801  0  0  0.693938  0  4.153344  0  1.605632  0  0.23416  0.634282  0  4.16755  0
C  C67  1  0.56528914  0.83954810  0.66041184  1  0  0.715362  0  3.865897  0  0  0.661131  0  4.160433  0  0  0.697042  0  4.151793  0  1.580122  0  0.23517  0.637304  0  4.166251  0
S  S68  1  0.75064413  0.81492829  0.99946993  1  0  1.545512  0  5.90235  0  0  1.423858  0  6.43897  0  0  1.475911  0  6.424131  0  3.795038  0  0.544287  1.385881  0  6.461329  0
S  S69  1  0.24935900  0.18507243  0.00052955  1  0  1.545384  0  5.902461  0  0  1.423733  0  6.439075  0  0  1.475793  0  6.424236  0  3.794635  0  0.544273  1.385757  0  6.461431  0
N  N70  1  0.10354240  0.57733950  0.40354978  1  0  -0.308907  0  3.165485  0  0  -0.245093  0  3.424547  0  0  -0.260934  0  3.438398  0  -1.24956  0  -0.304512  -0.2344  0  3.414425  0
N  N71  1  0.39625486  0.17546267  0.59958602  1  0  -0.306756  0  3.175375  0  0  -0.242785  0  3.43381  0  0  -0.258586  0  3.447584  0  -1.258326  0  -0.305296  -0.232146  0  3.423754  0
N  N72  1  0.89645320  0.42266449  0.59644959  1  0  -0.308909  0  3.16528  0  0  -0.245078  0  3.424316  0  0  -0.260918  0  3.438166  0  -1.249519  0  -0.304559  -0.234387  0  3.414196  0
N  N73  1  0.60373737  0.82453234  0.40041086  1  0  -0.306927  0  3.175374  0  0  -0.242975  0  3.433845  0  0  -0.258775  0  3.447622  0  -1.258412  0  -0.305387  -0.232335  0  3.423791  0
O  O74  1  0.97906033  0.73938639  0.22545137  1  0  -0.656459  0  1.924263  0  0  -0.612512  0  2.14738  0  0  -0.644177  0  2.137776  0  -1.151726  0  -0.36797  -0.595828  0  2.152804  0
O  O75  1  0.52050316  0.51122114  0.77473830  1  0  -0.659108  0  1.921288  0  0  -0.615107  0  2.144175  0  0  -0.646725  0  2.134451  0  -1.152307  0  -0.368928  -0.598401  0  2.149675  0
O  O76  1  0.02094436  0.26061514  0.77454781  1  0  -0.656573  0  1.924204  0  0  -0.612634  0  2.147315  0  0  -0.644303  0  2.137708  0  -1.151784  0  -0.368017  -0.595948  0  2.152738  0
O  O77  1  0.47949518  0.48877386  0.22525802  1  0  -0.659163  0  1.921153  0  0  -0.615153  0  2.144057  0  0  -0.646772  0  2.134332  0  -1.152204  0  -0.368924  -0.598447  0  2.149556  0
O  O78  1  0.32600441  0.80880274  0.15080008  1  0  -0.896034  0  1.820904  0  0  -0.846279  0  1.996521  0  0  -0.873957  0  1.959089  0  -1.259761  0  -0.640113  -0.833001  0  2.017636  0
O  O79  1  0.17440471  0.65581104  0.85091783  1  0  -0.895802  0  1.818769  0  0  -0.846393  0  1.993465  0  0  -0.87392  0  1.955963  0  -1.259925  0  -0.640053  -0.833182  0  2.014744  0
O  O80  1  0.67400022  0.19119716  0.84919705  1  0  -0.895939  0  1.820955  0  0  -0.846194  0  1.996565  0  0  -0.873872  0  1.959117  0  -1.25953  0  -0.640095  -0.832917  0  2.017681  0
O  O81  1  0.82559986  0.34418723  0.14908064  1  0  -0.89577  0  1.818828  0  0  -0.846361  0  1.993515  0  0  -0.873887  0  1.956014  0  -1.259759  0  -0.640034  -0.833148  0  2.014789  0
O  O82  1  0.12321983  0.89264354  0.34743066  1  0  -0.706773  0  1.921208  0  0  -0.665201  0  2.166732  0  0  -0.698488  0  2.156147  0  -1.178898  0  -0.403108  -0.64791  0  2.172507  0
O  O83  1  0.37669683  0.54448205  0.65210879  1  0  -0.705998  0  1.91975  0  0  -0.664131  0  2.165207  0  0  -0.697173  0  2.15467  0  -1.175834  0  -0.400081  -0.646829  0  2.171023  0
O  O84  1  0.87678488  0.10735882  0.65256886  1  0  -0.706838  0  1.921177  0  0  -0.665244  0  2.16666  0  0  -0.698535  0  2.156076  0  -1.178831  0  -0.403125  -0.647954  0  2.172443  0
O  O85  1  0.62330318  0.45551703  0.34788725  1  0  -0.706062  0  1.919923  0  0  -0.664172  0  2.165369  0  0  -0.697214  0  2.154836  0  -1.175863  0  -0.400101  -0.646867  0  2.171179  0
O  O86  1  0.19304387  0.98691655  0.12017409  1  0  -0.922483  0  1.850182  0  0  -0.879178  0  2.04465  0  0  -0.906895  0  2.005436  0  -1.25626  0  -0.655389  -0.866242  0  2.067676  0
O  O87  1  0.30842349  0.86303590  0.88064085  1  0  -0.922741  0  1.852041  0  0  -0.880138  0  2.045983  0  0  -0.907473  0  2.006912  0  -1.256187  0  -0.652717  -0.867204  0  2.069028  0
O  O88  1  0.80695300  0.01308009  0.87981882  1  0  -0.922556  0  1.85011  0  0  -0.879253  0  2.044578  0  0  -0.906976  0  2.005354  0  -1.256099  0  -0.655489  -0.866315  0  2.067607  0
O  O89  1  0.69158873  0.13696237  0.11935775  1  0  -0.922808  0  1.851958  0  0  -0.880205  0  2.045931  0  0  -0.907536  0  2.006848  0  -1.25628  0  -0.652746  -0.867267  0  2.068963  0
O  O90  1  0.05794654  0.92271345  0.69392087  1  0  -0.752491  0  2.080971  0  0  -0.699905  0  2.351502  0  0  -0.737099  0  2.336788  0  -1.200043  0  -0.414104  -0.681974  0  2.358103  0
O  O91  1  0.44474478  0.23059424  0.30616825  1  0  -0.755095  0  2.088385  0  0  -0.702287  0  2.359061  0  0  -0.739383  0  2.344293  0  -1.200404  0  -0.418284  -0.684303  0  2.365839  0
O  O92  1  0.94205358  0.07728891  0.30608263  1  0  -0.75249  0  2.081104  0  0  -0.699929  0  2.351599  0  0  -0.73712  0  2.336887  0  -1.200011  0  -0.414084  -0.681994  0  2.358188  0
O  O93  1  0.55526894  0.76940322  0.69383139  1  0  -0.755135  0  2.088481  0  0  -0.702348  0  2.359185  0  0  -0.739444  0  2.344414  0  -1.200478  0  -0.418272  -0.684361  0  2.365959  0
O  O94  1  0.67475036  0.89965688  0.26898449  1  0  -0.929036  0  1.978924  0  0  -0.871162  0  2.187872  0  0  -0.902298  0  2.152654  0  -1.289714  0  -0.628654  -0.855383  0  2.208981  0
O  O95  1  0.82570252  0.62728722  0.73020515  1  0  -0.926858  0  1.974505  0  0  -0.869533  0  2.182203  0  0  -0.900351  0  2.147022  0  -1.283395  0  -0.626254  -0.853889  0  2.203604  0
O  O96  1  0.32524966  0.10034220  0.73101290  1  0  -0.92899  0  1.978874  0  0  -0.871121  0  2.187846  0  0  -0.902261  0  2.152622  0  -1.289706  0  -0.628618  -0.855353  0  2.208983  0
O  O97  1  0.17429756  0.37271350  0.26979630  1  0  -0.926859  0  1.974501  0  0  -0.869546  0  2.182186  0  0  -0.90036  0  2.147006  0  -1.283452  0  -0.626233  -0.853897  0  2.203588  0
O  O98  1  0.06497461  0.77284822  0.71839458  1  0  -0.65358  0  2.049832  0  0  -0.58961  0  2.276643  0  0  -0.617043  0  2.267401  0  -1.210564  0  -0.291801  -0.571959  0  2.284222  0
O  O99  1  0.43334124  0.05778516  0.28437625  1  0  -0.654058  0  2.043458  0  0  -0.589654  0  2.269  0  0  -0.616898  0  2.259592  0  -1.214455  0  -0.291637  -0.5721  0  2.276694  0
O  O100  1  0.93503319  0.22715495  0.28160939  1  0  -0.653615  0  2.049774  0  0  -0.589624  0  2.276533  0  0  -0.617058  0  2.267287  0  -1.210455  0  -0.291844  -0.571984  0  2.284118  0
O  O101  1  0.56665404  0.94220984  0.71562001  1  0  -0.654116  0  2.04359  0  0  -0.589736  0  2.269119  0  0  -0.616989  0  2.259716  0  -1.214877  0  -0.291687  -0.572182  0  2.276813  0
O  O102  1  0.72431097  0.92188201  0.09024565  1  0  -0.76308  0  1.987434  0  0  -0.703181  0  2.238392  0  0  -0.731498  0  2.221534  0  -1.342142  0  -0.379822  -0.688116  0  2.249711  0
O  O103  1  0.77533297  0.82731824  0.90544164  1  0  -0.766616  0  2.005397  0  0  -0.705473  0  2.256504  0  0  -0.733794  0  2.23987  0  -1.331405  0  -0.381331  -0.690226  0  2.267675  0
O  O104  1  0.27569208  0.07811626  0.90975415  1  0  -0.763041  0  1.987368  0  0  -0.703138  0  2.23833  0  0  -0.731465  0  2.22148  0  -1.342164  0  -0.37982  -0.688071  0  2.249648  0
O  O105  1  0.22466864  0.17268248  0.09455849  1  0  -0.766525  0  2.005376  0  0  -0.705384  0  2.256477  0  0  -0.733706  0  2.239843  0  -1.331366  0  -0.381296  -0.690137  0  2.267647  0
O  O106  1  0.93571545  0.76634534  0.02460285  1  0  -0.762825  0  1.95185  0  0  -0.703189  0  2.193714  0  0  -0.732994  0  2.175734  0  -1.322548  0  -0.390953  -0.687946  0  2.205552  0
O  O107  1  0.56797474  0.74090390  0.97710594  1  0  -0.76339  0  1.945615  0  0  -0.703934  0  2.186638  0  0  -0.733589  0  2.168586  0  -1.322022  0  -0.391283  -0.688683  0  2.198479  0
O  O108  1  0.06428921  0.23365538  0.97539666  1  0  -0.762819  0  1.952014  0  0  -0.703195  0  2.193891  0  0  -0.733011  0  2.175913  0  -1.322471  0  -0.390962  -0.687952  0  2.205727  0
O  O109  1  0.43202992  0.25909682  0.02289357  1  0  -0.763365  0  1.945612  0  0  -0.703912  0  2.186638  0  0  -0.733568  0  2.168585  0  -1.321681  0  -0.391289  -0.68866  0  2.198479  0
