# generated using pymatgen
data_ZnH12C4S2(NO3)2
_symmetry_space_group_name_H-M   'P 1'
_cell_length_a   6.51317388
_cell_length_b   8.64001218
_cell_length_c   9.16900942
_cell_angle_alpha   115.78844120
_cell_angle_beta   89.99990375
_cell_angle_gamma   90.00006800
_symmetry_Int_Tables_number   1
_chemical_formula_structural   ZnH12C4S2(NO3)2
_chemical_formula_sum   'Zn2 H24 C8 S4 N4 O12'
_cell_volume   464.58811449
_cell_formula_units_Z   2
loop_
 _symmetry_equiv_pos_site_id
 _symmetry_equiv_pos_as_xyz
  1  'x, y, z'
loop_
 _atom_site_type_symbol
 _atom_site_label
 _atom_site_symmetry_multiplicity
 _atom_site_fract_x
 _atom_site_fract_y
 _atom_site_fract_z
 _atom_site_occupancy
 _atom_site_hle17_bader_spin_density
 _atom_site_hle17_ddec_charge
 _atom_site_hle17_ddec_spin_density
 _atom_site_hle17_ddec_sum_bond_order
 _atom_site_hle17_magmom
 _atom_site_hse06_10hf_bader_spin_density
 _atom_site_hse06_10hf_ddec_charge
 _atom_site_hse06_10hf_ddec_spin_density
 _atom_site_hse06_10hf_ddec_sum_bond_order
 _atom_site_hse06_10hf_magmom
 _atom_site_hse06_bader_spin_density
 _atom_site_hse06_ddec_charge
 _atom_site_hse06_ddec_spin_density
 _atom_site_hse06_ddec_sum_bond_order
 _atom_site_hse06_magmom
 _atom_site_pbe_bader_spin_density
 _atom_site_pbe_cm5_charge
 _atom_site_pbe_ddec_charge
 _atom_site_pbe_ddec_spin_density
 _atom_site_pbe_ddec_sum_bond_order
 _atom_site_pbe_magmom
Zn  Zn0  1  0.99999921  0.50000053  0.99999858  1  0  1.120219  0  1.657902  0  0  0.946778  0  2.092773  0  0  0.990415  0  2.043029  0  0  0.700641  0.916358  0  2.126831  0
Zn  Zn1  1  0.49999873  0.49999927  0.49999900  1  0  1.120275  0  1.657811  0  0  0.946851  0  2.092661  0  0  0.990487  0  2.042918  0  0  0.700672  0.916423  0  2.126722  0
H  H2  1  0.43889236  0.96351481  0.33992244  1  0  0.136048  0  0.935564  0  0  0.14502  0  1.000249  0  0  0.148126  0  0.998653  0  0  0.10877  0.14296  0  1.001211  0
H  H3  1  0.93889079  0.03648245  0.16007931  1  0  0.136048  0  0.935577  0  0  0.145036  0  1.000253  0  0  0.148142  0  0.998657  0  0  0.108774  0.142977  0  1.001212  0
H  H4  1  0.56110510  0.03648631  0.66008098  1  0  0.136051  0  0.935658  0  0  0.145039  0  1.00031  0  0  0.148142  0  0.998718  0  0  0.108783  0.142978  0  1.001269  0
H  H5  1  0.06110668  0.96351738  0.83992139  1  0  0.136062  0  0.935576  0  0  0.145057  0  1.000242  0  0  0.148165  0  0.998644  0  0  0.108772  0.14299  0  1.001202  0
H  H6  1  0.60983529  0.91123805  0.17300887  1  0  0.146384  0  0.933181  0  0  0.156716  0  0.994347  0  0  0.159596  0  0.993389  0  0  0.114497  0.154168  0  0.99622  0
H  H7  1  0.10983553  0.08876292  0.32699042  1  0  0.146417  0  0.933117  0  0  0.156708  0  0.994346  0  0  0.15959  0  0.993385  0  0  0.114497  0.154164  0  0.996215  0
H  H8  1  0.39016371  0.08876436  0.82699180  1  0  0.146421  0  0.933109  0  0  0.156711  0  0.994329  0  0  0.159589  0  0.993369  0  0  0.114493  0.154167  0  0.996189  0
H  H9  1  0.89016347  0.91123562  0.67300866  1  0  0.146434  0  0.933103  0  0  0.156731  0  0.994325  0  0  0.15961  0  0.993367  0  0  0.114499  0.154184  0  0.996191  0
H  H10  1  0.28215640  0.81574823  0.05801318  1  0  0.084029  0  0.928827  0  0  0.09808  0  0.992665  0  0  0.099124  0  0.992679  0  0  0.109933  0.097766  0  0.99184  0
H  H11  1  0.78215746  0.18425539  0.44199027  1  0  0.083976  0  0.928871  0  0  0.098076  0  0.992661  0  0  0.099124  0  0.99267  0  0  0.109916  0.097764  0  0.991838  0
H  H12  1  0.71784260  0.18425160  0.94198862  1  0  0.084026  0  0.92882  0  0  0.098083  0  0.992657  0  0  0.09913  0  0.992667  0  0  0.109926  0.09777  0  0.991833  0
H  H13  1  0.21784461  0.81574830  0.55801201  1  0  0.084031  0  0.928819  0  0  0.09809  0  0.992663  0  0  0.099137  0  0.992672  0  0  0.10993  0.097773  0  0.991835  0
H  H14  1  0.43882033  0.63517871  0.01560010  1  0  0.070642  0  0.943059  0  0  0.084764  0  1.007435  0  0  0.085622  0  1.00728  0  0  0.104161  0.084385  0  1.007155  0
H  H15  1  0.93882157  0.36482111  0.48439616  1  0  0.070582  0  0.943139  0  0  0.084711  0  1.007507  0  0  0.085568  0  1.007349  0  0  0.104144  0.08433  0  1.00723  0
H  H16  1  0.56117867  0.36482111  0.98439843  1  0  0.070612  0  0.943102  0  0  0.084737  0  1.00748  0  0  0.085595  0  1.007325  0  0  0.104146  0.084358  0  1.007194  0
H  H17  1  0.06118204  0.63518000  0.51560289  1  0  0.070662  0  0.943179  0  0  0.084777  0  1.007552  0  0  0.085632  0  1.007397  0  0  0.104159  0.084393  0  1.007274  0
H  H18  1  0.10171107  0.75817284  0.25654677  1  0  0.306597  0  0.909994  0  0  0.295631  0  0.9632  0  0  0.301697  0  0.959941  0  0  0.294033  0.290939  0  0.966345  0
H  H19  1  0.60171269  0.24182427  0.24345205  1  0  0.306604  0  0.909967  0  0  0.295637  0  0.963177  0  0  0.301703  0  0.959919  0  0  0.294046  0.290946  0  0.966323  0
H  H20  1  0.89828793  0.24182570  0.74345232  1  0  0.30654  0  0.910011  0  0  0.295588  0  0.963219  0  0  0.301658  0  0.959957  0  0  0.294022  0.290895  0  0.966367  0
H  H21  1  0.39828785  0.75817427  0.75654704  1  0  0.306609  0  0.909972  0  0  0.295653  0  0.963172  0  0  0.301724  0  0.959912  0  0  0.294044  0.290958  0  0.966318  0
H  H22  1  0.25442914  0.59749456  0.23331983  1  0  0.299903  0  0.925609  0  0  0.287143  0  0.983744  0  0  0.29314  0  0.980068  0  0  0.289764  0.282745  0  0.986407  0
H  H23  1  0.75442942  0.40250519  0.26667989  1  0  0.299896  0  0.925622  0  0  0.287133  0  0.983763  0  0  0.293131  0  0.980087  0  0  0.289762  0.282734  0  0.986428  0
H  H24  1  0.74556832  0.40250399  0.76668144  1  0  0.299908  0  0.925614  0  0  0.287198  0  0.983717  0  0  0.293198  0  0.980033  0  0  0.28977  0.282795  0  0.986391  0
H  H25  1  0.24556958  0.59749593  0.73332025  1  0  0.299872  0  0.925671  0  0  0.287118  0  0.983811  0  0  0.293116  0  0.980135  0  0  0.289747  0.282715  0  0.986486  0
C  C26  1  0.51034758  0.85732175  0.23592340  1  0  -0.34428  0  3.604831  0  0  -0.38085  0  3.86777  0  0  -0.387045  0  3.874481  0  0  -0.160311  -0.376654  0  3.863864  0
C  C27  1  0.01034806  0.14267660  0.26407494  1  0  -0.344333  0  3.604823  0  0  -0.380909  0  3.867811  0  0  -0.387105  0  3.874518  0  0  -0.16031  -0.376715  0  3.863899  0
C  C28  1  0.48965295  0.14267551  0.76407407  1  0  -0.344308  0  3.60486  0  0  -0.380868  0  3.867851  0  0  -0.387054  0  3.874545  0  0  -0.160331  -0.376677  0  3.863933  0
C  C29  1  0.98965094  0.85732323  0.73592467  1  0  -0.344397  0  3.604826  0  0  -0.380952  0  3.867771  0  0  -0.387149  0  3.874471  0  0  -0.160351  -0.376756  0  3.863859  0
C  C30  1  0.35672361  0.74008354  0.11269435  1  0  0.110607  0  3.635927  0  0  0.049889  0  3.901666  0  0  0.055259  0  3.913262  0  0  -0.080089  0.046043  0  3.893155  0
C  C31  1  0.85672645  0.25991754  0.38730578  1  0  0.110751  0  3.635947  0  0  0.050008  0  3.901696  0  0  0.055384  0  3.913281  0  0  -0.080044  0.046162  0  3.893189  0
C  C32  1  0.64327386  0.25991629  0.88730635  1  0  0.110596  0  3.635962  0  0  0.049868  0  3.901736  0  0  0.055237  0  3.91333  0  0  -0.080094  0.046018  0  3.893222  0
C  C33  1  0.14327255  0.74008101  0.61269331  1  0  0.110563  0  3.636015  0  0  0.049839  0  3.901807  0  0  0.055213  0  3.913398  0  0  -0.080095  0.046  0  3.893287  0
S  S34  1  0.67816727  0.75267316  0.31948459  1  0  1.352884  0  5.524796  0  0  1.252138  0  6.05092  0  0  1.298523  0  6.028331  0  0  0.514251  1.220114  0  6.065698  0
S  S35  1  0.17817118  0.24732270  0.18051362  1  0  1.353152  0  5.524762  0  0  1.252472  0  6.050828  0  0  1.298858  0  6.028221  0  0  0.514363  1.220456  0  6.065599  0
S  S36  1  0.32181945  0.24731767  0.68051025  1  0  1.352716  0  5.525245  0  0  1.252009  0  6.051319  0  0  1.298403  0  6.028716  0  0  0.514173  1.219986  0  6.066093  0
S  S37  1  0.82184471  0.75266942  0.81948611  1  0  1.352976  0  5.524852  0  0  1.2523  0  6.050924  0  0  1.298703  0  6.028315  0  0  0.514301  1.220243  0  6.065726  0
N  N38  1  0.19421592  0.66410167  0.17371451  1  0  -0.644166  0  3.104548  0  0  -0.577833  0  3.352484  0  0  -0.599471  0  3.350714  0  0  -0.629608  -0.562515  0  3.353935  0
N  N39  1  0.69421595  0.33589806  0.32628526  1  0  -0.644177  0  3.10448  0  0  -0.577845  0  3.352432  0  0  -0.599486  0  3.35066  0  0  -0.629604  -0.562526  0  3.353888  0
N  N40  1  0.80578001  0.33590073  0.82628725  1  0  -0.644059  0  3.104576  0  0  -0.577801  0  3.352475  0  0  -0.599439  0  3.350699  0  0  -0.629565  -0.562485  0  3.35394  0
N  N41  1  0.30578459  0.66410049  0.67371601  1  0  -0.644117  0  3.104546  0  0  -0.577805  0  3.352495  0  0  -0.599443  0  3.350705  0  0  -0.629593  -0.562493  0  3.353963  0
O  O42  1  0.74012941  0.58610762  0.18462909  1  0  -0.719521  0  2.046942  0  0  -0.648102  0  2.321767  0  0  -0.670638  0  2.305528  0  0  -0.340834  -0.632482  0  2.33236  0
O  O43  1  0.24013019  0.41388827  0.31536905  1  0  -0.719626  0  2.047018  0  0  -0.648237  0  2.321858  0  0  -0.67077  0  2.305609  0  0  -0.34091  -0.632625  0  2.332457  0
O  O44  1  0.25986805  0.41389221  0.81537161  1  0  -0.719537  0  2.046958  0  0  -0.648125  0  2.321766  0  0  -0.670659  0  2.305523  0  0  -0.340842  -0.632508  0  2.332363  0
O  O45  1  0.75986881  0.58611542  0.68463541  1  0  -0.719618  0  2.046988  0  0  -0.648279  0  2.321868  0  0  -0.670822  0  2.305625  0  0  -0.340943  -0.632622  0  2.332443  0
O  O46  1  0.55441484  0.72240538  0.44041033  1  0  -0.710099  0  2.022605  0  0  -0.644338  0  2.307661  0  0  -0.666397  0  2.290522  0  0  -0.345626  -0.628616  0  2.318686  0
O  O47  1  0.05442369  0.27759042  0.05958473  1  0  -0.710162  0  2.022656  0  0  -0.644426  0  2.307679  0  0  -0.666516  0  2.290595  0  0  -0.345641  -0.628708  0  2.318707  0
O  O48  1  0.44558262  0.27759573  0.55958653  1  0  -0.710058  0  2.022629  0  0  -0.644286  0  2.30764  0  0  -0.66635  0  2.290508  0  0  -0.345575  -0.628567  0  2.318672  0
O  O49  1  0.94558759  0.72240427  0.94040842  1  0  -0.710072  0  2.02285  0  0  -0.644297  0  2.307866  0  0  -0.666359  0  2.290724  0  0  -0.345596  -0.628584  0  2.318915  0
O  O50  1  0.85126261  0.86871892  0.39190321  1  0  -0.649145  0  1.943671  0  0  -0.591653  0  2.189253  0  0  -0.612734  0  2.178036  0  0  -0.329263  -0.577044  0  2.196645  0
O  O51  1  0.35126651  0.13127573  0.10809757  1  0  -0.649261  0  1.943581  0  0  -0.591769  0  2.189137  0  0  -0.61285  0  2.177921  0  0  -0.329302  -0.577157  0  2.19652  0
O  O52  1  0.14874407  0.13128605  0.60809959  1  0  -0.649007  0  1.944134  0  0  -0.591525  0  2.189673  0  0  -0.612654  0  2.178525  0  0  -0.329214  -0.576888  0  2.197028  0
O  O53  1  0.64873710  0.86872669  0.89191619  1  0  -0.649148  0  1.943377  0  0  -0.591686  0  2.188955  0  0  -0.612797  0  2.177751  0  0  -0.329247  -0.577032  0  2.196308  0
