# generated using pymatgen
data_NiH8C12(NO2)2
_symmetry_space_group_name_H-M   'P 1'
_cell_length_a   6.76758602
_cell_length_b   8.29460191
_cell_length_c   10.10814539
_cell_angle_alpha   101.69469030
_cell_angle_beta   95.01872942
_cell_angle_gamma   104.51873452
_symmetry_Int_Tables_number   1
_chemical_formula_structural   NiH8C12(NO2)2
_chemical_formula_sum   'Ni2 H16 C24 N4 O8'
_cell_volume   532.13773611
_cell_formula_units_Z   2
loop_
 _symmetry_equiv_pos_site_id
 _symmetry_equiv_pos_as_xyz
  1  'x, y, z'
loop_
 _atom_site_type_symbol
 _atom_site_label
 _atom_site_symmetry_multiplicity
 _atom_site_fract_x
 _atom_site_fract_y
 _atom_site_fract_z
 _atom_site_occupancy
 _atom_site_hle17_ddec_charge
 _atom_site_hle17_ddec_spin_density
 _atom_site_hle17_ddec_sum_bond_order
 _atom_site_hle17_magmom
 _atom_site_hse06_10hf_ddec_charge
 _atom_site_hse06_10hf_ddec_spin_density
 _atom_site_hse06_10hf_ddec_sum_bond_order
 _atom_site_hse06_10hf_magmom
 _atom_site_hse06_ddec_charge
 _atom_site_hse06_ddec_spin_density
 _atom_site_hse06_ddec_sum_bond_order
 _atom_site_hse06_magmom
 _atom_site_pbe_cm5_charge
 _atom_site_pbe_ddec_charge
 _atom_site_pbe_ddec_spin_density
 _atom_site_pbe_ddec_sum_bond_order
 _atom_site_pbe_magmom
Ni  Ni0  1  0.88192460  0.82571673  0.12197748  1  0.749246  -0.031913  2.124072  0.038  0.752434  -0.08072  2.541434  0.003  0.859907  -0.097642  2.447426  -0.002  0.634557  0.684758  -0.071566  2.603275  0.001
Ni  Ni1  1  0.11771211  0.17163972  0.87444802  1  0.820781  1.816857  2.093072  1.482  0.831461  1.891486  2.49006  1.603  0.926199  1.96007  2.407323  1.699  0.66794  0.764722  1.826955  2.55066  1.518
H  H2  1  0.96424760  0.85273956  0.58235112  1  0.121523  -0.00035  0.959923  0.0  0.128619  -0.000267  1.02771  0.0  0.13351  -0.000227  1.022857  0.0  0.107315  0.125169  -0.000312  1.030941  0.0
H  H3  1  0.03675216  0.15402992  0.41477491  1  0.115905  0.000265  0.956974  0.0  0.121787  0.000312  1.026805  0.0  0.127249  0.000215  1.021228  0.0  0.105255  0.117766  0.00048  1.030861  0.0
H  H4  1  0.66638243  0.35216567  0.32957765  1  0.098218  -0.000175  0.943949  0.0  0.107042  -5.6e-05  1.00667  0.0  0.110121  -3.4e-05  1.004499  0.0  0.104316  0.104965  -5.3e-05  1.008013  0.0
H  H5  1  0.33520919  0.64617336  0.68132628  1  0.095692  0.000316  0.941724  0.0  0.10455  0.000291  1.005569  0.0  0.107616  0.000185  1.003515  0.0  0.102093  0.102248  0.000401  1.007147  0.0
H  H6  1  0.58282322  0.24230353  0.53780629  1  0.082548  -6e-05  0.946149  0.0  0.093741  -7.1e-05  1.004316  0.0  0.096211  -4.8e-05  1.004315  0.0  0.097183  0.092179  -6.5e-05  1.004232  0.0
H  H7  1  0.42195843  0.76592765  0.47815160  1  0.079687  8.1e-05  0.951803  0.0  0.091812  7.7e-05  1.01011  0.0  0.094571  4.9e-05  1.009598  0.0  0.09542  0.089923  6e-05  1.010572  0.0
H  H8  1  0.68651838  0.44339057  0.76730748  1  0.086882  -0.000374  0.976407  0.0  0.094838  -0.000235  1.043903  0.0  0.096806  -0.000165  1.043253  0.0  0.097651  0.093592  -0.000356  1.04424  0.0
H  H9  1  0.32298677  0.57369750  0.24469903  1  0.084737  0.000151  0.976392  0.0  0.092187  0.00012  1.045048  0.0  0.094249  6.5e-05  1.044664  0.0  0.096002  0.090852  0.000175  1.045329  0.0
H  H10  1  0.47799518  0.61824178  0.95483683  1  0.118005  0.000673  0.947127  0.001  0.121583  0.000695  1.013786  0.001  0.12497  0.000557  1.010284  0.001  0.131202  0.118979  0.00083  1.017054  0.001
H  H11  1  0.51917536  0.37408080  0.04199727  1  0.1168  0.000971  0.955746  0.002  0.120285  0.000788  1.02257  0.002  0.124309  0.000562  1.018686  0.001  0.127819  0.117073  0.001049  1.026181  0.002
H  H12  1  0.11154295  0.61457473  0.95747351  1  0.114803  0.000669  0.94771  0.001  0.120434  0.000696  1.009884  0.001  0.123048  0.000537  1.007681  0.001  0.131218  0.118204  0.000873  1.012563  0.001
H  H13  1  0.88889054  0.37866884  0.03667665  1  0.111368  0.000934  0.958611  0.002  0.117202  0.000817  1.021088  0.001  0.120048  0.000596  1.018794  0.001  0.129277  0.114786  0.00107  1.023583  0.002
H  H14  1  0.27994497  0.03051974  0.29432836  1  0.104362  0.000574  0.942164  0.001  0.111647  0.00061  1.004149  0.001  0.113346  0.000503  1.003248  0.001  0.130793  0.110275  0.000713  1.005559  0.001
H  H15  1  0.71825993  0.96689579  0.69806445  1  0.097203  0.000978  0.951901  0.002  0.104949  0.000903  1.015274  0.001  0.107624  0.000664  1.013573  0.001  0.125851  0.102537  0.001187  1.017448  0.002
H  H16  1  0.65509556  0.03219329  0.29111635  1  0.115783  0.00062  0.928611  0.001  0.12279  0.000607  0.989302  0.001  0.125708  0.000494  0.986249  0.001  0.13371  0.120493  0.000711  0.992216  0.001
H  H17  1  0.34122535  0.96390486  0.70379345  1  0.107543  0.00104  0.938237  0.002  0.114362  0.000932  1.000957  0.002  0.118026  0.000681  0.997496  0.001  0.128339  0.11131  0.001234  1.004225  0.002
C  C18  1  0.83574141  0.65837735  0.68970559  1  -0.080166  -0.002253  3.758132  -0.002  -0.057095  -0.00186  3.992827  -0.002  -0.069704  -0.001907  4.016325  -0.002  -0.021968  -0.048752  -0.001108  3.977767  -0.001
C  C19  1  0.16935884  0.35375247  0.31440858  1  -0.070832  0.008757  3.757353  0.011  -0.046856  0.004404  3.989297  0.006  -0.058611  0.003034  4.012672  0.004  -0.020844  -0.039171  0.005447  3.97421  0.007
C  C20  1  0.88060673  0.71908251  0.57278951  1  -0.079373  0.000371  3.683483  0.001  -0.114953  -6e-06  3.927842  0.0  -0.111113  0.000206  3.94484  0.0  -0.078475  -0.118126  0.000594  3.917692  0.001
C  C21  1  0.12194752  0.28796642  0.42803555  1  -0.080168  -0.000735  3.702641  0.0  -0.115334  0.001199  3.946161  0.001  -0.112129  0.000607  3.963056  0.001  -0.079247  -0.118006  0.00132  3.936124  0.002
C  C22  1  0.81534382  0.60843026  0.44350295  1  -0.068958  0.00059  3.769281  0.002  -0.037852  0.000405  3.990003  0.001  -0.04773  -0.000192  4.013064  0.001  -0.01695  -0.031209  0.0011  3.973998  0.002
C  C23  1  0.18539354  0.39241055  0.55981258  1  -0.072663  0.00539  3.788445  0.006  -0.039982  0.003143  4.00715  0.004  -0.048702  0.002177  4.028896  0.003  -0.021132  -0.035023  0.00402  3.993511  0.004
C  C24  1  0.71236046  0.43566094  0.43158886  1  -0.039905  0.002263  3.711187  0.002  -0.066563  0.001134  3.957585  0.001  -0.064059  0.001001  3.978005  0.001  -0.072756  -0.066649  0.001255  3.941966  0.001
C  C25  1  0.28933284  0.56597321  0.57804842  1  -0.047624  -0.003279  3.720125  -0.002  -0.073917  -0.000266  3.968209  0.0  -0.070319  -0.000336  3.986794  0.0  -0.076788  -0.075509  0.000496  3.955154  0.0
C  C26  1  0.66701389  0.37564259  0.54745172  1  -0.076245  -0.001774  3.768951  -0.001  -0.08825  -0.000792  4.027954  -0.001  -0.09457  -0.000905  4.051304  -0.001  -0.091971  -0.084135  -0.000732  4.011019  -0.001
C  C27  1  0.33713642  0.63185905  0.46477206  1  -0.082327  0.001624  3.776984  0.002  -0.095087  0.000332  4.036452  0.001  -0.100812  0.000299  4.058691  0.0  -0.094326  -0.091545  0.000457  4.02104  0.001
C  C28  1  0.72529249  0.48710576  0.67603401  1  -0.040737  0.002188  3.703024  0.003  -0.070256  0.001388  3.957337  0.002  -0.065459  0.001167  3.975583  0.001  -0.080671  -0.072302  0.001634  3.943965  0.002
C  C29  1  0.28141356  0.52560769  0.33380929  1  -0.038825  -0.004533  3.699171  -0.003  -0.067576  -0.000922  3.952904  -0.001  -0.063315  -0.000798  3.971198  -0.001  -0.08052  -0.069748  -0.000606  3.93996  -0.001
C  C30  1  0.90708777  0.77729087  0.82808088  1  0.634798  0.003106  3.889404  0.006  0.597553  0.004415  4.187782  0.007  0.640167  0.003708  4.178967  0.007  0.213408  0.566917  0.005262  4.19272  0.008
C  C31  1  0.09554610  0.23891445  0.17419822  1  0.634268  -0.006027  3.913307  -0.007  0.596319  -0.000211  4.213404  -0.001  0.63693  -0.000402  4.202938  -0.001  0.204244  0.567565  6.4e-05  4.219994  -0.002
C  C32  1  0.84459690  0.66801834  0.31481705  1  0.60887  -0.000321  3.902899  0.002  0.567458  -0.00168  4.204663  0.0  0.604947  -0.001427  4.20383  0.0  0.196724  0.541638  -0.001983  4.202991  0.0
C  C33  1  0.14921922  0.31369447  0.67821137  1  0.611219  -0.012749  3.898853  -0.013  0.569049  -0.003705  4.200964  -0.006  0.605713  -0.003334  4.200447  -0.005  0.194724  0.543213  -0.003746  4.198711  -0.007
C  C34  1  0.43576974  0.71079825  0.03161101  1  0.093827  -0.000103  3.588235  0.001  0.065716  0.001428  3.840154  0.002  0.072713  0.000782  3.851884  0.001  0.066823  0.059058  0.001975  3.836392  0.002
C  C35  1  0.56347789  0.28394518  0.96444965  1  0.090564  -0.004819  3.610178  -0.002  0.064853  -0.00165  3.859793  -0.001  0.070926  -0.001559  3.870887  -0.001  0.063072  0.059093  -0.00234  3.85587  -0.001
C  C36  1  0.23005884  0.71036181  0.03251043  1  0.098059  -0.000455  3.597802  0.0  0.07039  0.001352  3.851229  0.002  0.077659  0.000753  3.863262  0.001  0.06662  0.063397  0.001858  3.847645  0.002
C  C37  1  0.76831358  0.28471192  0.96217904  1  0.102282  -0.006322  3.62716  -0.004  0.075492  -0.002174  3.87966  -0.001  0.081962  -0.002087  3.891358  -0.002  0.063333  0.069509  -0.00284  3.875433  -0.001
C  C38  1  0.32525511  0.93897198  0.21811410  1  0.081355  -9.3e-05  3.615141  0.0  0.056695  0.001145  3.864111  0.001  0.06196  0.000568  3.880955  0.001  0.063165  0.051039  0.001708  3.857042  0.002
C  C39  1  0.67165135  0.05647836  0.77516124  1  0.074698  -0.003422  3.654666  -0.002  0.051047  -0.000573  3.903438  0.0  0.056444  -0.000556  3.917654  0.0  0.054386  0.045683  -0.00105  3.89768  0.0
C  C40  1  0.53118984  0.93939404  0.21748123  1  0.079814  -0.000288  3.609324  0.0  0.055061  0.000917  3.855026  0.001  0.060635  0.000389  3.870481  0.0  0.062383  0.049647  0.001391  3.848141  0.001
C  C41  1  0.46660121  0.05533501  0.77720695  1  0.074185  -0.001881  3.649412  0.0  0.051083  -0.000188  3.894991  0.0  0.056359  -0.000247  3.908524  0.0  0.055356  0.045769  -0.000527  3.88985  0.001
N  N42  1  0.58762724  0.82556406  0.12339011  1  -0.19368  0.026331  3.281342  0.035  -0.148713  0.02089  3.555371  0.028  -0.174476  0.017879  3.573886  0.024  -0.301161  -0.133287  0.022767  3.54522  0.03
N  N43  1  0.41320218  0.16873364  0.87266504  1  -0.22024  0.041654  3.319069  0.063  -0.177391  0.031116  3.593762  0.047  -0.19763  0.025933  3.609974  0.04  -0.316541  -0.165229  0.034502  3.58557  0.05
N  N44  1  0.17311356  0.82532532  0.12451811  1  -0.206809  0.025767  3.311908  0.035  -0.166495  0.019491  3.598569  0.026  -0.193287  0.016747  3.616343  0.022  -0.306891  -0.150688  0.021057  3.589677  0.027
N  N45  1  0.82209561  0.17010361  0.86888355  1  -0.233179  0.042252  3.344907  0.064  -0.194339  0.030386  3.63009  0.046  -0.215706  0.025371  3.64604  0.04  -0.318618  -0.181766  0.033719  3.622703  0.049
O  O46  1  0.81212626  0.73333210  0.92564101  1  -0.580266  -0.05073  2.149443  -0.048  -0.55951  -0.033005  2.446829  -0.033  -0.607774  -0.028092  2.43684  -0.028  -0.300459  -0.523295  -0.03346  2.451737  -0.032
O  O47  1  0.19177939  0.28404921  0.07765470  1  -0.612108  0.061195  2.098189  0.097  -0.591533  0.040578  2.384748  0.066  -0.631492  0.030085  2.373775  0.051  -0.314761  -0.561497  0.050157  2.391513  0.078
O  O48  1  0.05651658  0.90871677  0.84077675  1  -0.614877  0.028206  2.156696  0.044  -0.596569  0.020995  2.448813  0.031  -0.633784  0.015985  2.436997  0.024  -0.312964  -0.567904  0.026023  2.455973  0.037
O  O49  1  0.94329980  0.10939800  0.16024748  1  -0.627581  0.005085  2.072699  0.009  -0.606391  0.003417  2.35333  0.006  -0.63863  0.002492  2.338227  0.005  -0.31947  -0.584072  0.004637  2.363932  0.008
O  O50  1  0.80120302  0.55977089  0.20207997  1  -0.597858  -0.005127  1.970792  -0.003  -0.571883  -0.001392  2.223851  0.0  -0.605841  9.9e-05  2.216993  0.002  -0.305288  -0.547092  -0.000272  2.228192  0.002
O  O51  1  0.19034421  0.40620937  0.80060885  1  -0.589637  0.069855  1.964575  0.109  -0.573595  0.043954  2.229602  0.07  -0.618167  0.030048  2.229097  0.05  -0.305148  -0.537708  0.057811  2.227309  0.089
O  O52  1  0.90684752  0.83149412  0.32126504  1  -0.563753  -0.07371  2.001925  -0.07  -0.54767  -0.043283  2.276471  -0.044  -0.600448  -0.035305  2.275522  -0.036  -0.305244  -0.507698  -0.04797  2.273351  -0.048
O  O53  1  0.08348534  0.15064801  0.65757918  1  -0.587213  0.062731  1.987219  0.097  -0.564628  0.042634  2.244547  0.068  -0.606172  0.030756  2.241021  0.051  -0.307985  -0.531948  0.053995  2.244204  0.082
