# generated using pymatgen
data_ZnCuH8C13(NO3)2
_symmetry_space_group_name_H-M   'P 1'
_cell_length_a   10.11700257
_cell_length_b   14.82991592
_cell_length_c   20.00645770
_cell_angle_alpha   89.99923267
_cell_angle_beta   94.89824474
_cell_angle_gamma   90.00013916
_symmetry_Int_Tables_number   1
_chemical_formula_structural   ZnCuH8C13(NO3)2
_chemical_formula_sum   'Zn8 Cu8 H64 C104 N16 O48'
_cell_volume   2990.69251805
_cell_formula_units_Z   8
loop_
 _symmetry_equiv_pos_site_id
 _symmetry_equiv_pos_as_xyz
  1  'x, y, z'
loop_
 _atom_site_type_symbol
 _atom_site_label
 _atom_site_symmetry_multiplicity
 _atom_site_fract_x
 _atom_site_fract_y
 _atom_site_fract_z
 _atom_site_occupancy
 _atom_site_pbe_bader_charge
 _atom_site_pbe_bader_spin_density
 _atom_site_pbe_cm5_charge
 _atom_site_pbe_ddec_charge
 _atom_site_pbe_ddec_spin_density
 _atom_site_pbe_ddec_sum_bond_order
 _atom_site_pbe_magmom
Zn  Zn0  1  0.99319135  0.95777823  0.23408037  1  1.341959  0  0.651532  0.891981  0  2.327027  0
Zn  Zn1  1  0.50680596  0.45777606  0.26591856  1  1.341972  0  0.651542  0.892016  0  2.32704  0
Zn  Zn2  1  0.00680512  0.04222392  0.76591888  1  1.342002  0  0.651524  0.891953  0  2.327046  0
Zn  Zn3  1  0.49319151  0.54222003  0.73408173  1  1.342087  0  0.65154  0.891968  0  2.327049  0
Zn  Zn4  1  0.00488972  0.32836168  0.25246264  1  1.350171  0  0.651611  0.89185  0  2.333199  0
Zn  Zn5  1  0.49510716  0.82835755  0.24753393  1  1.350131  0  0.651606  0.89191  0  2.333124  0
Zn  Zn6  1  0.99510676  0.67164182  0.74753761  1  1.350211  0  0.651572  0.891889  0  2.333229  0
Zn  Zn7  1  0.50489025  0.17163989  0.75246235  1  1.350253  0  0.651582  0.891812  0  2.33323  0
Cu  Cu8  1  0.00947981  0.11065485  0.05958673  1  0.643032  0  0.520455  0.335342  0  2.056346  0
Cu  Cu9  1  0.49051865  0.61065935  0.44041255  1  0.643016  0  0.52043  0.335307  0  2.056348  0
Cu  Cu10  1  0.99052367  0.88934191  0.94041729  1  0.642886  0  0.52048  0.335383  0  2.056356  0
Cu  Cu11  1  0.50947685  0.38934415  0.55958815  1  0.642871  0  0.520452  0.335333  0  2.056425  0
Cu  Cu12  1  0.00208425  0.37344625  0.99448507  1  0.586241  0  0.527615  0.303548  0  1.940738  0
Cu  Cu13  1  0.49791704  0.87344987  0.50551544  1  0.586247  0  0.527638  0.303563  0  1.940811  0
Cu  Cu14  1  0.99792116  0.62654916  0.00551553  1  0.586218  0  0.527632  0.303508  0  1.940783  0
Cu  Cu15  1  0.50208239  0.12655026  0.49448292  1  0.586315  0  0.527642  0.303556  0  1.940849  0
H  H16  1  0.24704186  0.05289808  0.14076985  1  0.104804  0  0.11991  0.103339  0  1.002598  0
H  H17  1  0.25296341  0.55289557  0.35922878  1  0.104737  0  0.1199  0.10332  0  1.002624  0
H  H18  1  0.75296154  0.94710138  0.85922867  1  0.104751  0  0.119924  0.103319  0  1.002589  0
H  H19  1  0.74703406  0.44710524  0.64077101  1  0.104736  0  0.119906  0.103316  0  1.002604  0
H  H20  1  0.47062601  0.99839136  0.11794416  1  0.141347  0  0.111681  0.132789  0  1.031905  0
H  H21  1  0.02937719  0.49838914  0.38205348  1  0.141256  0  0.11168  0.13277  0  1.031908  0
H  H22  1  0.52937539  0.00160675  0.88205328  1  0.141282  0  0.111689  0.132774  0  1.031894  0
H  H23  1  0.97061728  0.50161167  0.61794519  1  0.141338  0  0.111706  0.132825  0  1.031869  0
H  H24  1  0.35337792  0.04155537  0.90668454  1  0.151373  0  0.110332  0.12553  0  1.070382  0
H  H25  1  0.14661667  0.54156087  0.59331250  1  0.151412  0  0.110365  0.125592  0  1.070383  0
H  H26  1  0.64662050  0.95844544  0.09331279  1  0.151401  0  0.110365  0.125549  0  1.070447  0
H  H27  1  0.85337781  0.45844264  0.40668667  1  0.151411  0  0.110357  0.125531  0  1.070437  0
H  H28  1  0.13625187  0.08886266  0.93789117  1  0.127135  0  0.116977  0.091714  0  1.010571  0
H  H29  1  0.36374382  0.58886908  0.56210644  1  0.126977  0  0.116937  0.091692  0  1.010496  0
H  H30  1  0.86374659  0.91113748  0.06210865  1  0.127061  0  0.116962  0.091693  0  1.010557  0
H  H31  1  0.63625165  0.41113510  0.43789227  1  0.127051  0  0.116937  0.091683  0  1.010534  0
H  H32  1  0.83818814  0.16751164  0.94369491  1  0.135473  0  0.114464  0.089533  0  1.026017  0
H  H33  1  0.66180685  0.66751649  0.55630302  1  0.135499  0  0.114426  0.089492  0  1.026043  0
H  H34  1  0.16181835  0.83248445  0.05631123  1  0.135832  0  0.11445  0.089493  0  1.026073  0
H  H35  1  0.33819057  0.33248567  0.44369377  1  0.13546  0  0.11443  0.089512  0  1.026038  0
H  H36  1  0.61597131  0.22865494  0.92349612  1  0.134685  0  0.11414  0.13556  0  1.01632  0
H  H37  1  0.88403076  0.72865372  0.57650297  1  0.134729  0  0.114143  0.135585  0  1.016258  0
H  H38  1  0.38403810  0.77134520  0.07650713  1  0.13486  0  0.114157  0.135566  0  1.016241  0
H  H39  1  0.11596968  0.27134102  0.42349643  1  0.134913  0  0.114157  0.13558  0  1.01632  0
H  H40  1  0.57905943  0.20825732  0.13797229  1  0.104391  0  0.116645  0.127909  0  0.993061  0
H  H41  1  0.92095228  0.70825031  0.36202966  1  0.104259  0  0.11671  0.127999  0  0.992954  0
H  H42  1  0.42095101  0.79174416  0.86203300  1  0.104199  0  0.116644  0.127898  0  0.993046  0
H  H43  1  0.07904615  0.29174847  0.63796816  1  0.104275  0  0.116664  0.127887  0  0.99304  0
H  H44  1  0.80203144  0.14334267  0.14883258  1  0.153185  0  0.122306  0.097542  0  1.002007  0
H  H45  1  0.69797708  0.64334426  0.35116439  1  0.152904  0  0.122316  0.097509  0  1.001973  0
H  H46  1  0.19797302  0.85665544  0.85117098  1  0.153096  0  0.122247  0.097472  0  1.002137  0
H  H47  1  0.30201836  0.35666126  0.64883281  1  0.152759  0  0.122315  0.097563  0  1.002041  0
H  H48  1  0.18126600  0.33643804  0.10674320  1  0.183229  0  0.119524  0.103851  0  1.022211  0
H  H49  1  0.31874289  0.83643705  0.39325926  1  0.183492  0  0.119558  0.103852  0  1.022274  0
H  H50  1  0.81873944  0.66356412  0.89325940  1  0.183464  0  0.119571  0.103855  0  1.022198  0
H  H51  1  0.68125955  0.16355769  0.60674172  1  0.183388  0  0.119512  0.103808  0  1.022259  0
H  H52  1  0.41132916  0.28256924  0.12654805  1  0.117992  0  0.118321  0.134802  0  0.991997  0
H  H53  1  0.08868358  0.78256350  0.37345410  1  0.117948  0  0.118351  0.134879  0  0.992046  0
H  H54  1  0.58868030  0.71743494  0.87345771  1  0.118048  0  0.11835  0.134951  0  0.992011  0
H  H55  1  0.91132379  0.21742854  0.62654508  1  0.117969  0  0.118339  0.134869  0  0.991991  0
H  H56  1  0.41912396  0.26165239  0.90993608  1  0.174253  0  0.114126  0.138198  0  1.035237  0
H  H57  1  0.08088207  0.76164570  0.59006573  1  0.174262  0  0.11416  0.138277  0  1.035291  0
H  H58  1  0.58088448  0.73835247  0.09006814  1  0.174282  0  0.114124  0.138175  0  1.035382  0
H  H59  1  0.91911835  0.23834701  0.40993267  1  0.174207  0  0.11414  0.138201  0  1.035379  0
H  H60  1  0.19446141  0.32038965  0.89926619  1  0.13041  0  0.127685  0.103815  0  0.9624  0
H  H61  1  0.30553977  0.82038921  0.60073435  1  0.130388  0  0.127671  0.103808  0  0.962421  0
H  H62  1  0.80554503  0.67961250  0.10073645  1  0.130489  0  0.127695  0.103809  0  0.96254  0
H  H63  1  0.69446167  0.17960687  0.39926560  1  0.130504  0  0.127697  0.103814  0  0.962419  0
H  H64  1  0.79397756  0.42609212  0.88861082  1  0.126524  0  0.12515  0.104941  0  0.977811  0
H  H65  1  0.70602692  0.92609200  0.61138892  1  0.126851  0  0.125156  0.104975  0  0.977815  0
H  H66  1  0.20602484  0.57390531  0.11138716  1  0.126817  0  0.12514  0.104969  0  0.977687  0
H  H67  1  0.29398149  0.07390611  0.38861330  1  0.126492  0  0.125143  0.10495  0  0.977701  0
H  H68  1  0.56711012  0.47965259  0.88911784  1  0.156741  0  0.115926  0.138692  0  1.034672  0
H  H69  1  0.93289246  0.97965689  0.61088079  1  0.157555  0  0.115937  0.138685  0  1.0347  0
H  H70  1  0.43289622  0.52033946  0.11087880  1  0.157592  0  0.11599  0.138776  0  1.034626  0
H  H71  1  0.06711097  0.02034392  0.38912023  1  0.157606  0  0.115935  0.138713  0  1.03469  0
H  H72  1  0.61722150  0.47372441  0.10717987  1  0.164863  0  0.11506  0.134759  0  1.029022  0
H  H73  1  0.88277585  0.97373364  0.39281940  1  0.164844  0  0.115025  0.13481  0  1.028879  0
H  H74  1  0.38277396  0.52626292  0.89281834  1  0.165124  0  0.11504  0.134827  0  1.028872  0
H  H75  1  0.11721966  0.02627931  0.60718181  1  0.164904  0  0.115037  0.134786  0  1.028991  0
H  H76  1  0.84036620  0.41361105  0.09789136  1  0.170744  0  0.121132  0.108332  0  1.009308  0
H  H77  1  0.65963595  0.91361435  0.40210569  1  0.170725  0  0.121156  0.108308  0  1.009255  0
H  H78  1  0.15963420  0.58638234  0.90210604  1  0.170723  0  0.12113  0.108318  0  1.009232  0
H  H79  1  0.34036349  0.08639320  0.59789318  1  0.170685  0  0.121141  0.108346  0  1.009332  0
C  C80  1  0.02905837  0.14760922  0.20919603  1  1.569034  0  0.1973  0.456962  0  4.205651  0
C  C81  1  0.47094212  0.64760628  0.29080147  1  1.56896  0  0.197229  0.456919  0  4.205767  0
C  C82  1  0.97094410  0.85239227  0.79080695  1  1.569006  0  0.197128  0.457003  0  4.205636  0
C  C83  1  0.52905432  0.35239183  0.70919627  1  1.568971  0  0.197215  0.456954  0  4.205588  0
C  C84  1  0.95886785  0.14192829  0.27592943  1  1.579063  0  0.201165  0.473458  0  4.216734  0
C  C85  1  0.54113076  0.64192653  0.22406768  1  1.578437  0  0.201021  0.473369  0  4.217309  0
C  C86  1  0.04112566  0.85807454  0.72407070  1  1.57889  0  0.201042  0.473283  0  4.217212  0
C  C87  1  0.45886767  0.35807023  0.77593015  1  1.579013  0  0.201165  0.473449  0  4.216869  0
C  C88  1  0.22798358  0.86985020  0.20411665  1  1.581945  0  0.196938  0.461958  0  4.233842  0
C  C89  1  0.27200847  0.36985332  0.29588182  1  1.582147  0  0.196846  0.46184  0  4.233686  0
C  C90  1  0.77200395  0.13014926  0.79588175  1  1.581569  0  0.196818  0.461748  0  4.233741  0
C  C91  1  0.72798903  0.63014749  0.70411996  1  1.582388  0  0.196838  0.461878  0  4.233678  0
C  C92  1  0.26337030  0.92235835  0.27140662  1  1.588818  0  0.200257  0.46395  0  4.212889  0
C  C93  1  0.23661985  0.42236127  0.22859026  1  1.588792  0  0.200221  0.463926  0  4.212803  0
C  C94  1  0.73661821  0.07764246  0.72859082  1  1.588594  0  0.200287  0.464155  0  4.212588  0
C  C95  1  0.76337762  0.57763751  0.77140953  1  1.588746  0  0.200157  0.463805  0  4.212964  0
C  C96  1  0.77021940  0.86621342  0.27650967  1  1.604116  0  0.20125  0.469314  0  4.219995  0
C  C97  1  0.72977674  0.36621239  0.22349011  1  1.604617  0  0.201166  0.469246  0  4.22015  0
C  C98  1  0.22977804  0.13379143  0.72348811  1  1.604643  0  0.201247  0.469337  0  4.220028  0
C  C99  1  0.27022171  0.63379112  0.77650921  1  1.604573  0  0.201263  0.469354  0  4.220131  0
C  C100  1  0.72399289  0.91695062  0.21031399  1  1.580506  0  0.206129  0.468333  0  4.191516  0
C  C101  1  0.77600730  0.41694913  0.28968395  1  1.58007  0  0.206191  0.46836  0  4.191617  0
C  C102  1  0.27600752  0.08305424  0.78968341  1  1.580229  0  0.206199  0.468401  0  4.191345  0
C  C103  1  0.22399313  0.58305438  0.71031496  1  1.580127  0  0.206162  0.468325  0  4.191511  0
C  C104  1  0.27652233  0.04885269  0.08980181  1  0.441566  0  0.039984  0.094455  0  3.896609  0
C  C105  1  0.22348094  0.54885258  0.41019628  1  0.441906  0  0.039986  0.09445  0  3.896615  0
C  C106  1  0.72348008  0.95114542  0.91019717  1  0.44189  0  0.039976  0.09449  0  3.896493  0
C  C107  1  0.77651652  0.45114620  0.58980301  1  0.44187  0  0.039984  0.094449  0  3.896604  0
C  C108  1  0.40143366  0.01935983  0.07607552  1  0.020443  0  -0.078686  -0.16341  0  3.903783  0
C  C109  1  0.09856856  0.51935792  0.42392282  1  0.020223  0  -0.078653  -0.163352  0  3.903876  0
C  C110  1  0.59856973  0.98064165  0.92392250  1  0.020123  0  -0.078663  -0.163352  0  3.903782  0
C  C111  1  0.90142691  0.48064221  0.57607589  1  0.020255  0  -0.078661  -0.163371  0  3.903837  0
C  C112  1  0.43443489  0.01537663  0.00912134  1  -0.043577  0  0.011067  0.100013  0  3.957971  0
C  C113  1  0.06556434  0.51537480  0.49087692  1  -0.043392  0  0.010998  0.099977  0  3.958078  0
C  C114  1  0.56556849  0.98462958  0.99087668  1  -0.08458  0  0.011057  0.099992  0  3.958006  0
C  C115  1  0.93443113  0.48462736  0.50912228  1  -0.084653  0  0.011065  0.100003  0  3.957985  0
C  C116  1  0.33639881  0.04207747  0.95951985  1  -0.01377  0  -0.084308  -0.157849  0  3.920769  0
C  C117  1  0.16359778  0.54207923  0.54047776  1  -0.013927  0  -0.084323  -0.15793  0  3.920774  0
C  C118  1  0.66360260  0.95792604  0.04047809  1  -0.013757  0  -0.084406  -0.157912  0  3.92088  0
C  C119  1  0.83639473  0.45792427  0.45952183  1  -0.013777  0  -0.084383  -0.157861  0  3.920726  0
C  C120  1  0.21297434  0.06968289  0.97679516  1  0.435144  0  0.036092  0.070625  0  3.96421  0
C  C121  1  0.28702231  0.56968585  0.52320268  1  0.4354  0  0.036166  0.070704  0  3.963972  0
C  C122  1  0.78702510  0.93031589  0.02320371  1  0.435146  0  0.036162  0.070717  0  3.964204  0
C  C123  1  0.71297119  0.43031698  0.47679695  1  0.435108  0  0.036193  0.070738  0  3.964009  0
C  C124  1  0.77859666  0.17821390  0.98594720  1  0.457363  0  0.036656  0.068894  0  3.945704  0
C  C125  1  0.72140133  0.67821489  0.51405124  1  0.457373  0  0.036598  0.068758  0  3.945863  0
C  C126  1  0.22140782  0.82178489  0.01405736  1  0.457641  0  0.036777  0.069028  0  3.945765  0
C  C127  1  0.27859809  0.32178525  0.48594663  1  0.457441  0  0.036669  0.068854  0  3.945759  0
C  C128  1  0.65126996  0.21305832  0.97513657  1  -0.055209  0  -0.077756  -0.153707  0  3.901314  0
C  C129  1  0.84873009  0.71305730  0.52486210  1  -0.055165  0  -0.077722  -0.153628  0  3.901242  0
C  C130  1  0.34873648  0.78694046  0.02486657  1  -0.055788  0  -0.077763  -0.153674  0  3.901217  0
C  C131  1  0.15127033  0.28693946  0.47513680  1  -0.055466  0  -0.077745  -0.153722  0  3.901382  0
C  C132  1  0.57380016  0.22604464  0.02946253  1  -0.005777  0  0.011734  0.092714  0  3.961978  0
C  C133  1  0.92620362  0.72604108  0.47053694  1  -0.005745  0  0.011696  0.092666  0  3.962119  0
C  C134  1  0.42620630  0.77395684  0.97054161  1  -0.005617  0  0.01164  0.092608  0  3.962189  0
C  C135  1  0.07379778  0.27395636  0.52946100  1  -0.00578  0  0.011722  0.092767  0  3.962012  0
C  C136  1  0.63101423  0.20028604  0.09297156  1  0.041006  0  -0.06958  -0.143614  0  3.907335  0
C  C137  1  0.86899446  0.70028016  0.40702836  1  0.041047  0  -0.069621  -0.143724  0  3.907482  0
C  C138  1  0.36899222  0.79971611  0.90703208  1  0.041277  0  -0.069508  -0.143487  0  3.907355  0
C  C139  1  0.13100694  0.29971795  0.59296958  1  0.041127  0  -0.069581  -0.143543  0  3.907398  0
C  C140  1  0.75818185  0.16494334  0.10005053  1  0.418646  0  0.052004  0.119088  0  3.886787  0
C  C141  1  0.74182377  0.66494074  0.39994812  1  0.418878  0  0.051972  0.119092  0  3.886853  0
C  C142  1  0.24182262  0.83505612  0.89995303  1  0.418874  0  0.052004  0.119001  0  3.887077  0
C  C143  1  0.25817466  0.33506006  0.60005021  1  0.41862  0  0.051984  0.118965  0  3.886982  0
C  C144  1  0.23797586  0.31877755  0.06472389  1  0.349406  0  0.044061  0.086707  0  3.908157  0
C  C145  1  0.26203199  0.81877300  0.43527770  1  0.34892  0  0.043978  0.086676  0  3.908247  0
C  C146  1  0.76203257  0.68122326  0.93527982  1  0.349474  0  0.043899  0.086666  0  3.908268  0
C  C147  1  0.73797143  0.18121904  0.56472282  1  0.349308  0  0.044042  0.086749  0  3.908234  0
C  C148  1  0.36691073  0.28680570  0.07514046  1  0.024939  0  -0.070145  -0.145321  0  3.884193  0
C  C149  1  0.13309705  0.78679978  0.42486095  1  0.024821  0  -0.070193  -0.145483  0  3.884358  0
C  C150  1  0.63309773  0.71319916  0.92486476  1  0.024255  0  -0.070202  -0.145684  0  3.884391  0
C  C151  1  0.86690536  0.21319361  0.57513803  1  0.024498  0  -0.070181  -0.145419  0  3.884061  0
C  C152  1  0.43780471  0.26314732  0.02026803  1  -0.061592  0  0.018014  0.106321  0  3.946552  0
C  C153  1  0.06219805  0.76314434  0.47973291  1  -0.061613  0  0.018087  0.106486  0  3.946697  0
C  C154  1  0.56220174  0.73685686  0.97973610  1  -0.061776  0  0.01811  0.106483  0  3.946795  0
C  C155  1  0.93780138  0.23685378  0.52026595  1  -0.06127  0  0.018039  0.106334  0  3.946567  0
C  C156  1  0.37292639  0.27620562  0.95598819  1  0.009749  0  -0.074948  -0.155504  0  3.898942  0
C  C157  1  0.12707569  0.77620255  0.54401282  1  0.009845  0  -0.075005  -0.15564  0  3.899203  0
C  C158  1  0.62708105  0.72379856  0.04401549  1  0.010117  0  -0.074953  -0.15543  0  3.899292  0
C  C159  1  0.87292475  0.22379556  0.45598658  1  0.009755  0  -0.07494  -0.155483  0  3.899203  0
C  C160  1  0.24469224  0.30966700  0.94899270  1  0.420424  0  0.045438  0.087928  0  3.922427  0
C  C161  1  0.25530991  0.80966333  0.55100797  1  0.420122  0  0.045474  0.087913  0  3.9225  0
C  C162  1  0.75531420  0.69033786  0.05100993  1  0.419993  0  0.04545  0.08779  0  3.922596  0
C  C163  1  0.74469054  0.19033343  0.44899243  1  0.420303  0  0.045459  0.087905  0  3.922417  0
C  C164  1  0.75110250  0.43567094  0.93619584  1  0.381943  0  0.046842  0.092523  0  3.908819  0
C  C165  1  0.74889703  0.93567580  0.56380360  1  0.381165  0  0.046827  0.092513  0  3.908945  0
C  C166  1  0.24889692  0.56432043  0.06380202  1  0.38124  0  0.046868  0.09258  0  3.908869  0
C  C167  1  0.25110443  0.06432636  0.43619784  1  0.381562  0  0.046879  0.092576  0  3.908656  0
C  C168  1  0.62222471  0.46709987  0.93725165  1  0.088392  0  -0.072065  -0.146646  0  3.882166  0
C  C169  1  0.87777489  0.96710765  0.56274748  1  0.088593  0  -0.072013  -0.146579  0  3.882322  0
C  C170  1  0.37777570  0.53289015  0.06274575  1  0.088608  0  -0.072083  -0.146737  0  3.8824  0
C  C171  1  0.12222557  0.03289586  0.43725342  1  0.088625  0  -0.072005  -0.146573  0  3.882091  0
C  C172  1  0.56826244  0.48255249  0.99865797  1  -0.04117  0  0.016488  0.101788  0  3.941902  0
C  C173  1  0.93173817  0.98255810  0.50134106  1  -0.081586  0  0.016431  0.101642  0  3.942137  0
C  C174  1  0.43173895  0.51744090  0.00133948  1  -0.081548  0  0.016485  0.101656  0  3.942041  0
C  C175  1  0.06826228  0.01744540  0.49865934  1  -0.041657  0  0.016487  0.101718  0  3.941973  0
C  C176  1  0.65013362  0.46355625  0.05735267  1  -0.00117  0  -0.072458  -0.145236  0  3.884907  0
C  C177  1  0.84986669  0.96355981  0.44264682  1  -0.001193  0  -0.072416  -0.145238  0  3.884827  0
C  C178  1  0.34986680  0.53643916  0.94264524  1  -0.002026  0  -0.072472  -0.145275  0  3.884954  0
C  C179  1  0.15013377  0.03644505  0.55735409  1  -0.001271  0  -0.07246  -0.145267  0  3.884941  0
C  C180  1  0.77752653  0.43102081  0.05281391  1  0.374113  0  0.038703  0.077526  0  3.908994  0
C  C181  1  0.72247470  0.93102273  0.44718543  1  0.37412  0  0.038638  0.077511  0  3.909053  0
C  C182  1  0.22247587  0.56897595  0.94718407  1  0.374498  0  0.038638  0.077469  0  3.909173  0
C  C183  1  0.27752477  0.06898145  0.55281593  1  0.374254  0  0.038637  0.07742  0  3.909216  0
N  N184  1  0.18176268  0.07361719  0.04119135  1  -1.228242  0  -0.381574  -0.217055  0  3.749348  0
N  N185  1  0.31823667  0.57361905  0.45880684  1  -1.228313  0  -0.381598  -0.217056  0  3.749246  0
N  N186  1  0.81823874  0.92638025  0.95880809  1  -1.228208  0  -0.381634  -0.217167  0  3.74942  0
N  N187  1  0.68175882  0.42638109  0.54119337  1  -1.228217  0  -0.381609  -0.217125  0  3.749269  0
N  N188  1  0.83341774  0.15449944  0.04784574  1  -1.223518  0  -0.377888  -0.214623  0  3.734488  0
N  N189  1  0.66658190  0.65450118  0.45215177  1  -1.223453  0  -0.377818  -0.214489  0  3.734457  0
N  N190  1  0.16658575  0.84549800  0.95215878  1  -1.223925  0  -0.377938  -0.21456  0  3.734642  0
N  N191  1  0.33341553  0.34550233  0.54784551  1  -1.222948  0  -0.3779  -0.214523  0  3.734545  0
N  N192  1  0.17602111  0.33008021  0.00236640  1  -1.227101  0  -0.38815  -0.216715  0  3.776475  0
N  N193  1  0.32398379  0.83007869  0.49763497  1  -1.226555  0  -0.388136  -0.216663  0  3.776543  0
N  N194  1  0.82398533  0.66992127  0.99763624  1  -1.226696  0  -0.388125  -0.216542  0  3.776426  0
N  N195  1  0.67601864  0.16991740  0.50236502  1  -1.227011  0  -0.388196  -0.216741  0  3.776658  0
N  N196  1  0.82895172  0.41733121  0.99310990  1  -1.238587  0  -0.390362  -0.224161  0  3.802887  0
N  N197  1  0.67104876  0.91733427  0.50688927  1  -1.238565  0  -0.390351  -0.224175  0  3.802971  0
N  N198  1  0.17104968  0.58266420  0.00688805  1  -1.238488  0  -0.390351  -0.224148  0  3.803007  0
N  N199  1  0.32895170  0.08266721  0.49311213  1  -1.238811  0  -0.390368  -0.224169  0  3.802908  0
O  O200  1  0.04045761  0.07451942  0.17658989  1  -1.170467  0  -0.309285  -0.512662  0  2.435354  0
O  O201  1  0.45954571  0.57451318  0.32340845  1  -1.170503  0  -0.309264  -0.512611  0  2.435213  0
O  O202  1  0.95954881  0.92548341  0.82341225  1  -1.17056  0  -0.3092  -0.512625  0  2.435169  0
O  O203  1  0.54044975  0.42548560  0.67658976  1  -1.170506  0  -0.309255  -0.512621  0  2.435177  0
O  O204  1  0.06610633  0.22379731  0.18986929  1  -1.164388  0  -0.306902  -0.508539  0  2.328192  0
O  O205  1  0.43389432  0.72378992  0.31012846  1  -1.164209  0  -0.306841  -0.508532  0  2.328445  0
O  O206  1  0.93389815  0.77620552  0.81013527  1  -1.164391  0  -0.306812  -0.508586  0  2.328386  0
O  O207  1  0.56610211  0.27620887  0.68986828  1  -1.164276  0  -0.306839  -0.508535  0  2.328328  0
O  O208  1  0.92616395  0.06467748  0.29555715  1  -1.158834  0  -0.310845  -0.515392  0  2.316556  0
O  O209  1  0.57383948  0.56467276  0.20444141  1  -1.158299  0  -0.310789  -0.515362  0  2.31658  0
O  O210  1  0.07383355  0.93532603  0.70444464  1  -1.158658  0  -0.310768  -0.515269  0  2.316661  0
O  O211  1  0.42616295  0.43532333  0.79555857  1  -1.158803  0  -0.310837  -0.515411  0  2.316482  0
O  O212  1  0.93803695  0.21581650  0.30496269  1  -1.162512  0  -0.305837  -0.506128  0  2.327912  0
O  O213  1  0.56195982  0.71581125  0.19503311  1  -1.162469  0  -0.305735  -0.506111  0  2.328291  0
O  O214  1  0.06194857  0.78418769  0.69503362  1  -1.162367  0  -0.305735  -0.506085  0  2.328166  0
O  O215  1  0.43804159  0.28418484  0.80496484  1  -1.162515  0  -0.305817  -0.50611  0  2.328093  0
O  O216  1  0.32077854  0.82668707  0.18024316  1  -1.161134  0  -0.305561  -0.502538  0  2.313008  0
O  O217  1  0.17921346  0.32669499  0.31975823  1  -1.16144  0  -0.30552  -0.502452  0  2.312895  0
O  O218  1  0.67921002  0.17330700  0.81975777  1  -1.160985  0  -0.305552  -0.502449  0  2.312885  0
O  O219  1  0.82078602  0.67330717  0.68024413  1  -1.161701  0  -0.305525  -0.502532  0  2.312894  0
O  O220  1  0.10915881  0.87487667  0.17819192  1  -1.159076  0  -0.318317  -0.514371  0  2.278297  0
O  O221  1  0.39083620  0.37487681  0.32180462  1  -1.158896  0  -0.318265  -0.514291  0  2.278208  0
O  O222  1  0.89083068  0.12512347  0.82180456  1  -1.158846  0  -0.318223  -0.51425  0  2.278254  0
O  O223  1  0.60916426  0.62512333  0.67819629  1  -1.158958  0  -0.318263  -0.514246  0  2.278149  0
O  O224  1  0.38187834  0.91881132  0.29769726  1  -1.167493  0  -0.316756  -0.511805  0  2.29449  0
O  O225  1  0.11811576  0.41881588  0.20229931  1  -1.167605  0  -0.316733  -0.511821  0  2.294504  0
O  O226  1  0.61811508  0.08119151  0.70229737  1  -1.167532  0  -0.316671  -0.511865  0  2.294433  0
O  O227  1  0.88188369  0.58118426  0.79770006  1  -1.167572  0  -0.316727  -0.511787  0  2.294521  0
O  O228  1  0.17037317  0.96505014  0.29568202  1  -1.170936  0  -0.305029  -0.506557  0  2.35104  0
O  O229  1  0.32962201  0.46505096  0.20431413  1  -1.170969  0  -0.305046  -0.506562  0  2.350884  0
O  O230  1  0.82961934  0.03495000  0.70431757  1  -1.170836  0  -0.305142  -0.50668  0  2.350914  0
O  O231  1  0.67038137  0.53494041  0.79568339  1  -1.170964  0  -0.30498  -0.506477  0  2.35092  0
O  O232  1  0.68014922  0.83127760  0.30827352  1  -1.162735  0  -0.303073  -0.511635  0  2.326126  0
O  O233  1  0.81984582  0.33127998  0.19172406  1  -1.162752  0  -0.302995  -0.511595  0  2.32617  0
O  O234  1  0.31984522  0.16872658  0.69172315  1  -1.162914  0  -0.303071  -0.511699  0  2.326132  0
O  O235  1  0.18015162  0.66872555  0.80827422  1  -1.162807  0  -0.303111  -0.5117  0  2.326175  0
O  O236  1  0.89385886  0.86470426  0.29372505  1  -1.171326  0  -0.310642  -0.517097  0  2.280796  0
O  O237  1  0.60613436  0.36470063  0.20627813  1  -1.171461  0  -0.31063  -0.517072  0  2.28081  0
O  O238  1  0.10613467  0.13529992  0.70627658  1  -1.171452  0  -0.310632  -0.517064  0  2.280817  0
O  O239  1  0.39386116  0.63529883  0.79372358  1  -1.171377  0  -0.310643  -0.517108  0  2.280915  0
O  O240  1  0.60071953  0.91811117  0.19225678  1  -1.16839  0  -0.302941  -0.497839  0  2.331791  0
O  O241  1  0.89927866  0.41811428  0.30774007  1  -1.168342  0  -0.303022  -0.497912  0  2.331872  0
O  O242  1  0.39927790  0.08188761  0.80774050  1  -1.16836  0  -0.303001  -0.497884  0  2.33181  0
O  O243  1  0.10071879  0.58189395  0.69225822  1  -1.168358  0  -0.302984  -0.497911  0  2.331797  0
O  O244  1  0.81210487  0.95402536  0.17841156  1  -1.167609  0  -0.301577  -0.498165  0  2.364272  0
O  O245  1  0.68789145  0.45401843  0.32158786  1  -1.167642  0  -0.301568  -0.498114  0  2.36422  0
O  O246  1  0.18789160  0.04598489  0.82158819  1  -1.167647  0  -0.301587  -0.498134  0  2.364032  0
O  O247  1  0.31210303  0.54598238  0.67841081  1  -1.167624  0  -0.301556  -0.498098  0  2.364243  0
