# generated using pymatgen
data_Zn2H20C33(NO6)2
_symmetry_space_group_name_H-M   'P 1'
_cell_length_a   9.74138474
_cell_length_b   11.04122332
_cell_length_c   16.05372844
_cell_angle_alpha   93.17816525
_cell_angle_beta   90.44900699
_cell_angle_gamma   91.28362236
_symmetry_Int_Tables_number   1
_chemical_formula_structural   Zn2H20C33(NO6)2
_chemical_formula_sum   'Zn2 H20 C33 N2 O12'
_cell_volume   1723.52809701
_cell_formula_units_Z   1
loop_
 _symmetry_equiv_pos_site_id
 _symmetry_equiv_pos_as_xyz
  1  'x, y, z'
loop_
 _atom_site_type_symbol
 _atom_site_label
 _atom_site_symmetry_multiplicity
 _atom_site_fract_x
 _atom_site_fract_y
 _atom_site_fract_z
 _atom_site_occupancy
 _atom_site_pbe_bader_charge
 _atom_site_pbe_bader_spin_density
 _atom_site_pbe_cm5_charge
 _atom_site_pbe_ddec_charge
 _atom_site_pbe_ddec_spin_density
 _atom_site_pbe_ddec_sum_bond_order
 _atom_site_pbe_magmom
Zn  Zn0  1  0.36034305  0.49077685  0.50105070  1  1.287622  0  0.668213  0.811787  0  2.433538  0
Zn  Zn1  1  0.64674212  0.49723358  0.50179142  1  1.287255  0  0.668977  0.814096  0  2.437995  0
H  H2  1  0.61109541  0.70861722  0.97756329  1  0.085193  0  0.109618  0.104424  0  0.976553  0
H  H3  1  0.18317873  0.10831425  0.45400764  1  0.084265  0  0.109677  0.110104  0  0.956504  0
H  H4  1  0.18144539  0.87640717  0.55253742  1  0.049978  0  0.097228  0.108759  0  1.002728  0
H  H5  1  0.17766509  0.88115108  0.44105785  1  0.042626  0  0.100482  0.115403  0  0.976319  0
H  H6  1  0.86841246  0.40819947  0.38344044  1  0.176651  0  0.137288  0.122436  0  0.968634  0
H  H7  1  0.12773454  0.40109433  0.38432364  1  0.157468  0  0.136226  0.120548  0  0.972053  0
H  H8  1  0.13589765  0.55088079  0.69758534  1  0.09906  0  0.111588  0.140364  0  0.96962  0
H  H9  1  0.14978170  0.69215059  0.64959533  1  0.095972  0  0.114157  0.144519  0  0.963076  0
H  H10  1  0.87770614  0.56239483  0.69461748  1  0.092955  0  0.110413  0.097019  0  0.955802  0
H  H11  1  0.73159188  0.51091816  0.05435388  1  0.103106  0  0.108211  0.100168  0  0.980888  0
H  H12  1  0.61294008  0.34856827  0.92815897  1  0.088211  0  0.106018  0.095119  0  0.982848  0
H  H13  1  0.37571803  0.32289476  0.02840954  1  0.106195  0  0.106373  0.096757  0  0.981635  0
H  H14  1  0.25601394  0.52160520  0.95136824  1  0.074622  0  0.107497  0.10354  0  0.979586  0
H  H15  1  0.72123425  0.88364120  0.49542053  1  0.07859  0  0.103079  0.107308  0  1.007964  0
H  H16  1  0.72464039  0.10957705  0.50624097  1  0.097716  0  0.101109  0.107878  0  1.007335  0
H  H17  1  0.92456925  0.79567403  0.60016165  1  0.02239  0  0.087239  0.114249  0  1.010443  0
H  H18  1  0.76270874  0.73930067  0.63354817  1  0.077292  0  0.09505  0.141734  0  1.012925  0
H  H19  1  0.89063647  0.79001943  0.70868067  1  0.03318  0  0.095855  0.130866  0  0.986578  0
H  H20  1  0.38439108  0.83366015  0.17035979  1  0.624786  0  0.347114  0.383105  0  0.850329  0
H  H21  1  0.02454511  0.21423476  0.62943957  1  0.619954  0  0.341827  0.377888  0  0.855955  0
C  C22  1  0.50089803  0.72832978  0.49051929  1  1.602715  0  0.215177  0.596616  0  4.182066  0
C  C23  1  0.49403018  0.53200585  0.91813161  1  0.092393  0  0.009501  0.125392  0  3.794798  0
C  C24  1  0.42842255  0.40825510  0.01573432  1  -0.052341  0  -0.065392  -0.073536  0  3.625476  0
C  C25  1  0.49534118  0.49704872  0.08628181  1  0.116182  0  0.017892  0.123125  0  3.771717  0
C  C26  1  0.56058901  0.42216840  0.96228423  1  -0.036996  0  -0.066574  -0.072359  0  3.619984  0
C  C27  1  0.62641626  0.51256888  0.03033566  1  -0.040869  0  -0.068076  -0.078699  0  3.638661  0
C  C28  1  0.49766583  0.54306099  0.83075740  1  -0.562716  0  -0.038388  -0.057672  0  4.102858  0
C  C29  1  0.49395099  0.48124309  0.17303035  1  -0.589204  0  -0.039866  -0.061318  0  4.107433  0
C  C30  1  0.38122456  0.92980839  0.49886729  1  0.025636  0  -0.003031  0.067663  0  3.893894  0
C  C31  1  0.50129631  0.86351932  0.49489510  1  -0.068513  0  -0.011878  -0.070484  0  3.963028  0
C  C32  1  0.62517478  0.93243039  0.49826352  1  -0.045432  0  -0.084011  -0.097379  0  3.979048  0
C  C33  1  0.50650650  0.53089795  0.66480739  1  1.611838  0  0.219567  0.665942  0  4.250322  0
C  C34  1  0.62710242  0.05903072  0.50471621  1  0.00189  0  -0.085011  -0.100404  0  3.97614  0
C  C35  1  0.50494621  0.12519125  0.50921432  1  -0.043055  0  -0.009587  -0.060295  0  3.963405  0
C  C36  1  0.38355663  0.05601905  0.50643120  1  -0.023864  0  -0.001491  0.042554  0  3.882767  0
C  C37  1  0.22786761  0.06480180  0.50734955  1  -0.032124  0  -0.073471  -0.153471  0  3.822373  0
C  C38  1  0.22592500  0.92000795  0.49883376  1  0.029445  0  -0.142283  -0.211282  0  3.842546  0
C  C39  1  0.93536361  0.54531570  0.56323668  1  0.589373  0  0.145397  0.152217  0  3.835454  0
C  C40  1  0.92903906  0.44627582  0.43632966  1  0.397866  0  0.067738  0.047221  0  3.859037  0
C  C41  1  0.07202624  0.44173914  0.43702928  1  0.501589  0  0.066909  0.048872  0  3.863944  0
C  C42  1  0.07815773  0.53951469  0.56433125  1  0.510608  0  0.145622  0.199682  0  3.886004  0
C  C43  1  0.09275410  0.60519255  0.64894580  1  -0.042398  0  -0.139801  -0.27738  0  3.806958  0
C  C44  1  0.50661610  0.26033917  0.51311785  1  1.595243  0  0.215824  0.599998  0  4.176985  0
C  C45  1  0.92929533  0.61504107  0.64733216  1  0.018919  0  -0.066761  0.018221  0  3.819601  0
C  C46  1  0.49813798  0.46550897  0.33788494  1  1.652793  0  0.216933  0.667682  0  4.245666  0
C  C47  1  0.42669727  0.60790160  0.04156557  1  -0.006742  0  0.005845  -0.042936  0  3.631993  0
C  C48  1  0.56026478  0.62179714  0.98860116  1  -0.011066  0  -0.059506  -0.080185  0  3.596451  0
C  C49  1  0.50310183  0.54274128  0.75489905  1  0.318486  0  -0.056827  -0.205464  0  4.007723  0
C  C50  1  0.49514347  0.46917964  0.24802005  1  0.322282  0  -0.052485  -0.190422  0  3.99229  0
C  C51  1  0.36184535  0.51752665  0.97396527  1  -0.004636  0  -0.065386  -0.088281  0  3.613491  0
C  C52  1  0.87316271  0.74270430  0.64742232  1  -0.052208  0  -0.236806  -0.38199  0  3.935938  0
C  C53  1  0.35277484  0.70495743  0.08889482  1  1.469506  0  0.227385  0.576033  0  4.138863  0
C  C54  1  0.16636250  0.11472001  0.58776172  1  1.505974  0  0.231791  0.614967  0  4.069013  0
N  N55  1  0.85750790  0.49927191  0.50041167  1  -1.217273  0  -0.289048  -0.171254  0  3.465181  0
N  N56  1  0.14985004  0.48886277  0.50212769  1  -1.213007  0  -0.289167  -0.180437  0  3.471232  0
O  O57  1  0.38451158  0.67362748  0.48305038  1  -1.154724  0  -0.315683  -0.538477  0  2.296094  0
O  O58  1  0.61701405  0.67807673  0.49599755  1  -1.163476  0  -0.315529  -0.547586  0  2.349647  0
O  O59  1  0.39090359  0.53232630  0.62718455  1  -1.146822  0  -0.308304  -0.540627  0  2.292075  0
O  O60  1  0.62377009  0.51834541  0.63129085  1  -1.147772  0  -0.307453  -0.542  0  2.276059  0
O  O61  1  0.39027595  0.31083850  0.51867896  1  -1.156312  0  -0.313704  -0.540166  0  2.312686  0
O  O62  1  0.62293410  0.31455923  0.50902909  1  -1.16097  0  -0.318962  -0.546737  0  2.330363  0
O  O63  1  0.38251692  0.45529383  0.37386984  1  -1.149821  0  -0.315426  -0.549261  0  2.269589  0
O  O64  1  0.61593832  0.47496873  0.37294231  1  -1.149108  0  -0.312619  -0.545851  0  2.259794  0
O  O65  1  0.22880459  0.71943834  0.08692825  1  -1.097108  0  -0.305253  -0.497575  0  2.032565  0
O  O66  1  0.44086475  0.77603620  0.13799400  1  -1.10941  0  -0.33954  -0.487185  0  2.191793  0
O  O67  1  0.20035498  0.08850657  0.65763258  1  -1.141425  0  -0.305799  -0.501947  0  2.034396  0
O  O68  1  0.06051697  0.19099892  0.57406536  1  -1.128433  0  -0.345703  -0.501594  0  2.200958  0
