# generated using pymatgen
data_ZnH20C26(N3O5)2
_symmetry_space_group_name_H-M   'P 1'
_cell_length_a   9.49383027
_cell_length_b   10.32886952
_cell_length_c   14.29455640
_cell_angle_alpha   109.37850254
_cell_angle_beta   94.67455546
_cell_angle_gamma   103.97233763
_symmetry_Int_Tables_number   1
_chemical_formula_structural   ZnH20C26(N3O5)2
_chemical_formula_sum   'Zn2 H40 C52 N12 O20'
_cell_volume   1263.04080932
_cell_formula_units_Z   2
loop_
 _symmetry_equiv_pos_site_id
 _symmetry_equiv_pos_as_xyz
  1  'x, y, z'
loop_
 _atom_site_type_symbol
 _atom_site_label
 _atom_site_symmetry_multiplicity
 _atom_site_fract_x
 _atom_site_fract_y
 _atom_site_fract_z
 _atom_site_occupancy
 _atom_site_hle17_bader_spin_density
 _atom_site_hle17_ddec_charge
 _atom_site_hle17_ddec_spin_density
 _atom_site_hle17_ddec_sum_bond_order
 _atom_site_hle17_magmom
 _atom_site_hse06_10hf_bader_spin_density
 _atom_site_hse06_10hf_ddec_charge
 _atom_site_hse06_10hf_ddec_spin_density
 _atom_site_hse06_10hf_ddec_sum_bond_order
 _atom_site_hse06_10hf_magmom
 _atom_site_hse06_bader_spin_density
 _atom_site_hse06_ddec_charge
 _atom_site_hse06_ddec_spin_density
 _atom_site_hse06_ddec_sum_bond_order
 _atom_site_hse06_magmom
 _atom_site_pbe_bader_spin_density
 _atom_site_pbe_cm5_charge
 _atom_site_pbe_ddec_charge
 _atom_site_pbe_ddec_spin_density
 _atom_site_pbe_ddec_sum_bond_order
 _atom_site_pbe_magmom
Zn  Zn0  1  0.89549995  0.14067394  0.11284311  1  0  1.097876  0  1.764235  0  0  0.915582  0  2.218467  0  0  0.964362  0  2.162216  0  0  0.708577  0.88169  0  2.257046  0
Zn  Zn1  1  0.10450191  0.85932640  0.88715846  1  0  1.097903  0  1.764279  0  0  0.915625  0  2.218521  0  0  0.964412  0  2.162262  0  0  0.708596  0.881731  0  2.257114  0
H  H2  1  0.43137949  0.50519112  0.57259911  1  0  0.338388  0  0.922608  0  0  0.320772  0  0.982231  0  0  0.329929  0  0.974737  0  0  0.296923  0.314338  0  0.987455  0
H  H3  1  0.56862083  0.49481460  0.42740369  1  0  0.338411  0  0.92251  0  0  0.320805  0  0.982118  0  0  0.329961  0  0.974624  0  0  0.296947  0.314373  0  0.987344  0
H  H4  1  0.24488958  0.44762897  0.58385438  1  0  0.343635  0  0.918505  0  0  0.323215  0  0.986221  0  0  0.33179  0  0.979094  0  0  0.298467  0.317225  0  0.991103  0
H  H5  1  0.75511011  0.55237460  0.41614927  1  0  0.343637  0  0.91847  0  0  0.323236  0  0.986165  0  0  0.331811  0  0.979038  0  0  0.298476  0.317247  0  0.991042  0
H  H6  1  0.30079877  0.70924292  0.69270047  1  0  0.346855  0  0.918516  0  0  0.325237  0  0.983388  0  0  0.335207  0  0.974788  0  0  0.293398  0.318126  0  0.989587  0
H  H7  1  0.69919993  0.29075745  0.30730095  1  0  0.346837  0  0.918538  0  0  0.325232  0  0.983398  0  0  0.3352  0  0.9748  0  0  0.293401  0.31812  0  0.989597  0
H  H8  1  0.48660384  0.75289677  0.67449065  1  0  0.33699  0  0.933687  0  0  0.314836  0  1.003956  0  0  0.323205  0  0.997021  0  0  0.297468  0.30901  0  1.00862  0
H  H9  1  0.51339622  0.24710466  0.32551039  1  0  0.337015  0  0.93361  0  0  0.314826  0  1.003931  0  0  0.323193  0  0.996996  0  0  0.297465  0.309001  0  1.008594  0
H  H10  1  0.08576935  0.59443503  0.47341022  1  0  0.108732  0  0.957137  0  0  0.111755  0  1.02905  0  0  0.116059  0  1.02643  0  0  0.103298  0.108548  0  1.03108  0
H  H11  1  0.91424324  0.40555879  0.52659097  1  0  0.108738  0  0.957192  0  0  0.111786  0  1.029041  0  0  0.116075  0  1.026445  0  0  0.10331  0.108578  0  1.031068  0
H  H12  1  0.34013857  0.76464185  0.53047076  1  0  0.115337  0  0.964774  0  0  0.118981  0  1.034992  0  0  0.123019  0  1.032173  0  0  0.109372  0.116089  0  1.0371  0
H  H13  1  0.65987404  0.23534877  0.46952475  1  0  0.115266  0  0.964818  0  0  0.119008  0  1.034935  0  0  0.12305  0  1.03211  0  0  0.109398  0.116112  0  1.037043  0
H  H14  1  0.38893681  0.68547521  0.22184709  1  0  0.105695  0  0.971348  0  0  0.112567  0  1.036564  0  0  0.115687  0  1.034884  0  0  0.108759  0.110367  0  1.037535  0
H  H15  1  0.61105661  0.31452200  0.77814702  1  0  0.105739  0  0.97128  0  0  0.112597  0  1.036509  0  0  0.115718  0  1.034827  0  0  0.108788  0.110402  0  1.037483  0
H  H16  1  0.13196269  0.51470367  0.16403744  1  0  0.126083  0  0.929142  0  0  0.1308  0  0.993787  0  0  0.135067  0  0.99075  0  0  0.113355  0.127744  0  0.99606  0
H  H17  1  0.86803616  0.48529026  0.83596102  1  0  0.126095  0  0.929224  0  0  0.130839  0  0.993842  0  0  0.135108  0  0.990801  0  0  0.113392  0.127779  0  0.996113  0
H  H18  1  0.35341122  0.37524351  0.21065358  1  0  0.103167  0  0.967453  0  0  0.108974  0  1.035522  0  0  0.112596  0  1.033404  0  0  0.103436  0.106468  0  1.036841  0
H  H19  1  0.64658903  0.62475148  0.78934660  1  0  0.103231  0  0.967406  0  0  0.108994  0  1.035542  0  0  0.112617  0  1.033424  0  0  0.103441  0.106482  0  1.03686  0
H  H20  1  0.61115165  0.53583906  0.24589449  1  0  0.11544  0  0.949223  0  0  0.120131  0  1.016224  0  0  0.124438  0  1.012918  0  0  0.109672  0.117134  0  1.018475  0
H  H21  1  0.38884514  0.46416563  0.75410509  1  0  0.115398  0  0.949257  0  0  0.12012  0  1.016217  0  0  0.124428  0  1.01291  0  0  0.109661  0.117124  0  1.018472  0
H  H22  1  0.64317062  0.35440087  0.93443398  1  0  0.108899  0  0.959745  0  0  0.116698  0  1.023867  0  0  0.119857  0  1.022259  0  0  0.109913  0.114437  0  1.024966  0
H  H23  1  0.35682544  0.64560490  0.06556583  1  0  0.108998  0  0.959772  0  0  0.116723  0  1.023971  0  0  0.119877  0  1.022373  0  0  0.109953  0.114471  0  1.025041  0
H  H24  1  0.38171709  0.19507314  0.89803441  1  0  0.113765  0  0.946755  0  0  0.119927  0  1.011334  0  0  0.123923  0  1.008617  0  0  0.107356  0.116966  0  1.013622  0
H  H25  1  0.61827885  0.80492510  0.10196566  1  0  0.113766  0  0.946742  0  0  0.119908  0  1.011348  0  0  0.123905  0  1.008631  0  0  0.107367  0.116961  0  1.013621  0
H  H26  1  0.16782159  0.27116218  0.26146605  1  0  0.092  0  0.977467  0  0  0.095765  0  1.05033  0  0  0.099199  0  1.046637  0  0  0.11954  0.093265  0  1.053082  0
H  H27  1  0.83218233  0.72884136  0.73853849  1  0  0.091912  0  0.977474  0  0  0.095702  0  1.050313  0  0  0.099137  0  1.046618  0  0  0.119519  0.093207  0  1.053064  0
H  H28  1  0.09986828  0.19412683  0.53536368  1  0  0.105757  0  0.925201  0  0  0.118964  0  0.979935  0  0  0.121641  0  0.978089  0  0  0.115496  0.117048  0  0.981273  0
H  H29  1  0.90013109  0.80587567  0.46463969  1  0  0.105729  0  0.925161  0  0  0.118933  0  0.97992  0  0  0.121608  0  0.978077  0  0  0.115482  0.117017  0  0.981261  0
H  H30  1  0.85154051  0.02234465  0.44017004  1  0  0.106729  0  0.965802  0  0  0.109882  0  1.034783  0  0  0.113862  0  1.033008  0  0  0.105633  0.107026  0  1.036193  0
H  H31  1  0.14845988  0.97765785  0.55983128  1  0  0.106712  0  0.965817  0  0  0.109863  0  1.034795  0  0  0.113846  0  1.033016  0  0  0.105622  0.10699  0  1.03622  0
H  H32  1  0.77529391  0.99125896  0.26159421  1  0  0.093481  0  0.939068  0  0  0.101094  0  1.002759  0  0  0.103597  0  0.99983  0  0  0.122476  0.09921  0  1.005068  0
H  H33  1  0.22470929  0.00874246  0.73840488  1  0  0.093461  0  0.939057  0  0  0.101081  0  1.002743  0  0  0.103585  0  0.999814  0  0  0.122456  0.099196  0  1.005052  0
H  H34  1  0.60018271  0.99921143  0.98463937  1  0  0.088003  0  0.996168  0  0  0.094201  0  1.064464  0  0  0.097143  0  1.061693  0  0  0.119114  0.092028  0  1.066575  0
H  H35  1  0.39981671  0.00078786  0.01536113  1  0  0.088  0  0.996183  0  0  0.094193  0  1.064484  0  0  0.097136  0  1.061711  0  0  0.119117  0.092021  0  1.066594  0
H  H36  1  0.64057082  0.98798494  0.68365874  1  0  0.108067  0  0.947929  0  0  0.117432  0  1.011261  0  0  0.120241  0  1.008927  0  0  0.10895  0.115407  0  1.013058  0
H  H37  1  0.35942575  0.01201545  0.31634119  1  0  0.108088  0  0.947896  0  0  0.117458  0  1.011231  0  0  0.120266  0  1.008898  0  0  0.108957  0.11544  0  1.013009  0
H  H38  1  0.89328892  0.16466347  0.75818583  1  0  0.110324  0  0.946466  0  0  0.119704  0  1.003648  0  0  0.122864  0  1.003646  0  0  0.108237  0.11754  0  1.003613  0
H  H39  1  0.10670871  0.83533691  0.24181414  1  0  0.110318  0  0.946415  0  0  0.119694  0  1.003606  0  0  0.122858  0  1.003595  0  0  0.108256  0.117532  0  1.003574  0
H  H40  1  0.98200807  0.24883031  0.94157960  1  0  0.088968  0  0.970903  0  0  0.092009  0  1.041387  0  0  0.095238  0  1.037297  0  0  0.117645  0.089658  0  1.044478  0
H  H41  1  0.01799099  0.75116792  0.05841783  1  0  0.088941  0  0.970943  0  0  0.091981  0  1.041429  0  0  0.095213  0  1.037334  0  0  0.117639  0.089631  0  1.04452  0
C  C42  1  0.94138920  0.43937517  0.28079476  1  0  0.651175  0  3.920058  0  0  0.594096  0  4.229888  0  0  0.627779  0  4.22223  0  0  0.205628  0.571335  0  4.234225  0
C  C43  1  0.05860993  0.56062304  0.71920825  1  0  0.651119  0  3.92008  0  0  0.59409  0  4.22982  0  0  0.627769  0  4.222161  0  0  0.205593  0.571327  0  4.234155  0
C  C44  1  0.09324132  0.54596811  0.31522167  1  0  -0.037514  0  3.695682  0  0  -0.021151  0  3.934644  0  0  -0.02597  0  3.95601  0  0  -0.004364  -0.017765  0  3.920225  0
C  C45  1  0.90676070  0.45402579  0.68477764  1  0  -0.037414  0  3.695781  0  0  -0.021071  0  3.934699  0  0  -0.025886  0  3.956059  0  0  -0.004389  -0.017685  0  3.920279  0
C  C46  1  0.15163167  0.61587099  0.41844476  1  0  -0.069792  0  3.711885  0  0  -0.091715  0  3.962636  0  0  -0.094259  0  3.983503  0  0  -0.081319  -0.089562  0  3.94836  0
C  C47  1  0.84837562  0.38412288  0.58155409  1  0  -0.069892  0  3.711962  0  0  -0.091826  0  3.962737  0  0  -0.094364  0  3.983594  0  0  -0.081368  -0.089674  0  3.948459  0
C  C48  1  0.29333297  0.70970284  0.45083207  1  0  -0.082736  0  3.700473  0  0  -0.106795  0  3.955882  0  0  -0.106516  0  3.974125  0  0  -0.07919  -0.107537  0  3.943904  0
C  C49  1  0.70667102  0.29029428  0.54916392  1  0  -0.082709  0  3.700521  0  0  -0.106881  0  3.955941  0  0  -0.106601  0  3.974177  0  0  -0.079245  -0.107614  0  3.943957  0
C  C50  1  0.37570335  0.73252251  0.37820690  1  0  0.073127  0  3.712494  0  0  0.056577  0  3.960801  0  0  0.053508  0  3.983971  0  0  0.073984  0.058714  0  3.945261  0
C  C51  1  0.62429591  0.26748002  0.62178878  1  0  0.073162  0  3.712551  0  0  0.05664  0  3.960812  0  0  0.053577  0  3.983982  0  0  0.07394  0.058775  0  3.945274  0
C  C52  1  0.31989563  0.66456477  0.27515600  1  0  -0.102421  0  3.745694  0  0  -0.125162  0  4.002028  0  0  -0.126319  0  4.023069  0  0  -0.077202  -0.123748  0  3.987109  0
C  C53  1  0.68010098  0.33543241  0.72483965  1  0  -0.1024  0  3.745692  0  0  -0.125147  0  4.002014  0  0  -0.126303  0  4.023049  0  0  -0.07721  -0.123736  0  3.987098  0
C  C54  1  0.17821746  0.57082250  0.24381580  1  0  -0.052566  0  3.686616  0  0  -0.075514  0  3.94027  0  0  -0.076921  0  3.959034  0  0  -0.072149  -0.075333  0  3.92797  0
C  C55  1  0.82178277  0.42917249  0.75618299  1  0  -0.052558  0  3.686744  0  0  -0.075535  0  3.940369  0  0  -0.076937  0  3.959126  0  0  -0.0721  -0.075354  0  3.928068  0
C  C56  1  0.19323856  0.18397921  0.02897769  1  0  0.661869  0  3.895605  0  0  0.605754  0  4.19874  0  0  0.640457  0  4.190562  0  0  0.214072  0.582007  0  4.203425  0
C  C57  1  0.80676130  0.81601793  0.97102440  1  0  0.661976  0  3.895564  0  0  0.605853  0  4.198711  0  0  0.640557  0  4.190531  0  0  0.214105  0.582103  0  4.203397  0
C  C58  1  0.35042021  0.27827573  0.05147822  1  0  -0.042038  0  3.695829  0  0  -0.025014  0  3.934624  0  0  -0.030914  0  3.956924  0  0  -0.007242  -0.02053  0  3.919122  0
C  C59  1  0.64958038  0.72172033  0.94852365  1  0  -0.042105  0  3.695931  0  0  -0.025047  0  3.934671  0  0  -0.030946  0  3.956965  0  0  -0.007155  -0.020561  0  3.919168  0
C  C60  1  0.41577793  0.37220788  0.14987694  1  0  -0.060526  0  3.711702  0  0  -0.08229  0  3.962091  0  0  -0.083973  0  3.982989  0  0  -0.079396  -0.080997  0  3.94754  0
C  C61  1  0.58422117  0.62779034  0.85012398  1  0  -0.060613  0  3.711814  0  0  -0.08235  0  3.962154  0  0  -0.084035  0  3.983055  0  0  -0.079439  -0.081053  0  3.947592  0
C  C62  1  0.55917576  0.46097218  0.17036463  1  0  -0.085914  0  3.704176  0  0  -0.110982  0  3.960981  0  0  -0.11145  0  3.978837  0  0  -0.077558  -0.111108  0  3.949194  0
C  C63  1  0.44082219  0.53902927  0.82963562  1  0  -0.085898  0  3.704314  0  0  -0.110984  0  3.961116  0  0  -0.111456  0  3.978971  0  0  -0.077566  -0.111107  0  3.949328  0
C  C64  1  0.63713428  0.45339268  0.09111878  1  0  0.085144  0  3.712694  0  0  0.071766  0  3.960241  0  0  0.06981  0  3.982953  0  0  0.081037  0.072777  0  3.945288  0
C  C65  1  0.36286228  0.54660771  0.90888045  1  0  0.085219  0  3.712625  0  0  0.071828  0  3.960232  0  0  0.06988  0  3.982928  0  0  0.081028  0.072839  0  3.945282  0
C  C66  1  0.57661177  0.35783471  0.99308305  1  0  -0.092249  0  3.720277  0  0  -0.11933  0  3.980929  0  0  -0.120519  0  4.001842  0  0  -0.078497  -0.117861  0  3.966542  0
C  C67  1  0.42338333  0.64216783  0.00691663  1  0  -0.092395  0  3.720159  0  0  -0.119411  0  3.980829  0  0  -0.120603  0  4.001738  0  0  -0.078528  -0.117947  0  3.966451  0
C  C68  1  0.43262675  0.27081158  0.97354914  1  0  -0.060086  0  3.703443  0  0  -0.085202  0  3.960383  0  0  -0.086907  0  3.980677  0  0  -0.07983  -0.084357  0  3.946854  0
C  C69  1  0.56737024  0.72918666  0.02645099  1  0  -0.060016  0  3.703328  0  0  -0.085126  0  3.960245  0  0  -0.086829  0  3.980537  0  0  -0.079851  -0.08429  0  3.946707  0
C  C70  1  0.10124852  0.21899711  0.30428215  1  0  0.119617  0  3.676856  0  0  0.077509  0  3.921698  0  0  0.085371  0  3.940044  0  0  0.055707  0.072537  0  3.909326  0
C  C71  1  0.89875506  0.78100536  0.69572141  1  0  0.119831  0  3.676648  0  0  0.077742  0  3.921415  0  0  0.085607  0  3.939754  0  0  0.055776  0.072766  0  3.909046  0
C  C72  1  0.15365430  0.24465238  0.40467264  1  0  -0.114569  0  3.757513  0  0  -0.085335  0  3.992416  0  0  -0.097793  0  4.016938  0  0  -0.00812  -0.077037  0  3.975764  0
C  C73  1  0.84634507  0.75535012  0.59533143  1  0  -0.114731  0  3.757572  0  0  -0.08543  0  3.992376  0  0  -0.097888  0  4.016898  0  0  -0.008134  -0.077131  0  3.975723  0
C  C74  1  0.06322693  0.17531485  0.45641658  1  0  -0.01318  0  3.687231  0  0  -0.041869  0  3.929706  0  0  -0.036397  0  3.947929  0  0  -0.056583  -0.04539  0  3.916935  0
C  C75  1  0.93677348  0.82468765  0.54358614  1  0  -0.01306  0  3.687181  0  0  -0.041789  0  3.92964  0  0  -0.036317  0  3.94787  0  0  -0.056577  -0.045309  0  3.916864  0
C  C76  1  0.92639318  0.08051054  0.40436333  1  0  -0.12413  0  3.720292  0  0  -0.131907  0  3.971693  0  0  -0.141478  0  3.994235  0  0  -0.081703  -0.125355  0  3.956179  0
C  C77  1  0.07360867  0.91948980  0.59563754  1  0  -0.124179  0  3.720222  0  0  -0.131941  0  3.971594  0  0  -0.141512  0  3.994134  0  0  -0.081695  -0.125373  0  3.956086  0
C  C78  1  0.88204437  0.06243994  0.30433002  1  0  0.160893  0  3.635902  0  0  0.123372  0  3.888104  0  0  0.132843  0  3.904341  0  0  0.06214  0.117323  0  3.877196  0
C  C79  1  0.11795886  0.93756147  0.69567117  1  0  0.160961  0  3.635734  0  0  0.123456  0  3.88794  0  0  0.132928  0  3.904172  0  0  0.062171  0.117407  0  3.87703  0
C  C80  1  0.30363052  0.34600363  0.44904532  1  0  0.628991  0  3.851891  0  0  0.572661  0  4.149156  0  0  0.602875  0  4.149203  0  0  0.24487  0.552365  0  4.148296  0
C  C81  1  0.69637126  0.65399994  0.55095772  1  0  0.62907  0  3.851777  0  0  0.572731  0  4.149022  0  0  0.602945  0  4.149069  0  0  0.244894  0.552432  0  4.148165  0
C  C82  1  0.65979374  0.03354459  0.93131574  1  0  0.113705  0  3.683277  0  0  0.073187  0  3.924962  0  0  0.081062  0  3.943706  0  0  0.049863  0.068059  0  3.912805  0
C  C83  1  0.34020640  0.96645363  0.06868382  1  0  0.113716  0  3.6833  0  0  0.0732  0  3.92499  0  0  0.081073  0  3.943733  0  0  0.049867  0.06807  0  3.912835  0
C  C84  1  0.59776885  0.98445040  0.82961241  1  0  -0.112527  0  3.747475  0  0  -0.082738  0  3.980132  0  0  -0.095233  0  4.004856  0  0  -0.010043  -0.074264  0  3.963236  0
C  C85  1  0.40222952  0.01554890  0.17038804  1  0  -0.11252  0  3.74748  0  0  -0.082712  0  3.980096  0  0  -0.095205  0  4.004821  0  0  -0.010039  -0.074241  0  3.96321  0
C  C86  1  0.68356227  0.02701933  0.76412447  1  0  -0.022026  0  3.689359  0  0  -0.052556  0  3.938314  0  0  -0.046974  0  3.956436  0  0  -0.063344  -0.056146  0  3.925667  0
C  C87  1  0.31643398  0.97297999  0.23587518  1  0  -0.022131  0  3.689428  0  0  -0.052686  0  3.938404  0  0  -0.047099  0  3.956512  0  0  -0.06338  -0.05627  0  3.925762  0
C  C88  1  0.82324927  0.12382874  0.80469916  1  0  -0.112907  0  3.71532  0  0  -0.123987  0  3.970778  0  0  -0.13296  0  3.992717  0  0  -0.081154  -0.117848  0  3.955944  0
C  C89  1  0.17674803  0.87617057  0.19530054  1  0  -0.11287  0  3.71521  0  0  -0.12395  0  3.970661  0  0  -0.132919  0  3.9926  0  0  -0.081214  -0.117815  0  3.955828  0
C  C90  1  0.87540501  0.17051086  0.90767800  1  0  0.164285  0  3.639557  0  0  0.125731  0  3.896748  0  0  0.136111  0  3.910721  0  0  0.057992  0.118773  0  3.887869  0
C  C91  1  0.12459512  0.82948736  0.09232087  1  0  0.164325  0  3.639532  0  0  0.125793  0  3.896708  0  0  0.136174  0  3.910676  0  0  0.058061  0.118836  0  3.88783  0
C  C92  1  0.44078823  0.89306363  0.79857200  1  0  0.62351  0  3.851046  0  0  0.573179  0  4.137088  0  0  0.603547  0  4.136838  0  0  0.24497  0.552361  0  4.137051  0
C  C93  1  0.55921151  0.10693673  0.20142877  1  0  0.62354  0  3.851046  0  0  0.573223  0  4.137059  0  0  0.603591  0  4.136811  0  0  0.244997  0.552397  0  4.137035  0
N  N94  1  0.52549944  0.82978798  0.41034518  1  0  0.468648  0  3.955231  0  0  0.528116  0  4.213167  0  0  0.549878  0  4.220275  0  0  0.054509  0.513478  0  4.208544  0
N  N95  1  0.47449864  0.17021779  0.58964843  1  0  0.468502  0  3.955359  0  0  0.527997  0  4.213328  0  0  0.549755  0  4.22044  0  0  0.054468  0.51336  0  4.208705  0
N  N96  1  0.78544423  0.55134247  0.11053736  1  0  0.481285  0  3.933716  0  0  0.535026  0  4.191647  0  0  0.556373  0  4.199474  0  0  0.058235  0.520817  0  4.186223  0
N  N97  1  0.21455411  0.44865684  0.88946099  1  0  0.481319  0  3.933699  0  0  0.535005  0  4.191728  0  0  0.55635  0  4.199553  0  0  0.058249  0.520796  0  4.186304  0
N  N98  1  0.96714847  0.13296694  0.25566916  1  0  -0.311991  0  3.266299  0  0  -0.227088  0  3.52534  0  0  -0.246628  0  3.541567  0  0  -0.313891  -0.213993  0  3.514271  0
N  N99  1  0.03285583  0.86703446  0.74433278  1  0  -0.312022  0  3.266168  0  0  -0.227228  0  3.525308  0  0  -0.246767  0  3.541531  0  0  -0.313898  -0.214136  0  3.514246  0
N  N100  1  0.33042467  0.42762322  0.54681291  1  0  -0.678318  0  3.076143  0  0  -0.640894  0  3.313106  0  0  -0.665679  0  3.308511  0  0  -0.566111  -0.623792  0  3.315812  0
N  N101  1  0.66957501  0.57238036  0.45319004  1  0  -0.678368  0  3.075987  0  0  -0.640977  0  3.312944  0  0  -0.665761  0  3.308346  0  0  -0.566153  -0.623876  0  3.315651  0
N  N102  1  0.79665582  0.12201244  0.96964381  1  0  -0.320448  0  3.25798  0  0  -0.235263  0  3.523955  0  0  -0.255406  0  3.538728  0  0  -0.317196  -0.222036  0  3.513878  0
N  N103  1  0.20334433  0.87798578  0.03035575  1  0  -0.320445  0  3.258062  0  0  -0.235288  0  3.524046  0  0  -0.255433  0  3.538828  0  0  -0.31722  -0.222064  0  3.513965  0
N  N104  1  0.40433435  0.78369996  0.71036803  1  0  -0.684944  0  3.096953  0  0  -0.644495  0  3.335989  0  0  -0.668866  0  3.330188  0  0  -0.566921  -0.627777  0  3.339917  0
N  N105  1  0.59566538  0.21630041  0.28963204  1  0  -0.684963  0  3.096927  0  0  -0.644501  0  3.336003  0  0  -0.668872  0  3.330205  0  0  -0.566915  -0.627782  0  3.339933  0
O  O106  1  0.86084660  0.43627853  0.34735859  1  0  -0.638935  0  1.980161  0  0  -0.581951  0  2.207091  0  0  -0.606129  0  2.199095  0  0  -0.319176  -0.565005  0  2.211968  0
O  O107  1  0.13915765  0.56372608  0.65264763  1  0  -0.638984  0  1.980163  0  0  -0.581989  0  2.207022  0  0  -0.606164  0  2.199027  0  0  -0.319149  -0.565042  0  2.211898  0
O  O108  1  0.90621120  0.35886856  0.18828528  1  0  -0.64781  0  2.057973  0  0  -0.594201  0  2.338288  0  0  -0.620929  0  2.326143  0  0  -0.328814  -0.575358  0  2.345671  0
O  O109  1  0.09378192  0.64113077  0.81171702  1  0  -0.647798  0  2.058063  0  0  -0.594126  0  2.338188  0  0  -0.620891  0  2.32613  0  0  -0.328788  -0.575283  0  2.34557  0
O  O110  1  0.59462706  0.85188617  0.34419003  1  0  -0.358623  0  1.754089  0  0  -0.347557  0  1.945939  0  0  -0.35952  0  1.941871  0  0  -0.128404  -0.339941  0  1.9494  0
O  O111  1  0.40537708  0.14810452  0.65580230  1  0  -0.358688  0  1.753921  0  0  -0.34761  0  1.945804  0  0  -0.359572  0  1.941736  0  0  -0.128442  -0.339994  0  1.949264  0
O  O112  1  0.57742438  0.88565971  0.50203730  1  0  -0.367528  0  1.776132  0  0  -0.364818  0  1.980837  0  0  -0.376796  0  1.977039  0  0  -0.138554  -0.357083  0  1.983608  0
O  O113  1  0.42256721  0.11436329  0.49795669  1  0  -0.36734  0  1.776384  0  0  -0.364679  0  1.981081  0  0  -0.376686  0  1.977341  0  0  -0.138452  -0.356941  0  1.983844  0
O  O114  1  0.14830181  0.08581126  0.94278435  1  0  -0.648445  0  2.09216  0  0  -0.593268  0  2.372421  0  0  -0.619647  0  2.359431  0  0  -0.320653  -0.574605  0  2.381076  0
O  O115  1  0.85169659  0.91418803  0.05721820  1  0  -0.648435  0  2.092005  0  0  -0.593253  0  2.372282  0  0  -0.619633  0  2.35929  0  0  -0.320671  -0.574599  0  2.380958  0
O  O116  1  0.11771827  0.21313579  0.09877690  1  0  -0.632288  0  2.076516  0  0  -0.564822  0  2.346909  0  0  -0.592193  0  2.334326  0  0  -0.306505  -0.545631  0  2.354913  0
O  O117  1  0.88228296  0.78686241  0.90122551  1  0  -0.632351  0  2.076581  0  0  -0.564929  0  2.347026  0  0  -0.592298  0  2.334441  0  0  -0.306543  -0.545732  0  2.355028  0
O  O118  1  0.85605268  0.53631891  0.04013063  1  0  -0.340888  0  1.761643  0  0  -0.327535  0  1.953728  0  0  -0.339984  0  1.95053  0  0  -0.115193  -0.319314  0  1.956025  0
O  O119  1  0.14394439  0.46367611  0.95986871  1  0  -0.34089  0  1.761604  0  0  -0.327559  0  1.953732  0  0  -0.339984  0  1.950505  0  0  -0.115216  -0.319336  0  1.956024  0
O  O120  1  0.83195370  0.64606479  0.19570088  1  0  -0.359194  0  1.732157  0  0  -0.35016  0  1.919658  0  0  -0.362379  0  1.916688  0  0  -0.133073  -0.342154  0  1.921946  0
O  O121  1  0.16804528  0.35393665  0.80429802  1  0  -0.359233  0  1.732194  0  0  -0.350157  0  1.919733  0  0  -0.362372  0  1.916757  0  0  -0.133059  -0.342148  0  1.922017  0
O  O122  1  0.39896834  0.35232406  0.39300738  1  0  -0.61129  0  1.982656  0  0  -0.550049  0  2.203706  0  0  -0.573607  0  2.19742  0  0  -0.298697  -0.533454  0  2.207369  0
O  O123  1  0.60103061  0.64768059  0.60699650  1  0  -0.611349  0  1.982643  0  0  -0.550097  0  2.203673  0  0  -0.573661  0  2.197391  0  0  -0.298712  -0.533497  0  2.20733  0
O  O124  1  0.35144249  0.92538677  0.85617300  1  0  -0.600565  0  2.029769  0  0  -0.541859  0  2.280672  0  0  -0.566193  0  2.271475  0  0  -0.289243  -0.5249  0  2.286857  0
O  O125  1  0.64855588  0.07461253  0.14382744  1  0  -0.600572  0  2.029813  0  0  -0.541876  0  2.280726  0  0  -0.566216  0  2.271535  0  0  -0.289251  -0.524919  0  2.286919  0
