# generated using pymatgen
data_CuH4C8N3O4
_symmetry_space_group_name_H-M   'P 1'
_cell_length_a   4.80991161
_cell_length_b   10.61266709
_cell_length_c   19.72096332
_cell_angle_alpha   89.99447186
_cell_angle_beta   89.99540604
_cell_angle_gamma   94.51499322
_symmetry_Int_Tables_number   1
_chemical_formula_structural   CuH4C8N3O4
_chemical_formula_sum   'Cu4 H16 C32 N12 O16'
_cell_volume   1003.55215231
_cell_formula_units_Z   4
loop_
 _symmetry_equiv_pos_site_id
 _symmetry_equiv_pos_as_xyz
  1  'x, y, z'
loop_
 _atom_site_type_symbol
 _atom_site_label
 _atom_site_symmetry_multiplicity
 _atom_site_fract_x
 _atom_site_fract_y
 _atom_site_fract_z
 _atom_site_occupancy
 _atom_site_pbe_cm5_charge
 _atom_site_pbe_ddec_charge
 _atom_site_pbe_ddec_spin_density
 _atom_site_pbe_ddec_sum_bond_order
 _atom_site_pbe_magmom
Cu  Cu0  1  0.29678999  0.45615892  0.66215173  1  0.752149  0.766517  0.742398  2.297487  0.556
Cu  Cu1  1  0.70321508  0.04389836  0.16211652  1  0.752166  0.766492  -0.742372  2.29706  -0.556
Cu  Cu2  1  0.70323610  0.54381658  0.33785864  1  0.752166  0.766473  -0.742421  2.297573  -0.556
Cu  Cu3  1  0.29676187  0.95613686  0.83787408  1  0.752105  0.766581  0.742401  2.297002  0.556
H  H4  1  0.22832401  0.45234126  0.92276856  1  0.128226  0.100099  0.000741  0.951682  0.001
H  H5  1  0.77150977  0.04759518  0.42272170  1  0.128384  0.100269  -0.000741  0.951966  -0.001
H  H6  1  0.77175133  0.54765302  0.07723269  1  0.128318  0.100288  -0.000741  0.951563  -0.001
H  H7  1  0.22839200  0.95238255  0.57725521  1  0.128328  0.100141  0.000742  0.951803  0.001
H  H8  1  0.43343652  0.53890984  0.81229763  1  0.127999  0.123962  0.001136  1.023725  0.002
H  H9  1  0.56643687  0.96106591  0.31224845  1  0.127924  0.124008  -0.001137  1.023667  -0.002
H  H10  1  0.56666698  0.46106829  0.18770311  1  0.127942  0.12402  -0.001135  1.023605  -0.002
H  H11  1  0.43348124  0.03893258  0.68772238  1  0.127984  0.124022  0.001136  1.023702  0.002
H  H12  1  0.64201768  0.32367556  0.56765697  1  0.136792  0.123579  0.000335  0.970857  0.001
H  H13  1  0.35800225  0.17637158  0.06761392  1  0.136748  0.12348  -0.000335  0.970874  -0.001
H  H14  1  0.35805691  0.67630360  0.43235594  1  0.136811  0.123593  -0.000335  0.970902  -0.001
H  H15  1  0.64193442  0.82368172  0.93238530  1  0.136816  0.12372  0.000336  0.970807  0.001
H  H16  1  0.18922149  0.64174793  0.55336675  1  0.125469  0.104283  0.000471  1.029727  0.001
H  H17  1  0.81080526  0.85830014  0.05338362  1  0.125437  0.104233  -0.000472  1.029597  -0.001
H  H18  1  0.81085553  0.35823311  0.44664667  1  0.125509  0.104344  -0.000471  1.029817  -0.001
H  H19  1  0.18910750  0.14174755  0.94661966  1  0.12547  0.104337  0.000472  1.029764  0.001
C  C20  1  0.04003223  0.29227700  0.75614880  1  0.119802  0.050633  0.001084  3.899158  0.0
C  C21  1  0.95993059  0.20773197  0.25611281  1  0.119701  0.050074  -0.001087  3.899552  0.0
C  C22  1  0.95996188  0.70771656  0.24385803  1  0.119831  0.050408  -0.001082  3.899553  0.0
C  C23  1  0.04006684  0.79226820  0.74387830  1  0.119843  0.050485  0.001084  3.899371  0.0
C  C24  1  0.93076895  0.24498261  0.81753754  1  0.135065  0.095484  0.007721  3.90937  0.008
C  C25  1  0.06916138  0.25499471  0.31750458  1  0.13518  0.095729  -0.00772  3.909388  -0.008
C  C26  1  0.06922021  0.75502893  0.18247131  1  0.135099  0.095749  -0.007724  3.909179  -0.008
C  C27  1  0.93082854  0.74498751  0.68249058  1  0.135182  0.095729  0.007721  3.909394  0.008
C  C28  1  0.17371051  0.40567400  0.87475135  1  0.070159  0.083134  0.004251  3.924244  0.005
C  C29  1  0.82614151  0.09429721  0.37471166  1  0.070407  0.083312  -0.004251  3.924209  -0.005
C  C30  1  0.82633971  0.59431941  0.12524939  1  0.070127  0.082958  -0.00425  3.924127  -0.005
C  C31  1  0.17379146  0.90569178  0.62527235  1  0.070518  0.083601  0.004251  3.92386  0.005
C  C32  1  0.28630997  0.45536241  0.81408916  1  0.06826  0.077086  0.002075  3.8464  0.001
C  C33  1  0.71358475  0.04461852  0.31404712  1  0.067963  0.076564  -0.002078  3.846431  -0.001
C  C34  1  0.71375617  0.54462717  0.18591158  1  0.068314  0.077024  -0.002073  3.846448  -0.001
C  C35  1  0.28636745  0.95537326  0.68593233  1  0.0681  0.076714  0.002078  3.846365  0.001
C  C36  1  0.98783834  0.23048787  0.68799501  1  0.202099  0.539652  0.000699  4.248497  -0.002
C  C37  1  0.01219315  0.26953408  0.18795936  1  0.202024  0.539771  -0.000702  4.247998  0.002
C  C38  1  0.01215299  0.76950191  0.31200674  1  0.201918  0.539265  -0.000697  4.248455  0.002
C  C39  1  0.98783183  0.73046886  0.81203682  1  0.202048  0.539718  0.000704  4.249175  -0.002
C  C40  1  0.74980514  0.12243421  0.82301481  1  0.211497  0.568056  0.000768  4.223238  -0.003
C  C41  1  0.25013131  0.37754110  0.32299635  1  0.211489  0.568043  -0.000769  4.223736  0.003
C  C42  1  0.25018229  0.87757923  0.17698948  1  0.211469  0.567922  -0.000769  4.223917  0.003
C  C43  1  0.74986900  0.62244110  0.67701099  1  0.211515  0.568132  0.000769  4.223743  -0.003
C  C44  1  0.57734754  0.40157389  0.53699480  1  0.072764  0.07699  -0.00405  3.844204  -0.005
C  C45  1  0.42268029  0.09846118  0.03696368  1  0.072776  0.077073  0.004048  3.843955  0.005
C  C46  1  0.42273293  0.59840336  0.46301659  1  0.073032  0.077166  0.004052  3.843771  0.005
C  C47  1  0.57725691  0.90159495  0.96303351  1  0.072933  0.076952  -0.004049  3.84399  -0.005
C  C48  1  0.32793717  0.57868133  0.52912990  1  0.064245  0.056768  -0.004157  3.860923  -0.005
C  C49  1  0.67207991  0.92136105  0.02913704  1  0.064312  0.0569  0.004161  3.860741  0.005
C  C50  1  0.67215717  0.42130344  0.47088301  1  0.064331  0.056779  0.004157  3.860999  0.005
C  C51  1  0.32783041  0.07868475  0.97086320  1  0.064304  0.056693  -0.004158  3.860735  -0.005
N  N52  1  0.21623685  0.39738559  0.75576254  1  -0.330477  -0.202009  0.056327  3.630098  0.07
N  N53  1  0.78370051  0.10263109  0.25572730  1  -0.330363  -0.201691  -0.05633  3.630115  -0.07
N  N54  1  0.78379913  0.60259840  0.24424225  1  -0.330487  -0.201901  -0.056315  3.629919  -0.07
N  N55  1  0.21626752  0.89737862  0.74425823  1  -0.330471  -0.201972  0.056332  3.630189  0.07
N  N56  1  0.99849186  0.30166544  0.87700411  1  -0.298022  -0.254885  0.000406  3.285824  0.0
N  N57  1  0.00138648  0.19829485  0.37697591  1  -0.298093  -0.254806  -0.000407  3.285536  0.0
N  N58  1  0.00153037  0.69834506  0.12299967  1  -0.298047  -0.254878  -0.000404  3.285454  0.0
N  N59  1  0.99857935  0.80168081  0.62302077  1  -0.298314  -0.255135  0.000407  3.285796  0.0
N  N60  1  0.40618196  0.48049864  0.56542759  1  -0.324585  -0.162755  0.0534  3.599536  0.067
N  N61  1  0.59383206  0.01955745  0.06541350  1  -0.324464  -0.16263  -0.053393  3.600137  -0.067
N  N62  1  0.59387423  0.51947111  0.43457822  1  -0.324704  -0.162781  -0.053402  3.599384  -0.067
N  N63  1  0.40608989  0.98049493  0.93458521  1  -0.324723  -0.162855  0.053403  3.599849  0.067
O  O64  1  0.12092781  0.28665837  0.63789836  1  -0.335043  -0.544751  0.080761  2.286109  0.111
O  O65  1  0.87910602  0.21338745  0.13786516  1  -0.335119  -0.544789  -0.080764  2.285628  -0.111
O  O66  1  0.87906467  0.71331534  0.36211252  1  -0.334996  -0.544481  -0.080794  2.285782  -0.111
O  O67  1  0.12093597  0.78662868  0.86212493  1  -0.335087  -0.544872  0.080755  2.286112  0.111
O  O68  1  0.83268876  0.13152778  0.68319860  1  -0.299074  -0.499879  0.019988  2.151328  0.026
O  O69  1  0.16742129  0.36847218  0.18316040  1  -0.299058  -0.499946  -0.019983  2.15121  -0.026
O  O70  1  0.16727820  0.86847625  0.31681786  1  -0.298999  -0.499735  -0.019983  2.151067  -0.026
O  O71  1  0.83264387  0.63153442  0.81683933  1  -0.299105  -0.499932  0.019978  2.151816  0.026
O  O72  1  0.48709579  0.12648005  0.81402883  1  -0.312731  -0.521176  0.065157  2.321839  0.088
O  O73  1  0.51283459  0.37349133  0.31401160  1  -0.312847  -0.521135  -0.06515  2.322128  -0.088
O  O74  1  0.51289151  0.87354379  0.18596430  1  -0.312764  -0.521232  -0.065164  2.322084  -0.088
O  O75  1  0.48715582  0.62648237  0.68599066  1  -0.31285  -0.521167  0.065166  2.322235  0.088
O  O76  1  0.86472670  0.02582507  0.84127598  1  -0.314649  -0.580829  0.001642  2.356464  0.004
O  O77  1  0.13522276  0.47414099  0.34125977  1  -0.314669  -0.580957  -0.001638  2.356811  -0.004
O  O78  1  0.13524822  0.97417705  0.15872629  1  -0.314658  -0.580818  -0.001646  2.356627  -0.004
O  O79  1  0.86478082  0.52583646  0.65875415  1  -0.314654  -0.581004  0.001641  2.356784  0.004
