# generated using pymatgen
data_ZnH14C13N4Cl2O
_symmetry_space_group_name_H-M   'P 1'
_cell_length_a   8.97094796
_cell_length_b   12.89875985
_cell_length_c   18.15400000
_cell_angle_alpha   103.11046333
_cell_angle_beta   90.00000000
_cell_angle_gamma   110.34958532
_symmetry_Int_Tables_number   1
_chemical_formula_structural   ZnH14C13N4Cl2O
_chemical_formula_sum   'Zn4 H56 C52 N16 Cl8 O4'
_cell_volume   1911.05956269
_cell_formula_units_Z   4
loop_
 _symmetry_equiv_pos_site_id
 _symmetry_equiv_pos_as_xyz
  1  'x, y, z'
loop_
 _atom_site_type_symbol
 _atom_site_label
 _atom_site_symmetry_multiplicity
 _atom_site_fract_x
 _atom_site_fract_y
 _atom_site_fract_z
 _atom_site_occupancy
 _atom_site_hle17_bader_spin_density
 _atom_site_hle17_ddec_charge
 _atom_site_hle17_ddec_spin_density
 _atom_site_hle17_ddec_sum_bond_order
 _atom_site_hle17_magmom
 _atom_site_hse06_10hf_bader_spin_density
 _atom_site_hse06_10hf_ddec_charge
 _atom_site_hse06_10hf_ddec_spin_density
 _atom_site_hse06_10hf_ddec_sum_bond_order
 _atom_site_hse06_10hf_magmom
 _atom_site_hse06_bader_spin_density
 _atom_site_hse06_ddec_charge
 _atom_site_hse06_ddec_spin_density
 _atom_site_hse06_ddec_sum_bond_order
 _atom_site_hse06_magmom
 _atom_site_pbe_bader_charge
 _atom_site_pbe_bader_spin_density
 _atom_site_pbe_cm5_charge
 _atom_site_pbe_ddec_charge
 _atom_site_pbe_ddec_spin_density
 _atom_site_pbe_ddec_sum_bond_order
 _atom_site_pbe_magmom
Zn  Zn0  1  0.49574578  0.75741030  0.90735058  1  0  0.825128  0  2.161498  0  0  0.64517  0  2.658982  0  0  0.684875  0  2.612614  0  1.123909  0  0.550522  0.617897  0  2.690471  0
Zn  Zn1  1  0.73825087  0.24278638  0.59265716  1  0  0.825624  0  2.16183  0  0  0.645708  0  2.659233  0  0  0.685408  0  2.612884  0  1.121894  0  0.550833  0.618433  0  2.690721  0
Zn  Zn2  1  0.50426454  0.24259038  0.09264981  1  0  0.825155  0  2.161491  0  0  0.645127  0  2.658989  0  0  0.684839  0  2.612619  0  1.123869  0  0.550513  0.617854  0  2.690475  0
Zn  Zn3  1  0.26175038  0.75721174  0.40733896  1  0  0.825642  0  2.161759  0  0  0.645702  0  2.659182  0  0  0.685405  0  2.612826  0  1.121723  0  0.550832  0.61843  0  2.690677  0
H  H4  1  0.40008006  0.53199496  0.94215318  1  0  0.075921  0  0.960897  0  0  0.082054  0  1.028651  0  0  0.084616  0  1.026833  0  0.106046  0  0.106514  0.080209  0  1.029978  0
H  H5  1  0.86785344  0.46810713  0.55768122  1  0  0.076567  0  0.96132  0  0  0.082532  0  1.028943  0  0  0.085015  0  1.027248  0  0.090869  0  0.106764  0.080699  0  1.030254  0
H  H6  1  0.59992941  0.46800401  0.05784693  1  0  0.075945  0  0.96071  0  0  0.082054  0  1.028492  0  0  0.084621  0  1.026668  0  0.106163  0  0.106513  0.080208  0  1.029818  0
H  H7  1  0.13212351  0.53190037  0.44232247  1  0  0.076543  0  0.961302  0  0  0.082514  0  1.028934  0  0  0.084999  0  1.027237  0  0.129716  0  0.106718  0.080679  0  1.030249  0
H  H8  1  0.28808089  0.44144807  0.04972377  1  0  0.108896  0  0.942118  0  0  0.119269  0  0.997246  0  0  0.122326  0  0.996672  0  0.118819  0  0.107663  0.117083  0  0.997788  0
H  H9  1  0.84593726  0.55843160  0.45008745  1  0  0.109452  0  0.941877  0  0  0.119863  0  0.996886  0  0  0.122893  0  0.996391  0  0.114384  0  0.107572  0.117674  0  0.99743  0
H  H10  1  0.71191967  0.55855091  0.95027579  1  0  0.108901  0  0.942109  0  0  0.119276  0  0.997236  0  0  0.122334  0  0.99666  0  0.118842  0  0.107675  0.11709  0  0.99778  0
H  H11  1  0.15403497  0.44157760  0.54991816  1  0  0.109436  0  0.941997  0  0  0.119837  0  0.997016  0  0  0.122864  0  0.99652  0  0.114652  0  0.107575  0.117647  0  0.997561  0
H  H12  1  0.24929218  0.56620954  0.16980524  1  0  0.101238  0  0.947512  0  0  0.109925  0  1.014115  0  0  0.112496  0  1.012411  0  0.082911  0  0.106523  0.108  0  1.015406  0
H  H13  1  0.68243343  0.43343919  0.33000732  1  0  0.101432  0  0.94799  0  0  0.109661  0  1.015015  0  0  0.112371  0  1.013133  0  0.079188  0  0.106614  0.10764  0  1.016424  0
H  H14  1  0.75070477  0.43379114  0.83019294  1  0  0.101287  0  0.94747  0  0  0.109969  0  1.014077  0  0  0.112538  0  1.012373  0  0.08285  0  0.106543  0.108043  0  1.01537  0
H  H15  1  0.31755149  0.56657087  0.66999513  1  0  0.101297  0  0.948082  0  0  0.109642  0  1.015004  0  0  0.112351  0  1.013125  0  0.078984  0  0.106633  0.107621  0  1.016413  0
H  H16  1  0.43615024  0.85229399  0.06833285  1  0  0.09217  0  0.941349  0  0  0.094711  0  1.016726  0  0  0.097561  0  1.014086  0  0.10616  0  0.114286  0.09256  0  1.018696  0
H  H17  1  0.58395805  0.14759249  0.43165795  1  0  0.092442  0  0.942067  0  0  0.095045  0  1.017355  0  0  0.097882  0  1.014718  0  0.108041  0  0.114466  0.092873  0  1.019353  0
H  H18  1  0.56385254  0.14770498  0.93166451  1  0  0.092154  0  0.941315  0  0  0.094687  0  1.016701  0  0  0.097539  0  1.014056  0  0.106154  0  0.114277  0.092536  0  1.018672  0
H  H19  1  0.41606025  0.85241074  0.56833734  1  0  0.092399  0  0.942111  0  0  0.094998  0  1.017393  0  0  0.097832  0  1.014761  0  0.10787  0  0.114419  0.092828  0  1.019383  0
H  H20  1  0.20117634  0.81227429  0.18981515  1  0  0.09312  0  0.908017  0  0  0.111539  0  0.961139  0  0  0.112791  0  0.959851  0  0.102846  0  0.119486  0.110525  0  0.962183  0
H  H21  1  0.38867344  0.18729858  0.31018349  1  0  0.092621  0  0.908262  0  0  0.111151  0  0.961214  0  0  0.112279  0  0.960025  0  0.107933  0  0.119541  0.110197  0  0.962196  0
H  H22  1  0.79882094  0.18773150  0.81017779  1  0  0.093144  0  0.907924  0  0  0.111527  0  0.961096  0  0  0.11278  0  0.95981  0  0.102857  0  0.119472  0.11051  0  0.962139  0
H  H23  1  0.61133515  0.81270976  0.68980712  1  0  0.092635  0  0.908185  0  0  0.111197  0  0.961068  0  0  0.112324  0  0.959876  0  0.107873  0  0.119526  0.110243  0  0.962051  0
H  H24  1  0.28676530  0.74773624  0.24453497  1  0  0.051933  0  0.971275  0  0  0.062755  0  1.048778  0  0  0.06275  0  1.048623  0  0.070802  0  0.08946  0.062692  0  1.048984  0
H  H25  1  0.53865896  0.25166194  0.25534738  1  0  0.051167  0  0.971483  0  0  0.061348  0  1.049546  0  0  0.061367  0  1.049368  0  0.080042  0  0.088705  0.061265  0  1.049758  0
H  H26  1  0.71322110  0.25226785  0.75545935  1  0  0.051928  0  0.971209  0  0  0.062754  0  1.048707  0  0  0.06275  0  1.048552  0  0.070723  0  0.089466  0.062668  0  1.04893  0
H  H27  1  0.46135890  0.74834044  0.74464722  1  0  0.05128  0  0.971408  0  0  0.061452  0  1.049433  0  0  0.06148  0  1.04924  0  0.080201  0  0.088764  0.061369  0  1.049645  0
H  H28  1  0.55462421  0.90859392  0.22808184  1  0  0.30526  0  0.929075  0  0  0.287185  0  0.99326  0  0  0.29512  0  0.986984  0  0.498812  0  0.30402  0.281619  0  0.997654  0
H  H29  1  0.64578618  0.09093379  0.27200702  1  0  0.304341  0  0.929732  0  0  0.286745  0  0.993408  0  0  0.294575  0  0.987294  0  0.49792  0  0.304565  0.281229  0  0.997737  0
H  H30  1  0.44536477  0.09140420  0.77191978  1  0  0.305275  0  0.928869  0  0  0.287119  0  0.993175  0  0  0.295046  0  0.98692  0  0.498761  0  0.304002  0.281553  0  0.997567  0
H  H31  1  0.35420907  0.90906348  0.72799337  1  0  0.304248  0  0.929625  0  0  0.286712  0  0.993269  0  0  0.294542  0  0.987156  0  0.497909  0  0.304547  0.281194  0  0.997602  0
H  H32  1  0.34069275  0.92795227  0.91496456  1  0  0.082899  0  0.968073  0  0  0.085228  0  1.046485  0  0  0.087789  0  1.044125  0  0.141905  0  0.104053  0.083273  0  1.048333  0
H  H33  1  0.41259467  0.07237650  0.58519391  1  0  0.082833  0  0.968457  0  0  0.085449  0  1.046476  0  0  0.088026  0  1.044105  0  0.144351  0  0.104138  0.08349  0  1.048325  0
H  H34  1  0.65931466  0.07204926  0.08503761  1  0  0.082913  0  0.967953  0  0  0.085237  0  1.046386  0  0  0.087796  0  1.044028  0  0.141935  0  0.104063  0.083285  0  1.048228  0
H  H35  1  0.58740933  0.92761821  0.41481322  1  0  0.082742  0  0.968471  0  0  0.085375  0  1.046504  0  0  0.087956  0  1.044127  0  0.144278  0  0.104106  0.083416  0  1.048353  0
H  H36  1  0.86929908  0.75266105  0.79870150  1  0  0.106936  0  0.943787  0  0  0.116688  0  1.00474  0  0  0.119792  0  1.002263  0  0.103741  0  0.103704  0.114364  0  1.006615  0
H  H37  1  0.11673557  0.24791145  0.70136681  1  0  0.107121  0  0.943151  0  0  0.116908  0  1.004089  0  0  0.119998  0  1.001641  0  0.116849  0  0.103731  0.114583  0  1.005961  0
H  H38  1  0.13070535  0.24733452  0.20130853  1  0  0.106997  0  0.943587  0  0  0.116774  0  1.004511  0  0  0.11989  0  1.002028  0  0.103826  0  0.103762  0.114446  0  1.006394  0
H  H39  1  0.88326568  0.75208667  0.29863151  1  0  0.107093  0  0.943166  0  0  0.116882  0  1.004107  0  0  0.11997  0  1.00166  0  0.116795  0  0.103719  0.114552  0  1.005984  0
H  H40  1  0.93494252  0.57406673  0.76729167  1  0  0.102978  0  0.977259  0  0  0.110715  0  1.041781  0  0  0.113841  0  1.040522  0  0.08037  0  0.094164  0.10844  0  1.042848  0
H  H41  1  0.36094721  0.42653559  0.73251483  1  0  0.103038  0  0.97756  0  0  0.110509  0  1.042249  0  0  0.113682  0  1.040947  0  0.098358  0  0.094499  0.108206  0  1.043355  0
H  H42  1  0.06506525  0.42592883  0.23271340  1  0  0.103037  0  0.977326  0  0  0.110747  0  1.041868  0  0  0.113874  0  1.040607  0  0.080297  0  0.094188  0.108445  0  1.042961  0
H  H43  1  0.63904810  0.57346849  0.26746903  1  0  0.103096  0  0.977483  0  0  0.110563  0  1.042194  0  0  0.113741  0  1.040881  0  0.098659  0  0.094523  0.108259  0  1.0433  0
H  H44  1  0.20262125  0.58270879  0.81350215  1  0  0.074719  0  0.944139  0  0  0.081276  0  1.011941  0  0  0.08394  0  1.009551  0  0.069964  0  0.108776  0.079369  0  1.013649  0
H  H45  1  0.61994128  0.41777678  0.68627176  1  0  0.07406  0  0.944929  0  0  0.080861  0  1.012522  0  0  0.083536  0  1.010108  0  0.098405  0  0.108779  0.078949  0  1.014246  0
H  H46  1  0.79739131  0.41729189  0.18650264  1  0  0.074668  0  0.94412  0  0  0.081253  0  1.011904  0  0  0.083919  0  1.009511  0  0.069458  0  0.108764  0.079346  0  1.013613  0
H  H47  1  0.38005361  0.58222645  0.31370975  1  0  0.074049  0  0.945009  0  0  0.080855  0  1.012611  0  0  0.083539  0  1.010192  0  0.098437  0  0.108791  0.07894  0  1.014334  0
H  H48  1  0.98074049  0.96269862  0.91922706  1  0  0.0833  0  0.930505  0  0  0.101506  0  0.989726  0  0  0.101759  0  0.989472  0  0.089453  0  0.105968  0.101187  0  0.990063  0
H  H49  1  0.01802913  0.03756283  0.58104395  1  0  0.083801  0  0.930634  0  0  0.100626  0  0.990605  0  0  0.100896  0  0.990331  0  0.102219  0  0.105892  0.100328  0  0.990907  0
H  H50  1  0.01925734  0.03729269  0.08077842  1  0  0.083303  0  0.930594  0  0  0.101511  0  0.989807  0  0  0.101764  0  0.989558  0  0.089621  0  0.105989  0.101206  0  0.990129  0
H  H51  1  0.98197369  0.96242506  0.41895768  1  0  0.083882  0  0.930772  0  0  0.100713  0  0.990678  0  0  0.100983  0  0.990401  0  0.10203  0  0.105935  0.100423  0  0.990987  0
H  H52  1  0.18070127  0.03627943  0.90288900  1  0  0.068738  0  0.925083  0  0  0.081368  0  0.991381  0  0  0.082403  0  0.989956  0  0.078501  0  0.099849  0.080568  0  0.992461  0
H  H53  1  0.14462107  0.96416694  0.59740631  1  0  0.068602  0  0.92578  0  0  0.081017  0  0.991586  0  0  0.082061  0  0.990185  0  0.073371  0  0.09969  0.080174  0  0.9927  0
H  H54  1  0.81929647  0.96371613  0.09711937  1  0  0.068721  0  0.925096  0  0  0.081347  0  0.991398  0  0  0.082385  0  0.989973  0  0.078476  0  0.099834  0.080548  0  0.99248  0
H  H55  1  0.85538962  0.03582777  0.40260193  1  0  0.06871  0  0.925766  0  0  0.081086  0  0.991573  0  0  0.082114  0  0.990185  0  0.07343  0  0.099716  0.080258  0  0.992687  0
H  H56  1  0.88992106  0.98566002  0.80827966  1  0  0.310724  0  0.934882  0  0  0.288119  0  1.006876  0  0  0.296638  0  0.999557  0  0.513231  0  0.301605  0.282115  0  1.012011  0
H  H57  1  0.90439852  0.01467216  0.69200661  1  0  0.311443  0  0.933743  0  0  0.288131  0  1.006879  0  0  0.296628  0  0.999588  0  0.519839  0  0.301776  0.282131  0  1.012002  0
H  H58  1  0.11008268  0.01433639  0.19172885  1  0  0.310666  0  0.93475  0  0  0.288017  0  1.006798  0  0  0.296534  0  0.999483  0  0.513091  0  0.301542  0.282014  0  1.01193  0
H  H59  1  0.09560948  0.98533278  0.30799721  1  0  0.311416  0  0.933585  0  0  0.288162  0  1.006652  0  0  0.29666  0  0.999359  0  0.519711  0  0.301805  0.282162  0  1.011773  0
C  C60  1  0.37978189  0.58144670  0.99591084  1  0  0.106367  0  3.712899  0  0  0.074543  0  3.959285  0  0  0.080315  0  3.978917  0  0.401545  0  0.037439  0.070585  0  3.946403  0
C  C61  1  0.79802147  0.41856336  0.50396215  1  0  0.104982  0  3.714777  0  0  0.073244  0  3.961899  0  0  0.079282  0  3.981083  0  0.4423  0  0.037186  0.069237  0  3.949073  0
C  C62  1  0.62021834  0.41854716  0.00408459  1  0  0.106502  0  3.712701  0  0  0.074718  0  3.959031  0  0  0.080471  0  3.978704  0  0.401663  0  0.037594  0.070765  0  3.946143  0
C  C63  1  0.20195951  0.58144329  0.49604084  1  0  0.105037  0  3.71482  0  0  0.073273  0  3.961941  0  0  0.079301  0  3.981131  0  0.40346  0  0.037216  0.069272  0  3.949117  0
C  C64  1  0.31718446  0.53229323  0.05506674  1  0  -0.109689  0  3.765227  0  0  -0.119867  0  4.014473  0  0  -0.126714  0  4.036807  0  0.014106  0  -0.083612  -0.115456  0  3.999377  0
C  C65  1  0.78436099  0.46759070  0.44477437  1  0  -0.10984  0  3.765922  0  0  -0.119832  0  4.014668  0  0  -0.126762  0  4.037135  0  0.017559  0  -0.082979  -0.115402  0  3.999548  0
C  C66  1  0.68281833  0.46770575  0.94493062  1  0  -0.109603  0  3.765292  0  0  -0.11978  0  4.014529  0  0  -0.126621  0  4.036856  0  0.013448  0  -0.083596  -0.115371  0  3.999433  0
C  C67  1  0.21561596  0.53241680  0.55522932  1  0  -0.109795  0  3.766267  0  0  -0.119788  0  4.015058  0  0  -0.126711  0  4.037524  0  0.017132  0  -0.082958  -0.115359  0  3.999934  0
C  C68  1  0.29651143  0.60197169  0.12203249  1  0  -0.051889  0  3.698105  0  0  -0.07973  0  3.941914  0  0  -0.077478  0  3.962036  0  -0.095527  0  -0.064847  -0.080857  0  3.928207  0
C  C69  1  0.69404994  0.39778015  0.37782258  1  0  -0.052179  0  3.69805  0  0  -0.079135  0  3.942311  0  0  -0.077  0  3.962449  0  -0.101512  0  -0.065174  -0.080203  0  3.928647  0
C  C70  1  0.70348064  0.39802813  0.87796280  1  0  -0.052067  0  3.698341  0  0  -0.079922  0  3.942192  0  0  -0.077667  0  3.962307  0  -0.095004  0  -0.06492  -0.081049  0  3.928486  0
C  C71  1  0.30593302  0.60222820  0.62217904  1  0  -0.052054  0  3.698081  0  0  -0.079097  0  3.942352  0  0  -0.076966  0  3.962494  0  -0.100872  0  -0.065209  -0.080165  0  3.928688  0
C  C72  1  0.33747501  0.71881291  0.12839229  1  0  0.035636  0  3.711766  0  0  0.063392  0  3.945345  0  0  0.058259  0  3.97022  0  0.058846  0  0.00403  0.066422  0  3.928694  0
C  C73  1  0.61844863  0.28091592  0.37151195  1  0  0.03653  0  3.710051  0  0  0.063028  0  3.945416  0  0  0.057833  0  3.970357  0  -0.005482  0  0.00389  0.066071  0  3.928739  0
C  C74  1  0.66252322  0.28119032  0.87160631  1  0  0.035567  0  3.711863  0  0  0.063313  0  3.945463  0  0  0.058187  0  3.970329  0  0.058924  0  0.003953  0.066345  0  3.928805  0
C  C75  1  0.38154960  0.71908732  0.62848609  1  0  0.036604  0  3.709965  0  0  0.063015  0  3.9454  0  0  0.05782  0  3.970343  0  -0.005584  0  0.003863  0.066058  0  3.928723  0
C  C76  1  0.40106957  0.76162268  0.06646783  1  0  0.087611  0  3.639309  0  0  0.048611  0  3.882688  0  0  0.055423  0  3.89954  0  0.476261  0  0.04977  0.044218  0  3.871425  0
C  C77  1  0.63939033  0.23825784  0.43349060  1  0  0.086636  0  3.639422  0  0  0.048019  0  3.883668  0  0  0.054926  0  3.900386  0  0.548825  0  0.049604  0.043626  0  3.872406  0
C  C78  1  0.59892456  0.23837459  0.93352925  1  0  0.087704  0  3.639467  0  0  0.048725  0  3.882821  0  0  0.055533  0  3.899692  0  0.476183  0  0.049828  0.04433  0  3.871561  0
C  C79  1  0.36061184  0.76174880  0.56650524  1  0  0.086527  0  3.639473  0  0  0.04794  0  3.883689  0  0  0.054845  0  3.900403  0  0.549051  0  0.049583  0.043553  0  3.87243  0
C  C80  1  0.31004278  0.79432206  0.19934171  1  0  0.032125  0  3.717006  0  0  -0.035016  0  3.973748  0  0  -0.029326  0  3.985026  0  0.340639  0  -0.056529  -0.038743  0  3.966158  0
C  C81  1  0.51548464  0.20524230  0.30062416  1  0  0.032921  0  3.71685  0  0  -0.033468  0  3.97399  0  0  -0.027723  0  3.984994  0  0.317102  0  -0.055298  -0.037183  0  3.966469  0
C  C82  1  0.68994578  0.20567521  0.80065207  1  0  0.032156  0  3.716703  0  0  -0.034943  0  3.973443  0  0  -0.029261  0  3.984737  0  0.340813  0  -0.056439  -0.038648  0  3.965855  0
C  C83  1  0.48451933  0.79476349  0.69937374  1  0  0.032676  0  3.7169  0  0  -0.03361  0  3.973922  0  0  -0.027857  0  3.984922  0  0.31703  0  -0.055307  -0.037325  0  3.966401  0
C  C84  1  0.40612329  0.99976888  0.25001646  1  0  0.723529  0  3.923537  0  0  0.648159  0  4.237606  0  0  0.682536  0  4.233471  0  1.869843  0  0.326006  0.624855  0  4.239506  0
C  C85  1  0.59385556  0.00023350  0.74998090  1  0  0.723181  0  3.923708  0  0  0.64776  0  4.237949  0  0  0.68214  0  4.233829  0  1.870229  0  0.325844  0.624455  0  4.239841  0
C  C86  1  0.24629991  0.85167700  0.88237685  1  0  0.085272  0  3.650429  0  0  0.04563  0  3.896945  0  0  0.052136  0  3.914366  0  0.421882  0  0.045053  0.041269  0  3.885609  0
C  C87  1  0.39457788  0.14874295  0.61770984  1  0  0.085998  0  3.652217  0  0  0.045927  0  3.898784  0  0  0.052392  0  3.916277  0  0.404684  0  0.04539  0.041572  0  3.88741  0
C  C88  1  0.75370888  0.14832282  0.11762835  1  0  0.085212  0  3.650441  0  0  0.04555  0  3.897058  0  0  0.052072  0  3.914456  0  0.422449  0  0.044927  0.04119  0  3.885723  0
C  C89  1  0.60542432  0.85125261  0.38229028  1  0  0.086166  0  3.65186  0  0  0.046084  0  3.898391  0  0  0.052538  0  3.915904  0  0.404834  0  0.045434  0.041728  0  3.887017  0
C  C90  1  0.10033377  0.85530989  0.85915933  1  0  0.039378  0  3.706632  0  0  0.064826  0  3.945214  0  0  0.05996  0  3.969301  0  0.023067  0  0.001877  0.067671  0  3.929171  0
C  C91  1  0.24503065  0.14515353  0.64098008  1  0  0.038446  0  3.709483  0  0  0.063124  0  3.948109  0  0  0.058271  0  3.972208  0  0.049537  0  0.0014  0.065981  0  3.932019  0
C  C92  1  0.89967194  0.14468823  0.14084670  1  0  0.039542  0  3.706449  0  0  0.064764  0  3.945367  0  0  0.059892  0  3.969467  0  0.023077  0  0.001994  0.067603  0  3.929342  0
C  C93  1  0.75497574  0.85484374  0.35902086  1  0  0.038515  0  3.709305  0  0  0.063132  0  3.947943  0  0  0.05828  0  3.972032  0  0.04995  0  0.001436  0.066003  0  3.931863  0
C  C94  1  0.98540249  0.75388223  0.81769913  1  0  -0.041534  0  3.675745  0  0  -0.068086  0  3.916744  0  0  -0.06519  0  3.935107  0  -0.045355  0  -0.063692  -0.06969  0  3.904315  0
C  C95  1  0.23157792  0.24665958  0.68233118  1  0  -0.041008  0  3.675116  0  0  -0.067615  0  3.916394  0  0  -0.064708  0  3.934739  0  -0.075694  0  -0.064004  -0.069217  0  3.903965  0
C  C96  1  0.01460013  0.24611418  0.18231214  1  0  -0.041639  0  3.675599  0  0  -0.068123  0  3.916586  0  0  -0.065244  0  3.934975  0  -0.045803  0  -0.06383  -0.069722  0  3.904148  0
C  C97  1  0.76842041  0.75333939  0.31766232  1  0  -0.041006  0  3.67499  0  0  -0.067603  0  3.916287  0  0  -0.064692  0  3.934626  0  -0.075772  0  -0.063983  -0.069201  0  3.903858  0
C  C98  1  0.02013796  0.65423736  0.80073634  1  0  -0.117446  0  3.759673  0  0  -0.125409  0  4.005127  0  0  -0.132815  0  4.02829  0  0.045908  0  -0.088922  -0.120562  0  3.989454  0
C  C99  1  0.36595327  0.34632150  0.69913808  1  0  -0.118494  0  3.75949  0  0  -0.126246  0  4.005198  0  0  -0.133672  0  4.02827  0  0.037807  0  -0.088959  -0.121381  0  3.989575  0
C  C100  1  0.97987040  0.34576161  0.19927148  1  0  -0.117486  0  3.7599  0  0  -0.125418  0  4.005318  0  0  -0.13283  0  4.028494  0  0.046001  0  -0.088923  -0.120543  0  3.989656  0
C  C101  1  0.63404368  0.65367917  0.30084854  1  0  -0.118634  0  3.759283  0  0  -0.126396  0  4.005018  0  0  -0.133818  0  4.028079  0  0.037528  0  -0.089059  -0.121529  0  3.989393  0
C  C102  1  0.16876055  0.65797506  0.82589090  1  0  0.10746  0  3.717419  0  0  0.074778  0  3.965934  0  0  0.080894  0  3.985655  0  0.444826  0  0.036405  0.070585  0  3.952979  0
C  C103  1  0.51079705  0.34252841  0.67396633  1  0  0.109701  0  3.717514  0  0  0.076749  0  3.965514  0  0  0.082793  0  3.985399  0  0.405726  0  0.03674  0.072549  0  3.952543  0
C  C104  1  0.83125243  0.34202647  0.17411624  1  0  0.107475  0  3.717687  0  0  0.07469  0  3.966194  0  0  0.080822  0  3.985891  0  0.445309  0  0.036372  0.070496  0  3.953232  0
C  C105  1  0.48919767  0.65747227  0.32601918  1  0  0.10977  0  3.717548  0  0  0.076816  0  3.965504  0  0  0.082832  0  3.985435  0  0.405488  0  0.036755  0.072623  0  3.952525  0
C  C106  1  0.06966677  0.96612186  0.87723939  1  0  0.032966  0  3.7065  0  0  -0.036399  0  3.96811  0  0  -0.030109  0  3.978212  0  0.344122  0  -0.054746  -0.040505  0  3.961267  0
C  C107  1  0.10363941  0.03429127  0.62302302  1  0  0.031358  0  3.711333  0  0  -0.035237  0  3.970346  0  0  -0.029031  0  3.980446  0  0.332958  0  -0.054594  -0.039286  0  3.963456  0
C  C108  1  0.93033491  0.03387711  0.12276623  1  0  0.033002  0  3.706442  0  0  -0.036315  0  3.96811  0  0  -0.030032  0  3.978224  0  0.344279  0  -0.054699  -0.040434  0  3.96127  0
C  C109  1  0.89636682  0.96570344  0.37698191  1  0  0.031064  0  3.711852  0  0  -0.035409  0  3.970712  0  0  -0.029185  0  3.980807  0  0.332938  0  -0.054618  -0.039513  0  3.963888  0
C  C110  1  0.09007527  0.00028548  0.75015067  1  0  0.716605  0  3.91399  0  0  0.647265  0  4.216245  0  0  0.681186  0  4.212171  0  1.835946  0  0.323087  0.624297  0  4.218135  0
C  C111  1  0.90993903  0.99970753  0.24985674  1  0  0.716379  0  3.91448  0  0  0.647031  0  4.216717  0  0  0.680963  0  4.212644  0  1.83627  0  0.322934  0.624063  0  4.218596  0
N  N112  1  0.42164131  0.69430989  0.00186583  1  0  -0.30958  0  3.344616  0  0  -0.221662  0  3.614546  0  0  -0.24046  0  3.632019  0  -1.252552  0  -0.330473  -0.208981  0  3.602452  0
N  N113  1  0.72725469  0.30568312  0.49806336  1  0  -0.308776  0  3.344602  0  0  -0.221365  0  3.614976  0  0  -0.240235  0  3.63253  0  -1.264763  0  -0.331072  -0.208674  0  3.602876  0
N  N114  1  0.57836466  0.30568653  0.99813221  1  0  -0.30975  0  3.344843  0  0  -0.22184  0  3.614788  0  0  -0.240645  0  3.632266  0  -1.252536  0  -0.330611  -0.20916  0  3.602695  0
N  N115  1  0.27274413  0.69432353  0.50193578  1  0  -0.308722  0  3.344575  0  0  -0.221289  0  3.614935  0  0  -0.240147  0  3.632476  0  -1.264975  0  -0.330978  -0.208614  0  3.602847  0
N  N116  1  0.43825744  0.90314076  0.22243653  1  0  -0.492461  0  3.295682  0  0  -0.433101  0  3.552594  0  0  -0.454691  0  3.558808  0  -1.240931  0  -0.43896  -0.418154  0  3.547883  0
N  N117  1  0.53487671  0.09639292  0.27766045  1  0  -0.490768  0  3.296423  0  0  -0.431613  0  3.552497  0  0  -0.452995  0  3.558569  0  -1.253545  0  -0.439923  -0.416778  0  3.547821  0
N  N118  1  0.56174518  0.09685566  0.77755931  1  0  -0.492324  0  3.296063  0  0  -0.432857  0  3.553046  0  0  -0.454447  0  3.559284  0  -1.24144  0  -0.438901  -0.417912  0  3.548321  0
N  N119  1  0.46513420  0.90361117  0.72233883  1  0  -0.490368  0  3.296814  0  0  -0.431315  0  3.552886  0  0  -0.452702  0  3.558971  0  -1.253803  0  -0.439829  -0.416482  0  3.548208  0
N  N120  1  0.27978502  0.75532073  0.86624649  1  0  -0.315659  0  3.354311  0  0  -0.226027  0  3.623023  0  0  -0.245278  0  3.64129  0  -1.271583  0  -0.337209  -0.212978  0  3.610345  0
N  N121  1  0.52440379  0.24509582  0.63371020  1  0  -0.316785  0  3.356022  0  0  -0.226555  0  3.624271  0  0  -0.245812  0  3.64256  0  -1.265242  0  -0.337338  -0.213474  0  3.611545  0
N  N122  1  0.72023019  0.24468080  0.13375514  1  0  -0.31564  0  3.354596  0  0  -0.225828  0  3.623123  0  0  -0.245086  0  3.641395  0  -1.271764  0  -0.337062  -0.212777  0  3.610441  0
N  N123  1  0.47559309  0.75489804  0.36628413  1  0  -0.316839  0  3.355903  0  0  -0.226598  0  3.624183  0  0  -0.245847  0  3.642465  0  -1.264998  0  -0.337348  -0.213518  0  3.611458  0
N  N124  1  0.00491591  0.98770102  0.81158811  1  0  -0.494675  0  3.290811  0  0  -0.434624  0  3.546026  0  0  -0.455885  0  3.55031  0  -1.245488  0  -0.440397  -0.419917  0  3.542631  0
N  N125  1  0.01740796  0.01273342  0.68869371  1  0  -0.49385  0  3.289289  0  0  -0.434091  0  3.544527  0  0  -0.455225  0  3.548741  0  -1.241261  0  -0.440505  -0.419413  0  3.541108  0
N  N126  1  0.99507360  0.01229369  0.18841903  1  0  -0.494642  0  3.290988  0  0  -0.434535  0  3.546214  0  0  -0.455793  0  3.550498  0  -1.245914  0  -0.440385  -0.419827  0  3.542816  0
N  N127  1  0.98259011  0.98726726  0.31131328  1  0  -0.493418  0  3.289839  0  0  -0.433787  0  3.545035  0  0  -0.454923  0  3.54924  0  -1.241677  0  -0.44034  -0.419098  0  3.54163  0
Cl  Cl128  1  0.66525409  0.93630203  0.93905621  1  0  -0.556955  0  0.900843  0  0  -0.491347  0  1.16234  0  0  -0.506362  0  1.138554  0  -0.661802  0  -0.317063  -0.480612  0  1.178604  0
Cl  Cl129  1  0.72893037  0.06391170  0.56095757  1  0  -0.55746  0  0.899988  0  0  -0.491744  0  1.161083  0  0  -0.506756  0  1.137302  0  -0.660006  0  -0.317542  -0.48102  0  1.177349  0
Cl  Cl130  1  0.33476387  0.06369609  0.06094596  1  0  -0.556934  0  0.900837  0  0  -0.491324  0  1.162343  0  0  -0.50634  0  1.138558  0  -0.661877  0  -0.317067  -0.480588  0  1.178607  0
Cl  Cl131  1  0.27107465  0.93608728  0.43904143  1  0  -0.557468  0  0.899936  0  0  -0.491754  0  1.161043  0  0  -0.506768  0  1.137264  0  -0.659987  0  -0.317547  -0.481029  0  1.177309  0
Cl  Cl132  1  0.55512633  0.61959754  0.82662762  1  0  -0.577892  0  0.909685  0  0  -0.517419  0  1.174668  0  0  -0.531922  0  1.150573  0  -0.676382  0  -0.314552  -0.506847  0  1.191104  0
Cl  Cl133  1  0.93539346  0.38075424  0.67335499  1  0  -0.578113  0  0.909751  0  0  -0.517685  0  1.174707  0  0  -0.532178  0  1.150586  0  -0.67735  0  -0.314511  -0.507115  0  1.191181  0
Cl  Cl134  1  0.44487491  0.38040058  0.17337125  1  0  -0.577888  0  0.909701  0  0  -0.51738  0  1.174679  0  0  -0.531884  0  1.150584  0  -0.676349  0  -0.314533  -0.506814  0  1.191128  0
Cl  Cl135  1  0.06460041  0.61924473  0.32664457  1  0  -0.578122  0  0.90972  0  0  -0.517683  0  1.174681  0  0  -0.532178  0  1.150559  0  -0.677398  0  -0.314507  -0.507113  0  1.191157  0
O  O136  1  0.26622283  0.99978678  0.24994553  1  0  -0.658095  0  2.034544  0  0  -0.60505  0  2.272949  0  0  -0.628186  0  2.263091  0  -1.217683  0  -0.321346  -0.588555  0  2.278944  0
O  O137  1  0.73380035  0.00021731  0.75005210  1  0  -0.658108  0  2.033547  0  0  -0.605065  0  2.272027  0  0  -0.628207  0  2.262168  0  -1.217594  0  -0.321298  -0.588563  0  2.278015  0
O  O138  1  0.23087683  0.00035536  0.75016854  1  0  -0.668926  0  1.991031  0  0  -0.612089  0  2.220122  0  0  -0.635054  0  2.212446  0  -1.22229  0  -0.32788  -0.595759  0  2.224742  0
O  O139  1  0.76910901  0.99963424  0.24983777  1  0  -0.669085  0  1.990462  0  0  -0.612181  0  2.21949  0  0  -0.635167  0  2.211815  0  -1.222075  0  -0.327907  -0.595849  0  2.224109  0
