# generated using pymatgen
data_GdCuH13C15N2O13
_symmetry_space_group_name_H-M   'P 1'
_cell_length_a   8.12402246
_cell_length_b   10.53733535
_cell_length_c   12.13764086
_cell_angle_alpha   100.38461100
_cell_angle_beta   105.70694250
_cell_angle_gamma   102.51242560
_symmetry_Int_Tables_number   1
_chemical_formula_structural   GdCuH13C15N2O13
_chemical_formula_sum   'Gd2 Cu2 H26 C30 N4 O26'
_cell_volume   944.41432747
_cell_formula_units_Z   2
loop_
 _symmetry_equiv_pos_site_id
 _symmetry_equiv_pos_as_xyz
  1  'x, y, z'
loop_
 _atom_site_type_symbol
 _atom_site_label
 _atom_site_symmetry_multiplicity
 _atom_site_fract_x
 _atom_site_fract_y
 _atom_site_fract_z
 _atom_site_occupancy
 _atom_site_hle17_ddec_charge
 _atom_site_hle17_ddec_spin_density
 _atom_site_hle17_ddec_sum_bond_order
 _atom_site_hle17_magmom
 _atom_site_hse06_10hf_ddec_charge
 _atom_site_hse06_10hf_ddec_spin_density
 _atom_site_hse06_10hf_ddec_sum_bond_order
 _atom_site_hse06_10hf_magmom
 _atom_site_hse06_ddec_charge
 _atom_site_hse06_ddec_spin_density
 _atom_site_hse06_ddec_sum_bond_order
 _atom_site_hse06_magmom
 _atom_site_pbe_cm5_charge
 _atom_site_pbe_ddec_charge
 _atom_site_pbe_ddec_spin_density
 _atom_site_pbe_ddec_sum_bond_order
 _atom_site_pbe_magmom
Gd  Gd0  1  0.99528516  0.16497588  0.92201062  1  2.225098  -1.9e-05  1.696798  0.0  2.149861  -0.000165  2.022327  0.0  2.194481  -4e-05  1.980906  0.0  1.449898  2.112471  -0.000355  2.059539  0.0
Gd  Gd1  1  0.00471179  0.83502396  0.07798879  1  2.225085  -1.9e-05  1.696794  0.0  2.149804  -0.000165  2.022398  0.0  2.194423  -4e-05  1.980972  0.0  1.449902  2.112417  -0.000355  2.059595  0.0
Cu  Cu2  1  0.03227851  0.73188702  0.54687517  1  0.822652  -0.688749  1.886081  -0.508  0.788906  -0.771378  2.294271  -0.617  0.877408  -0.836225  2.226146  -0.701  0.752659  0.735615  -0.724892  2.341016  -0.561
Cu  Cu3  1  0.96772215  0.26810884  0.45312101  1  0.822637  -0.688732  1.886042  -0.508  0.788959  -0.77138  2.294222  -0.617  0.877429  -0.836225  2.22608  -0.701  0.752677  0.735658  -0.724891  2.340963  -0.561
H  H4  1  0.78961233  0.29625130  0.05827467  1  0.440549  -8e-06  0.846835  0.0  0.410899  -1.5e-05  0.907871  0.0  0.421063  -1.2e-05  0.892916  0.0  0.303759  0.403676  -1.9e-05  0.918468  0.0
H  H5  1  0.21038623  0.70374953  0.94172686  1  0.440571  -8e-06  0.846796  0.0  0.410918  -1.5e-05  0.907842  0.0  0.421081  -1.2e-05  0.892887  0.0  0.303763  0.403696  -1.9e-05  0.918433  0.0
H  H6  1  0.83323622  0.18547432  0.13124769  1  0.446259  -5.7e-05  0.8446  0.0  0.416286  -3.8e-05  0.905479  0.0  0.427931  -3.7e-05  0.88837  0.0  0.29912  0.408  -5.3e-05  0.917586  0.0
H  H7  1  0.16676032  0.81452450  0.86875313  1  0.446144  -5.6e-05  0.844773  0.0  0.416224  -3.8e-05  0.905552  0.0  0.427867  -3.7e-05  0.888449  0.0  0.299099  0.407954  -5.3e-05  0.917646  0.0
H  H8  1  0.59983419  0.82901709  0.86016271  1  0.027669  -2e-06  0.890341  0.0  0.039213  -0.0  0.950663  0.0  0.039414  -1e-06  0.94665  0.0  0.121803  0.03883  2e-06  0.953614  0.0
H  H9  1  0.40016006  0.17098269  0.13984195  1  0.027682  6e-06  0.890444  0.0  0.039235  -1e-06  0.950751  0.0  0.039432  -1e-06  0.946739  0.0  0.12182  0.038857  2e-06  0.953703  0.0
H  H10  1  0.22769635  0.43797539  0.03399294  1  0.428422  -3e-06  0.879771  0.0  0.396048  0.0  0.94598  0.0  0.408021  1e-06  0.928577  0.0  0.293301  0.38762  -6e-06  0.958176  0.0
H  H11  1  0.77230223  0.56202545  0.96600777  1  0.428411  -3e-06  0.879794  0.0  0.396026  0.0  0.946022  0.0  0.407999  1e-06  0.92862  0.0  0.293266  0.387596  -6e-06  0.958219  0.0
H  H12  1  0.16182678  0.39332950  0.13749030  1  0.434935  0.000149  0.859689  0.0  0.407858  9e-05  0.917238  0.0  0.417755  7e-05  0.902727  0.0  0.301872  0.400853  9.7e-05  0.927502  0.0
H  H13  1  0.83817163  0.60667434  0.86251168  1  0.434956  0.000149  0.859633  0.0  0.407892  9e-05  0.917156  0.0  0.417787  7e-05  0.902647  0.0  0.301901  0.400884  9.7e-05  0.927421  0.0
H  H14  1  0.83698951  0.36011343  0.80132084  1  0.452376  -0.000137  0.840058  0.0  0.421086  -0.000136  0.903963  0.0  0.431349  -7.1e-05  0.888893  0.0  0.308598  0.413801  -0.000214  0.914624  0.0
H  H15  1  0.16300689  0.63988841  0.19867961  1  0.452413  -0.000137  0.840002  0.0  0.421132  -0.000136  0.90389  0.0  0.431397  -7.1e-05  0.888818  0.0  0.308607  0.413842  -0.000214  0.914559  0.0
H  H16  1  0.68467553  0.23552364  0.79910645  1  0.432582  0.000119  0.831534  0.0  0.411389  6.9e-05  0.893071  0.0  0.418688  6.7e-05  0.882279  0.0  0.322709  0.406294  6.7e-05  0.900613  0.0
H  H17  1  0.31531953  0.76447423  0.20088735  1  0.432552  0.000119  0.83163  0.0  0.411336  6.9e-05  0.893149  0.0  0.418633  6.7e-05  0.882358  0.0  0.322676  0.406239  6.7e-05  0.900689  0.0
H  H18  1  0.48633131  0.02784250  0.69688223  1  0.127328  -0.000118  0.974124  0.0  0.135781  7.7e-05  1.032858  0.0  0.140131  8.3e-05  1.029226  0.0  0.117259  0.132425  5.8e-05  1.035875  0.0
H  H19  1  0.51367127  0.97215532  0.30311875  1  0.127332  -0.00012  0.974104  0.0  0.135802  7.7e-05  1.032815  0.0  0.140152  8.3e-05  1.029181  0.0  0.117279  0.132447  5.8e-05  1.035826  0.0
H  H20  1  0.54986835  0.13883523  0.54142804  1  0.11974  -0.000628  0.969448  -0.001  0.12787  -0.000619  1.030902  -0.001  0.132359  -0.00045  1.02834  0.0  0.110102  0.124593  -0.000752  1.032979  -0.001
H  H21  1  0.45013551  0.86116259  0.45857319  1  0.119725  -0.00063  0.969447  -0.001  0.127857  -0.000619  1.030911  -0.001  0.132344  -0.00045  1.028351  0.0  0.110109  0.124581  -0.000753  1.032979  -0.001
H  H22  1  0.31444247  0.23646956  0.42935378  1  0.094529  -0.000958  0.938977  -0.002  0.104132  -0.000809  0.99931  -0.002  0.106715  -0.00059  0.996587  -0.001  0.125579  0.102046  -0.000972  1.001536  -0.002
H  H23  1  0.68556432  0.76352927  0.57064816  1  0.094544  -0.000957  0.938887  -0.002  0.10417  -0.000809  0.999204  -0.002  0.106754  -0.00059  0.996478  -0.001  0.125571  0.102081  -0.000972  1.001421  -0.002
H  H24  1  0.50624566  0.45587246  0.78318053  1  0.117015  -0.000114  0.919128  0.0  0.129925  5e-05  0.971742  0.0  0.133822  5.4e-05  0.968722  0.0  0.120097  0.1269  3.5e-05  0.974301  0.0
H  H25  1  0.49375744  0.54413036  0.21682382  1  0.117028  -0.000114  0.919118  0.0  0.129933  5e-05  0.97173  0.0  0.133829  5.4e-05  0.968714  0.0  0.120108  0.126904  3.5e-05  0.974292  0.0
H  H26  1  0.58769288  0.56341419  0.63041140  1  0.117141  -0.000615  0.971044  0.0  0.123168  -0.000623  1.036494  0.0  0.128192  -0.000457  1.033458  0.0  0.109824  0.119472  -0.000757  1.038945  -0.001
H  H27  1  0.41230714  0.43658363  0.36958910  1  0.117123  -0.000614  0.97108  0.0  0.12315  -0.000623  1.03653  0.0  0.128171  -0.000457  1.033499  0.0  0.109809  0.11948  -0.000757  1.038958  -0.001
H  H28  1  0.37171908  0.67224027  0.51650130  1  0.085376  -0.000911  0.94602  -0.002  0.094296  -0.000814  1.01003  -0.001  0.096636  -0.000601  1.007771  -0.001  0.121655  0.092426  -0.000978  1.011962  -0.002
H  H29  1  0.62827790  0.32775256  0.48349371  1  0.085426  -0.000913  0.945962  -0.002  0.094338  -0.000814  1.009975  -0.001  0.096655  -0.000601  1.007745  -0.001  0.121669  0.092471  -0.000978  1.011907  -0.002
C  C30  1  0.70795469  0.91916550  0.87040056  1  0.614487  1.9e-05  3.882097  0.0  0.545883  1.1e-05  4.198584  0.0  0.579801  0.0  4.187498  0.0  0.153773  0.523054  7e-06  4.204498  0.0
C  C31  1  0.29203968  0.08083433  0.12959919  1  0.614302  4e-06  3.882164  0.0  0.545695  1.1e-05  4.198657  0.0  0.579614  -0.0  4.187573  0.0  0.153717  0.522857  7e-06  4.20459  0.0
C  C32  1  0.20207733  0.00190790  0.77034029  1  0.715664  -0.000426  3.873673  0.0  0.665964  -0.000447  4.175753  -0.001  0.703095  -0.000185  4.162936  0.0  0.233743  0.640848  -0.000736  4.182987  -0.001
C  C33  1  0.79792397  0.99808992  0.22966046  1  0.715613  -0.000428  3.87371  0.0  0.665923  -0.000447  4.175791  -0.001  0.703053  -0.000185  4.162979  0.0  0.233741  0.640831  -0.000736  4.182997  -0.001
C  C34  1  0.23459362  0.07211199  0.67653729  1  -0.068495  -0.006065  3.650349  -0.006  -0.056363  -0.002103  3.888283  -0.002  -0.063845  -0.002105  3.90557  -0.002  0.012448  -0.05254  -0.002175  3.87802  -0.002
C  C35  1  0.76540457  0.92788784  0.32346400  1  -0.068385  -0.006074  3.650242  -0.006  -0.056297  -0.002103  3.888239  -0.002  -0.063781  -0.002105  3.905526  -0.002  0.012506  -0.052477  -0.002175  3.877985  -0.002
C  C36  1  0.39184408  0.07433690  0.64878805  1  -0.02653  0.012521  3.647952  0.008  -0.054267  0.004842  3.895991  0.003  -0.048081  0.005433  3.907601  0.003  -0.060908  -0.058717  0.004349  3.889312  0.002
C  C37  1  0.60815667  0.92566292  0.35121373  1  -0.02655  0.012547  3.647936  0.008  -0.054279  0.004844  3.895993  0.003  -0.048093  0.005433  3.907603  0.003  -0.060909  -0.058731  0.004349  3.889317  0.002
C  C38  1  0.42664776  0.13568301  0.56197421  1  -0.102322  -0.009595  3.690616  -0.01  -0.114815  -0.004051  3.943026  -0.005  -0.12045  -0.00368  3.958381  -0.004  -0.076031  -0.111263  -0.004296  3.93296  -0.005
C  C39  1  0.57335682  0.86431682  0.43802830  1  -0.10233  -0.009607  3.690723  -0.01  -0.114844  -0.004052  3.943164  -0.005  -0.12048  -0.00368  3.958519  -0.004  -0.076069  -0.111294  -0.004296  3.933096  -0.005
C  C40  1  0.30042510  0.19078898  0.50107593  1  0.146701  0.010993  3.665027  0.007  0.114094  0.002957  3.924483  0.002  0.124649  0.004677  3.940978  0.003  0.053152  0.107291  0.001634  3.913875  0.001
C  C41  1  0.69958023  0.80921286  0.49892704  1  0.146706  0.011004  3.665092  0.007  0.114079  0.002958  3.924538  0.002  0.124638  0.004675  3.94103  0.003  0.053155  0.10728  0.001634  3.91392  0.001
C  C42  1  0.11534336  0.13122911  0.61293007  1  0.070976  0.008788  3.714604  0.006  0.065278  0.00252  3.961667  0.001  0.069327  0.00388  3.980877  0.002  0.113067  0.062499  0.001567  3.949864  0.001
C  C43  1  0.88465838  0.86876974  0.38706845  1  0.070933  0.0088  3.71452  0.006  0.065248  0.00252  3.961616  0.001  0.069298  0.003878  3.980826  0.002  0.11301  0.062447  0.001568  3.949845  0.001
C  C44  1  0.93792079  0.13474527  0.62730163  1  0.647194  0.007101  3.887973  0.006  0.59954  0.001252  4.19479  0.001  0.637053  0.001214  4.185029  0.001  0.219  0.573874  0.001233  4.200451  0.002
C  C45  1  0.06208171  0.86525560  0.37269653  1  0.647323  0.0071  3.887772  0.006  0.599608  0.001252  4.194655  0.001  0.637124  0.001214  4.184895  0.001  0.219061  0.573951  0.001233  4.200312  0.002
C  C46  1  0.21203379  0.44746519  0.84919114  1  0.690719  -0.000712  3.906946  -0.001  0.636534  -0.000695  4.211546  -0.001  0.671225  -0.000419  4.202585  -0.001  0.224925  0.613134  -0.001001  4.21622  -0.001
C  C47  1  0.78796605  0.55253564  0.15081063  1  0.69072  -0.000714  3.906999  -0.001  0.636499  -0.000694  4.211654  -0.001  0.671188  -0.00042  4.202695  -0.001  0.224858  0.6131  -0.001001  4.21633  -0.001
C  C48  1  0.25234808  0.50007404  0.74906202  1  -0.060842  -0.003906  3.667032  -0.004  -0.049474  -0.001233  3.912154  -0.001  -0.054714  -0.001181  3.928438  -0.001  0.012796  -0.046861  -0.001318  3.90267  -0.001
C  C49  1  0.74765346  0.49992781  0.25093859  1  -0.060746  -0.003894  3.666969  -0.004  -0.049396  -0.001234  3.912066  -0.001  -0.054633  -0.001181  3.92835  -0.001  0.012861  -0.046788  -0.001317  3.902593  -0.001
C  C50  1  0.41515382  0.50056306  0.73006523  1  0.00067  0.009006  3.635383  0.005  -0.028663  0.003059  3.887212  0.002  -0.023213  0.003634  3.900157  0.002  -0.051213  -0.032711  0.002426  3.879489  0.001
C  C51  1  0.58484642  0.49943878  0.26993596  1  0.000737  0.008994  3.635257  0.005  -0.028584  0.003058  3.887077  0.002  -0.023134  0.003636  3.900019  0.002  -0.051182  -0.032626  0.002425  3.879349  0.001
C  C52  1  0.46073853  0.56068599  0.64544286  1  -0.097411  -0.00736  3.684301  -0.008  -0.111816  -0.003143  3.940621  -0.004  -0.117551  -0.00276  3.95691  -0.004  -0.071845  -0.108135  -0.003372  3.930009  -0.004
C  C53  1  0.53926228  0.43931385  0.35455647  1  -0.097422  -0.007356  3.684367  -0.008  -0.111833  -0.003143  3.94072  -0.004  -0.117565  -0.002761  3.957002  -0.004  -0.071847  -0.108173  -0.003372  3.930096  -0.004
C  C54  1  0.34383362  0.62190489  0.58294761  1  0.141627  0.00863  3.671036  0.006  0.109612  0.002057  3.929743  0.001  0.119737  0.003446  3.946259  0.002  0.054411  0.102994  0.000871  3.91915  0.0
C  C55  1  0.65616737  0.37809195  0.41705044  1  0.141574  0.008634  3.671007  0.006  0.109565  0.002057  3.929749  0.001  0.119706  0.003447  3.946266  0.002  0.054397  0.102942  0.000871  3.919167  0.0
C  C56  1  0.13925141  0.55886705  0.67996425  1  0.056429  0.005415  3.721972  0.003  0.046479  0.001287  3.98292  0.0  0.049763  0.002441  4.000225  0.001  0.107098  0.043661  0.000235  3.973256  -0.001
C  C57  1  0.86075308  0.44113581  0.32003626  1  0.056208  0.005394  3.722156  0.003  0.046362  0.001285  3.982989  0.0  0.049641  0.00244  4.000295  0.001  0.107014  0.043541  0.000234  3.973334  -0.001
C  C58  1  0.95750268  0.56195898  0.68616367  1  0.624766  0.00745  3.898432  0.007  0.570893  0.001623  4.210124  0.002  0.606742  0.001658  4.203143  0.001  0.218239  0.546323  0.00147  4.214823  0.002
C  C59  1  0.04250048  0.43804387  0.31383823  1  0.62501  0.007455  3.898384  0.007  0.571099  0.001624  4.210096  0.002  0.606953  0.001658  4.203114  0.001  0.218325  0.546535  0.001471  4.214797  0.002
N  N60  1  0.14997759  0.18782025  0.52712462  1  -0.316352  -0.076323  3.39787  -0.098  -0.275354  -0.052039  3.703455  -0.071  -0.305978  -0.042798  3.725693  -0.063  -0.35853  -0.257614  -0.056915  3.69113  -0.074
N  N61  1  0.85002487  0.81218061  0.47287518  1  -0.316422  -0.076333  3.397977  -0.098  -0.275388  -0.052042  3.703528  -0.071  -0.306023  -0.042799  3.725784  -0.063  -0.35852  -0.257644  -0.056916  3.69121  -0.074
N  N62  1  0.18839159  0.62106444  0.60090177  1  -0.309233  -0.06473  3.395464  -0.083  -0.26846  -0.045114  3.700696  -0.061  -0.296771  -0.036855  3.720978  -0.054  -0.355052  -0.251972  -0.049694  3.689653  -0.064
N  N63  1  0.81160922  0.37893541  0.39909755  1  -0.309191  -0.064726  3.395404  -0.083  -0.268454  -0.045113  3.700624  -0.061  -0.296756  -0.036854  3.72088  -0.054  -0.355026  -0.251958  -0.049693  3.689575  -0.064
O  O64  1  0.67167171  0.02235760  0.84471390  1  -0.62201  -8e-06  2.044979  0.0  -0.577028  2.1e-05  2.283306  0.0  -0.601538  1.7e-05  2.273809  0.0  -0.346752  -0.559651  1.6e-05  2.289167  0.0
O  O65  1  0.32831757  0.97764224  0.15528405  1  -0.621877  -8e-06  2.045063  0.0  -0.57689  2e-05  2.283382  0.0  -0.6014  1.8e-05  2.273886  0.0  -0.346715  -0.559504  1.6e-05  2.289244  0.0
O  O66  1  0.85237183  0.22636068  0.06624495  1  -0.914832  -5.9e-05  1.879552  0.0  -0.870219  -1.9e-05  2.061283  0.0  -0.889216  -6e-06  2.028654  0.0  -0.641445  -0.855997  -5e-05  2.084131  0.0
O  O67  1  0.14762638  0.77363916  0.93375553  1  -0.914748  -6e-05  1.879659  0.0  -0.870171  -1.8e-05  2.061394  0.0  -0.889169  -5e-06  2.028766  0.0  -0.641428  -0.855969  -5e-05  2.084193  0.0
O  O68  1  0.87003171  0.91541986  0.90921608  1  -0.7475  -6.6e-05  2.123241  0.0  -0.70359  -2.9e-05  2.381798  0.0  -0.729429  -1.1e-05  2.371895  0.0  -0.420239  -0.684415  -3.8e-05  2.387244  0.0
O  O69  1  0.12996341  0.08458198  0.09078413  1  -0.74745  -6.3e-05  2.123122  0.0  -0.703546  -2.9e-05  2.381673  0.0  -0.729383  -1.2e-05  2.371773  0.0  -0.420239  -0.684364  -3.8e-05  2.387129  0.0
O  O70  1  0.19830273  0.35974224  0.06932602  1  -0.916412  0.0  1.878922  0.0  -0.877834  7.9e-05  2.062358  0.0  -0.897602  0.000102  2.030408  0.0  -0.650244  -0.862937  1.6e-05  2.084365  0.0
O  O71  1  0.80168946  0.64025860  0.93067347  1  -0.916422  -1e-06  1.878902  0.0  -0.877833  7.9e-05  2.062352  0.0  -0.897593  0.000102  2.030383  0.0  -0.650239  -0.862933  1.6e-05  2.084353  0.0
O  O72  1  0.80031523  0.29692259  0.84729766  1  -0.868211  -0.000213  1.867415  0.0  -0.829381  -0.000143  2.050795  0.0  -0.845958  -5.9e-05  2.022128  0.0  -0.625214  -0.817098  -0.000246  2.070804  0.0
O  O73  1  0.19967809  0.70307424  0.15269893  1  -0.868209  -0.000213  1.867447  0.0  -0.829349  -0.000143  2.050826  0.0  -0.845928  -5.9e-05  2.022163  0.0  -0.625188  -0.817055  -0.000247  2.070838  0.0
O  O74  1  0.88384753  0.08084482  0.69969435  1  -0.651528  -0.01607  2.034086  -0.021  -0.618659  -0.008145  2.27627  -0.012  -0.64485  -0.003765  2.268835  -0.006  -0.340824  -0.598767  -0.013076  2.280057  -0.018
O  O75  1  0.11615074  0.91915504  0.30030367  1  -0.65161  -0.016067  2.034049  -0.021  -0.618714  -0.008145  2.276278  -0.012  -0.64489  -0.003764  2.268806  -0.006  -0.340878  -0.598829  -0.013074  2.280063  -0.018
O  O76  1  0.84661338  0.19253020  0.55794778  1  -0.578094  -0.086231  2.0334  -0.12  -0.553513  -0.058679  2.324172  -0.089  -0.595563  -0.044573  2.315026  -0.073  -0.31624  -0.525989  -0.067676  2.33084  -0.097
O  O77  1  0.15338640  0.80746666  0.44204758  1  -0.578104  -0.086224  2.033287  -0.12  -0.553508  -0.058676  2.32412  -0.089  -0.595572  -0.04457  2.314988  -0.073  -0.31623  -0.525982  -0.067672  2.33078  -0.097
O  O78  1  0.20718983  0.07167999  0.86845582  1  -0.70906  -0.001607  2.013642  -0.002  -0.668099  -0.000766  2.253343  -0.001  -0.693038  -0.000416  2.24017  -0.001  -0.392892  -0.649062  -0.001214  2.26075  -0.002
O  O79  1  0.79280508  0.92831783  0.13154371  1  -0.709018  -0.001607  2.013696  -0.002  -0.668054  -0.000767  2.253402  -0.001  -0.692996  -0.000416  2.240235  -0.001  -0.392864  -0.649021  -0.001215  2.260789  -0.002
O  O80  1  0.18100687  0.87628848  0.74458690  1  -0.62198  -0.000408  1.978358  -0.002  -0.575146  0.00047  2.214863  -0.001  -0.606833  0.000981  2.203807  0.0  -0.298611  -0.55253  -0.00018  2.221805  -0.001
O  O81  1  0.81899270  0.12371138  0.25541055  1  -0.62201  -0.000407  1.978284  -0.002  -0.575144  0.000469  2.214789  -0.001  -0.60683  0.000981  2.203729  0.0  -0.29862  -0.552532  -0.00018  2.221715  -0.001
O  O82  1  0.88651039  0.49768220  0.74681590  1  -0.59394  -0.013737  2.019459  -0.018  -0.536117  -0.007421  2.237604  -0.011  -0.561839  -0.003445  2.228453  -0.006  -0.286481  -0.517568  -0.011628  2.243181  -0.016
O  O83  1  0.11349713  0.50232565  0.25319010  1  -0.594029  -0.013745  2.019462  -0.018  -0.536193  -0.007423  2.237619  -0.011  -0.561926  -0.003445  2.228472  -0.006  -0.286491  -0.517646  -0.011628  2.243205  -0.016
O  O84  1  0.88098080  0.63272629  0.62443478  1  -0.569003  -0.087831  2.075159  -0.121  -0.539682  -0.060684  2.359296  -0.091  -0.581857  -0.046425  2.35256  -0.075  -0.313762  -0.512047  -0.069592  2.364224  -0.099
O  O85  1  0.11902082  0.36727559  0.37556255  1  -0.569073  -0.087823  2.075006  -0.121  -0.539838  -0.060679  2.359272  -0.091  -0.581982  -0.046421  2.35247  -0.075  -0.313865  -0.512206  -0.069585  2.36421  -0.099
O  O86  1  0.25905777  0.53505143  0.94652638  1  -0.59822  -0.001744  1.937633  -0.002  -0.540766  -0.000812  2.143499  -0.001  -0.566657  -0.000465  2.132871  -0.001  -0.291573  -0.522188  -0.001235  2.149931  -0.002
O  O87  1  0.74094516  0.46494739  0.05347565  1  -0.598253  -0.001742  1.937681  -0.002  -0.540773  -0.000811  2.143542  -0.001  -0.566665  -0.000465  2.132915  -0.001  -0.29154  -0.522195  -0.001235  2.149979  -0.002
O  O88  1  0.14404423  0.32225309  0.82939334  1  -0.708921  -0.000795  2.081087  -0.001  -0.66177  -0.000344  2.325992  -0.001  -0.690387  -0.000129  2.319836  0.0  -0.363056  -0.640666  -0.00065  2.329067  -0.001
O  O89  1  0.85595309  0.67774775  0.17060631  1  -0.708916  -0.000795  2.081072  -0.001  -0.661745  -0.000344  2.325983  -0.001  -0.690358  -0.00013  2.319817  0.0  -0.363031  -0.640639  -0.00065  2.329061  -0.001
