# generated using pymatgen
data_ZnH27C29N3Cl7O4
_symmetry_space_group_name_H-M   'P 1'
_cell_length_a   14.65257134
_cell_length_b   15.91207609
_cell_length_c   19.32466437
_cell_angle_alpha   89.68372437
_cell_angle_beta   90.18688627
_cell_angle_gamma   89.81800086
_symmetry_Int_Tables_number   1
_chemical_formula_structural   ZnH27C29N3Cl7O4
_chemical_formula_sum   'Zn2 H54 C58 N6 Cl14 O8'
_cell_volume   4505.48458769
_cell_formula_units_Z   2
loop_
 _symmetry_equiv_pos_site_id
 _symmetry_equiv_pos_as_xyz
  1  'x, y, z'
loop_
 _atom_site_type_symbol
 _atom_site_label
 _atom_site_symmetry_multiplicity
 _atom_site_fract_x
 _atom_site_fract_y
 _atom_site_fract_z
 _atom_site_occupancy
 _atom_site_pbe_bader_charge
 _atom_site_pbe_bader_spin_density
 _atom_site_pbe_cm5_charge
 _atom_site_pbe_ddec_charge
 _atom_site_pbe_ddec_spin_density
 _atom_site_pbe_ddec_sum_bond_order
 _atom_site_pbe_magmom
Zn  Zn0  1  0.40297441  0.50217299  0.49841896  1  1.322269  0  0.690446  0.887373  0  2.419215  0
Zn  Zn1  1  0.59229408  0.49859283  0.49920241  1  1.322587  0  0.690169  0.887489  0  2.422367  0
H  H2  1  0.51506911  0.07817625  0.60743946  1  0.067373  0  0.098441  0.104089  0  1.026599  0
H  H3  1  0.52708379  0.93046474  0.38903319  1  0.087315  0  0.099481  0.122442  0  0.979444  0
H  H4  1  0.63087116  0.92563750  0.43484406  1  0.037792  0  0.099564  0.114402  0  0.989109  0
H  H5  1  0.36269675  0.92074810  0.52662579  1  0.049925  0  0.095862  0.104941  0  1.016681  0
H  H6  1  0.29415034  0.69548983  0.59681473  1  0.00506  0  0.075751  0.109004  0  1.031084  0
H  H7  1  0.25100779  0.73978406  0.67502815  1  0.04166  0  0.075895  0.098804  0  1.013189  0
H  H8  1  0.33468620  0.79388023  0.62559934  1  0.038471  0  0.079256  0.103625  0  1.040568  0
H  H9  1  0.40865188  0.72397398  0.72895512  1  0.017684  0  0.082432  0.068632  0  1.000236  0
H  H10  1  0.44878019  0.68012996  0.65086948  1  0.037812  0  0.085999  0.08288  0  0.991206  0
H  H11  1  0.33549807  0.56255725  0.66302708  1  0.07186  0  0.091197  0.105386  0  1.016273  0
H  H12  1  0.29768254  0.60610270  0.74202094  1  0.033592  0  0.078754  0.078575  0  1.030789  0
H  H13  1  0.61951857  0.07406999  0.56516830  1  0.02296  0  0.097415  0.103083  0  1.018665  0
H  H14  1  0.68052316  0.28727441  0.60518907  1  0.038476  0  0.080144  0.11218  0  1.026358  0
H  H15  1  0.72880270  0.25315790  0.68573224  1  0.015775  0  0.076348  0.097656  0  1.013703  0
H  H16  1  0.63700167  0.19704090  0.64765562  1  -0.008716  0  0.08072  0.107021  0  1.026476  0
H  H17  1  0.57813478  0.28659375  0.74455111  1  0.002661  0  0.083532  0.073323  0  0.981582  0
H  H18  1  0.53321700  0.32099241  0.66423970  1  0.031873  0  0.086883  0.083062  0  0.984188  0
H  H19  1  0.65184205  0.43348612  0.65779968  1  0.069704  0  0.091941  0.106119  0  1.020438  0
H  H20  1  0.69826014  0.39883768  0.73767523  1  0.037471  0  0.078443  0.078211  0  1.031754  0
H  H21  1  0.83439685  0.15534197  0.47093452  1  0.002017  0  0.076795  0.097906  0  1.012393  0
H  H22  1  0.81683342  0.15874226  0.37993209  1  0.025135  0  0.085269  0.113177  0  0.998576  0
H  H23  1  0.80922301  0.25254379  0.42868012  1  0.000577  0  0.074616  0.09846  0  1.031454  0
H  H24  1  0.91617252  0.36977465  0.47506871  1  0.107292  0  0.117449  0.103929  0  0.958412  0
H  H25  1  0.65256998  0.20313524  0.39914155  1  0.046904  0  0.086862  0.08946  0  0.986152  0
H  H26  1  0.67026380  0.19966450  0.48903396  1  0.050897  0  0.083992  0.079062  0  1.012929  0
H  H27  1  0.69964741  0.04691093  0.48545341  1  0.032825  0  0.088551  0.086174  0  1.026716  0
H  H28  1  0.70084964  0.04787101  0.39480074  1  0.04418  0  0.091731  0.098004  0  0.980102  0
H  H29  1  0.24521132  0.03843331  0.67636855  1  0.015831  0  0.083651  0.109883  0  1.005248  0
H  H30  1  0.21872609  0.14065518  0.64550287  1  -0.001151  0  0.082943  0.108713  0  1.002031  0
H  H31  1  0.13744842  0.05857361  0.63724329  1  -0.01751  0  0.083462  0.107204  0  1.007855  0
H  H32  1  0.21228797  0.08386916  0.52255872  1  0.044909  0  0.079829  0.0732  0  1.00658  0
H  H33  1  0.24152058  0.98353371  0.55434508  1  0.028446  0  0.084492  0.07444  0  0.986291  0
H  H34  1  0.38531752  0.04685715  0.60506310  1  0.03319  0  0.091914  0.092052  0  1.041108  0
H  H35  1  0.06253716  0.37493036  0.50638315  1  0.124657  0  0.120226  0.10869  0  0.942352  0
H  H36  1  0.35798783  0.14355089  0.56465605  1  0.035037  0  0.092102  0.101771  0  0.99179  0
H  H37  1  0.39558505  0.88816298  0.75131491  1  0.010992  0  0.085213  0.113365  0  1.005046  0
H  H38  1  0.51065229  0.86138672  0.77009654  1  0.017519  0  0.086031  0.111108  0  1.004559  0
H  H39  1  0.46052700  0.95148983  0.80850388  1  0.055353  0  0.088367  0.116383  0  0.998654  0
H  H40  1  0.56375647  0.99313021  0.71038885  1  0.045088  0  0.088135  0.075827  0  1.007753  0
H  H41  1  0.45034961  0.02314409  0.69453880  1  -0.011479  0  0.083911  0.068356  0  1.006594  0
H  H42  1  0.42319304  0.90821517  0.61706167  1  0.019786  0  0.086724  0.079555  0  1.032969  0
H  H43  1  0.52075000  0.85359900  0.64299197  1  0.030316  0  0.09349  0.09448  0  0.989955  0
H  H44  1  0.80220651  0.83638702  0.62836207  1  0.026308  0  0.079824  0.10735  0  1.009932  0
H  H45  1  0.83733035  0.93340082  0.59166405  1  0.004677  0  0.081144  0.10485  0  1.009797  0
H  H46  1  0.91017753  0.52154833  0.60968307  1  0.12173  0  0.110523  0.131866  0  0.965681  0
H  H47  1  0.84069077  0.91866128  0.68294237  1  0.054454  0  0.084979  0.11008  0  1.005322  0
H  H48  1  0.70420481  0.00605820  0.64944297  1  0.00616  0  0.085732  0.072231  0  0.987179  0
H  H49  1  0.67064583  0.90935882  0.68632951  1  0.040437  0  0.091466  0.084159  0  0.983734  0
H  H50  1  0.64550527  0.84794420  0.57053928  1  0.021223  0  0.09012  0.089686  0  1.001214  0
H  H51  1  0.68957127  0.93837451  0.53071532  1  0.005837  0  0.085135  0.077175  0  1.034142  0
H  H52  1  0.06213832  0.56749917  0.59620563  1  0.11234  0  0.102634  0.120143  0  0.987676  0
H  H53  1  0.93569444  0.41774812  0.58406732  1  0.078344  0  0.111682  0.12088  0  0.953494  0
H  H54  1  0.08872194  0.45911975  0.60337832  1  0.079273  0  0.117989  0.135844  0  0.937314  0
H  H55  1  0.38556720  0.93008041  0.43780632  1  0.060692  0  0.099988  0.122946  0  0.977577  0
C  C56  1  0.50275449  0.66108580  0.49617164  1  1.605289  0  0.220917  0.675532  0  4.230055  0
C  C57  1  0.56181242  0.95240377  0.43584402  1  -0.007396  0  -0.157928  -0.27665  0  3.820309  0
C  C58  1  0.56697179  0.04972592  0.43506301  1  0.089563  0  0.040375  0.200838  0  3.619874  0
C  C59  1  0.40288124  0.04669690  0.49473044  1  0.130875  0  0.03869  0.205103  0  3.636129  0
C  C60  1  0.49358101  0.24943515  0.50098599  1  -0.480229  0  -0.044682  -0.195786  0  3.944443  0
C  C61  1  0.50773003  0.91887670  0.49912873  1  0.134459  0  0.005564  0.14001  0  3.831922  0
C  C62  1  0.50378897  0.08280142  0.49533763  1  0.182674  0  0.006529  0.054626  0  3.787432  0
C  C63  1  0.49673285  0.50324911  0.63284507  1  1.602506  0  0.222793  0.615487  0  4.145157  0
C  C64  1  0.54983292  0.04937401  0.56355139  1  -0.026107  0  -0.152801  -0.244321  0  3.775119  0
C  C65  1  0.55062814  0.95168849  0.56936354  1  0.027782  0  -0.00184  0.120703  0  3.635028  0
C  C66  1  0.49961729  0.17358008  0.49724204  1  0.11395  0  -0.022536  -0.012794  0  4.065492  0
C  C67  1  0.50628884  0.50990726  0.93255325  1  0.975561  0  0.238451  0.270112  0  3.99915  0
C  C68  1  0.50713965  0.82780046  0.49767135  1  -0.415811  0  -0.019201  -0.015478  0  4.022957  0
C  C69  1  0.50475200  0.75158321  0.49631009  1  0.159765  0  -0.052819  -0.20727  0  3.959694  0
C  C70  1  0.94012059  0.59160792  0.47257554  1  0.268157  0  0.063662  0.133653  0  3.709909  0
C  C71  1  0.04904443  0.58761409  0.45962442  1  0.26831  0  0.060916  0.128453  0  3.744552  0
C  C72  1  0.94629688  0.42694243  0.45293877  1  0.125108  0  -0.042748  0.001541  0  3.796394  0
C  C73  1  0.05157629  0.42178049  0.46528375  1  0.085921  0  -0.041886  0.007282  0  3.782427  0
C  C74  1  0.90916773  0.50134875  0.49758088  1  0.119877  0  0.006785  0.015567  0  3.863732  0
C  C75  1  0.08612718  0.50647204  0.49747420  1  0.123963  0  0.005177  0.014832  0  3.873352  0
C  C76  1  0.05009136  0.50575191  0.57308604  1  -0.069722  0  -0.150119  -0.194375  0  3.839765  0
C  C77  1  0.94770074  0.48428527  0.57176027  1  -0.073519  0  -0.148769  -0.187618  0  3.840757  0
C  C78  1  0.43841865  0.45884194  0.17687799  1  0.091029  0  0.015685  0.067259  0  4.018123  0
C  C79  1  0.18520269  0.50757693  0.49755147  1  0.950814  0  0.227966  0.293965  0  3.916737  0
C  C80  1  0.81015432  0.49830647  0.49879480  1  0.935696  0  0.230491  0.295359  0  3.903744  0
C  C81  1  0.49363185  0.33977101  0.50130327  1  1.719182  0  0.223437  0.676583  0  4.223549  0
C  C82  1  0.49905248  0.49967989  0.36601378  1  1.671419  0  0.210466  0.609767  0  4.196554  0
C  C83  1  0.43068907  0.55082570  0.74632437  1  0.069987  0  -0.006056  0.052514  0  3.922176  0
C  C84  1  0.56795651  0.45917961  0.74581483  1  0.091588  0  -0.005847  0.053098  0  3.924023  0
C  C85  1  0.43583599  0.55224635  0.81887672  1  0.010028  0  0.019982  0.073819  0  3.981324  0
C  C86  1  0.56933183  0.46302696  0.81834946  1  0.032324  0  0.020117  0.073956  0  3.981754  0
C  C87  1  0.50423790  0.50899579  0.85605482  1  0.041847  0  -0.01781  -0.105384  0  4.013233  0
C  C88  1  0.49825152  0.50435043  0.71107918  1  -0.009337  0  -0.002498  -0.096313  0  3.853698  0
C  C89  1  0.56650022  0.55544160  0.18063400  1  0.105116  0  0.014969  0.067196  0  4.01812  0
C  C90  1  0.50548531  0.50973952  0.06530880  1  0.981193  0  0.237354  0.26629  0  3.996863  0
C  C91  1  0.35720767  0.59893742  0.70813793  1  -0.018665  0  -0.17443  -0.204612  0  3.96347  0
C  C92  1  0.38798811  0.68659181  0.68374069  1  -0.012531  0  -0.166376  -0.083602  0  3.935281  0
C  C93  1  0.31250790  0.73149614  0.64318766  1  -0.091091  0  -0.250956  -0.352101  0  3.983374  0
C  C94  1  0.63481262  0.40430038  0.70753713  1  -0.029578  0  -0.174575  -0.206845  0  3.961983  0
C  C95  1  0.59667843  0.31559309  0.69464042  1  0.007232  0  -0.16545  -0.083243  0  3.939111  0
C  C96  1  0.66481021  0.26018345  0.65623516  1  -0.055697  0  -0.250052  -0.35103  0  3.97934  0
C  C97  1  0.66813468  0.07724221  0.43995263  1  -0.059466  0  -0.168312  -0.225907  0  3.919759  0
C  C98  1  0.69147216  0.17082432  0.44015292  1  -0.000756  0  -0.176455  -0.09683  0  3.948216  0
C  C99  1  0.79360389  0.18496521  0.42943291  1  -0.065377  0  -0.246122  -0.341898  0  3.980648  0
C  C100  1  0.43886913  0.45425623  0.24949514  1  0.139378  0  0.013014  0.072455  0  4.023167  0
C  C101  1  0.35110692  0.07496033  0.55987428  1  -0.015065  0  -0.171317  -0.231991  0  3.909451  0
C  C102  1  0.25027479  0.05126754  0.56383150  1  -0.040511  0  -0.172896  -0.087537  0  3.969173  0
C  C103  1  0.21056451  0.07330899  0.63452000  1  -0.007343  0  -0.245469  -0.350191  0  3.982369  0
C  C104  1  0.49494042  0.91740540  0.63190638  1  -0.048438  0  -0.165131  -0.209138  0  3.864143  0
C  C105  1  0.49555905  0.96790332  0.69940619  1  -0.027557  0  -0.169687  -0.099126  0  3.972556  0
C  C106  1  0.46382536  0.91449035  0.76075912  1  -0.073626  0  -0.243283  -0.354594  0  3.974642  0
C  C107  1  0.64922400  0.91686549  0.57526235  1  -0.016843  0  -0.168197  -0.215601  0  3.906603  0
C  C108  1  0.70339403  0.93760199  0.64069464  1  -0.023975  0  -0.166853  -0.088483  0  3.960101  0
C  C109  1  0.80141138  0.90492771  0.63583455  1  -0.093878  0  -0.245602  -0.351494  0  3.988116  0
C  C110  1  0.56365670  0.55379333  0.25330636  1  0.061385  0  0.012504  0.07228  0  4.020987  0
C  C111  1  0.50069845  0.50249376  0.28786936  1  0.095944  0  -0.011598  -0.09557  0  3.912013  0
C  C112  1  0.50316174  0.50855902  0.14186759  1  0.178238  0  -0.01057  -0.078788  0  3.968889  0
C  C113  1  0.40844610  0.95046977  0.48905755  1  -0.036337  0  -0.160819  -0.28072  0  3.850182  0
N  N114  1  0.50860744  0.58515253  0.96444697  1  -0.498024  0  -0.16195  -0.149289  0  3.202545  0
N  N115  1  0.50662044  0.43450982  0.96515943  1  -0.474681  0  -0.159787  -0.145121  0  3.211572  0
N  N116  1  0.50467494  0.58501638  0.03292246  1  -0.573746  0  -0.160991  -0.142778  0  3.20908  0
N  N117  1  0.50972698  0.43444894  0.03346805  1  -0.619631  0  -0.159969  -0.141943  0  3.209503  0
N  N118  1  0.26404420  0.50600635  0.49992208  1  -1.170104  0  -0.267589  -0.262348  0  3.104026  0
N  N119  1  0.73151235  0.49366141  0.50181361  1  -1.156856  0  -0.266079  -0.261212  0  3.094814  0
Cl  Cl120  1  0.07631066  0.58297534  0.37084854  1  -0.122457  0  0.016078  -0.036566  0  1.587439  0
Cl  Cl121  1  0.65073870  0.61184755  0.13999359  1  -0.151483  0  -0.000499  -0.056029  0  1.563699  0
Cl  Cl122  1  0.36475649  0.38807601  0.29152936  1  -0.158585  0  0.005715  -0.032674  0  1.564787  0
Cl  Cl123  1  0.63664760  0.61611640  0.30014063  1  -0.159003  0  -0.000734  -0.038933  0  1.580295  0
Cl  Cl124  1  0.33738727  0.08868929  0.42207199  1  -0.260111  0  -0.060924  -0.167713  0  1.434875  0
Cl  Cl125  1  0.53014843  0.08801670  0.35038802  1  -0.261395  0  -0.061299  -0.166802  0  1.418614  0
Cl  Cl126  1  0.87906313  0.62589113  0.39890053  1  -0.1122  0  0.013696  -0.040338  0  1.591152  0
Cl  Cl127  1  0.90954252  0.42729808  0.36580673  1  -0.167986  0  -0.011161  -0.066738  0  1.510759  0
Cl  Cl128  1  0.11521553  0.38270187  0.39512628  1  -0.159595  0  -0.006642  -0.058002  0  1.488718  0
Cl  Cl129  1  0.91055326  0.66340968  0.54037045  1  -0.152076  0  0.009973  -0.062305  0  1.512844  0
Cl  Cl130  1  0.10613562  0.67693658  0.49419921  1  -0.14616  0  0.012041  -0.052763  0  1.512586  0
Cl  Cl131  1  0.35220498  0.60555229  0.86490987  1  -0.204426  0  -0.002719  -0.070733  0  1.532925  0
Cl  Cl132  1  0.65716823  0.41295034  0.86318711  1  -0.193642  0  -0.004175  -0.074288  0  1.536044  0
Cl  Cl133  1  0.35539670  0.40631783  0.13158451  1  -0.158381  0  0.001822  -0.053183  0  1.563956  0
O  O134  1  0.42749121  0.62687826  0.51349483  1  -1.141901  0  -0.307258  -0.539288  0  2.281373  0
O  O135  1  0.57640701  0.62373871  0.47931715  1  -1.137262  0  -0.316008  -0.550322  0  2.280468  0
O  O136  1  0.42392804  0.47898999  0.60324460  1  -1.157607  0  -0.311976  -0.549485  0  2.311288  0
O  O137  1  0.56907027  0.52689214  0.60223171  1  -1.165538  0  -0.313893  -0.553149  0  2.315784  0
O  O138  1  0.41980405  0.37658812  0.48371000  1  -1.14376  0  -0.313284  -0.54447  0  2.274815  0
O  O139  1  0.56860393  0.37456692  0.51903659  1  -1.145369  0  -0.308297  -0.543779  0  2.274569  0
O  O140  1  0.42596681  0.52433166  0.39431653  1  -1.149338  0  -0.310889  -0.538599  0  2.310989  0
O  O141  1  0.57102113  0.47333336  0.39563671  1  -1.151875  0  -0.312999  -0.540846  0  2.309291  0
