# generated using pymatgen
data_Al2H45C50N2Cl3O14
_symmetry_space_group_name_H-M   'P 1'
_cell_length_a   6.59426789
_cell_length_b   25.56948669
_cell_length_c   28.61378592
_cell_angle_alpha   89.45101890
_cell_angle_beta   91.22152806
_cell_angle_gamma   89.13568315
_symmetry_Int_Tables_number   1
_chemical_formula_structural   Al2H45C50N2Cl3O14
_chemical_formula_sum   'Al4 H90 C100 N4 Cl6 O28'
_cell_volume   4822.74705540
_cell_formula_units_Z   2
loop_
 _symmetry_equiv_pos_site_id
 _symmetry_equiv_pos_as_xyz
  1  'x, y, z'
loop_
 _atom_site_type_symbol
 _atom_site_label
 _atom_site_symmetry_multiplicity
 _atom_site_fract_x
 _atom_site_fract_y
 _atom_site_fract_z
 _atom_site_occupancy
 _atom_site_pbe_bader_charge
 _atom_site_pbe_bader_spin_density
 _atom_site_pbe_cm5_charge
 _atom_site_pbe_ddec_charge
 _atom_site_pbe_ddec_spin_density
 _atom_site_pbe_ddec_sum_bond_order
 _atom_site_pbe_magmom
Al  Al0  1  0.23016434  0.74699316  0.25287753  1  2.499887  0  0.396783  1.64675  0  2.569784  0
Al  Al1  1  0.77393233  0.25043137  0.74555407  1  2.501347  0  0.392492  1.642633  0  2.580374  0
Al  Al2  1  0.72992966  0.74570345  0.25014684  1  2.501573  0  0.392677  1.647055  0  2.572065  0
Al  Al3  1  0.27281622  0.25086210  0.74463195  1  2.500155  0  0.392193  1.646601  0  2.568479  0
H  H4  1  0.29682285  0.57238310  0.42868610  1  0.09796  0  0.111684  0.124278  0  1.021125  0
H  H5  1  0.67058296  0.42018513  0.56866027  1  0.101971  0  0.111033  0.123719  0  1.025649  0
H  H6  1  0.65314245  0.60288868  0.43661399  1  0.093883  0  0.106728  0.108767  0  1.023587  0
H  H7  1  0.31093442  0.44193072  0.59377871  1  0.106978  0  0.106619  0.109731  0  1.019861  0
H  H8  1  0.67081469  0.65957477  0.36604010  1  0.120661  0  0.114474  0.123677  0  1.018908  0
H  H9  1  0.31245292  0.36768466  0.65039941  1  0.156911  0  0.111805  0.120012  0  1.026969  0
H  H10  1  0.24513157  0.61140558  0.05129332  1  0.095246  0  0.10637  0.123576  0  1.012577  0
H  H11  1  0.83542657  0.37057441  0.95475443  1  0.107149  0  0.107146  0.124981  0  1.018295  0
H  H12  1  0.72582066  0.53568935  0.10854085  1  0.087012  0  0.108309  0.127797  0  1.001925  0
H  H13  1  0.23925475  0.47029674  0.87914247  1  0.093996  0  0.108433  0.127357  0  1.010127  0
H  H14  1  0.20437948  0.12626478  0.65607240  1  0.099259  0  0.110098  0.114855  0  1.0005  0
H  H15  1  0.80523274  0.86636477  0.34215073  1  0.128932  0  0.111134  0.116076  0  0.996181  0
H  H16  1  0.20519743  0.05873494  0.59387586  1  0.059931  0  0.097764  0.092794  0  1.025683  0
H  H17  1  0.81367961  0.93291965  0.40513091  1  0.052467  0  0.098293  0.094719  0  1.01934  0
H  H18  1  0.82926969  0.09362394  0.56597691  1  0.064369  0  0.099464  0.094766  0  1.017529  0
H  H19  1  0.19280736  0.89831003  0.43680787  1  0.060725  0  0.098377  0.095053  0  1.018527  0
H  H20  1  0.83108013  0.15738866  0.63121684  1  0.101819  0  0.112448  0.113793  0  0.992626  0
H  H21  1  0.18285617  0.83474399  0.37147934  1  0.107618  0  0.112477  0.1178  0  0.990999  0
H  H22  1  0.82454029  0.00603200  0.54889612  1  0.058773  0  0.099172  0.096292  0  1.013045  0
H  H23  1  0.19869478  0.98623052  0.45162896  1  0.057507  0  0.100462  0.098191  0  1.012  0
H  H24  1  0.81841540  0.94196282  0.48536049  1  0.076739  0  0.100604  0.09835  0  1.011005  0
H  H25  1  0.20477957  0.05033121  0.51504863  1  0.048685  0  0.099186  0.096293  0  1.013927  0
H  H26  1  0.31292048  0.13273880  0.95664580  1  0.083537  0  0.104596  0.120035  0  1.004711  0
H  H27  1  0.71530539  0.96422983  0.11832079  1  0.065075  0  0.103325  0.121563  0  1.002608  0
H  H28  1  0.74634456  0.03474696  0.88536135  1  0.093594  0  0.107115  0.123723  0  1.001413  0
H  H29  1  0.23139044  0.88547739  0.04591065  1  0.055351  0  0.10286  0.1147  0  1.036285  0
H  H30  1  0.82658607  0.01426534  0.96141343  1  0.057334  0  0.099984  0.098736  0  1.016545  0
H  H31  1  0.17172515  0.99047099  0.04111972  1  0.050004  0  0.100654  0.102645  0  1.005803  0
H  H32  1  0.80363276  0.95062438  0.02662124  1  0.038772  0  0.098234  0.096589  0  1.019738  0
H  H33  1  0.19354190  0.05415548  0.97593761  1  0.048955  0  0.101421  0.102705  0  1.008567  0
H  H34  1  0.52850107  0.61294523  0.29846808  1  0.092204  0  0.10606  0.082207  0  0.983561  0
H  H35  1  0.26395978  0.60934298  0.28589030  1  0.061479  0  0.096357  0.060104  0  0.996989  0
H  H36  1  0.50983947  0.53001706  0.34649194  1  0.035322  0  0.091663  0.089407  0  0.973806  0
H  H37  1  0.24736184  0.52648113  0.33358179  1  -0.002971  0  0.087145  0.079938  0  0.98699  0
H  H38  1  0.32631185  0.51971797  0.24657460  1  0.02235  0  0.081091  0.106062  0  1.009485  0
H  H39  1  0.43244900  0.46717557  0.28027157  1  0.006553  0  0.087192  0.115265  0  0.999682  0
H  H40  1  0.58870679  0.51879003  0.26164403  1  0.03559  0  0.07696  0.102199  0  1.035123  0
H  H41  1  0.47476184  0.27681953  0.63060150  1  0.077553  0  0.109904  0.085354  0  0.981262  0
H  H42  1  0.73126206  0.26788245  0.61398131  1  0.056833  0  0.098179  0.060626  0  1.001842  0
H  H43  1  0.39146413  0.31880071  0.55304281  1  0.01328  0  0.088965  0.085077  0  0.986475  0
H  H44  1  0.64568482  0.31054240  0.53589405  1  0.031133  0  0.087155  0.079828  0  0.981626  0
H  H45  1  0.61347043  0.21216064  0.54226536  1  0.025982  0  0.079568  0.104789  0  1.021577  0
H  H46  1  0.42673452  0.23900304  0.50300638  1  0.043604  0  0.085532  0.111742  0  1.003272  0
H  H47  1  0.35995202  0.21989097  0.56043450  1  0.01726  0  0.082658  0.110097  0  1.009331  0
H  H48  1  0.43023401  0.40943904  0.00856775  1  0.051575  0  0.092097  0.048891  0  0.993325  0
H  H49  1  0.31698066  0.36635874  0.96717996  1  0.048464  0  0.093505  0.062355  0  0.992058  0
H  H50  1  0.37779323  0.34248180  0.07197031  1  0.034145  0  0.09232  0.084738  0  0.98306  0
H  H51  1  0.27259586  0.29963198  0.03021489  1  0.036056  0  0.094841  0.091032  0  0.964817  0
H  H52  1  0.60681112  0.29797153  0.98741627  1  0.025148  0  0.076025  0.099527  0  1.05368  0
H  H53  1  0.63858912  0.27623908  0.04614599  1  0.03161  0  0.089018  0.119658  0  0.99394  0
H  H54  1  0.71288063  0.34015387  0.03032412  1  0.027571  0  0.084095  0.115524  0  1.007912  0
H  H55  1  0.70646411  0.62865436  0.03076794  1  0.04366  0  0.089794  0.054824  0  1.006121  0
H  H56  1  0.58876846  0.58615244  0.98956338  1  0.018037  0  0.092941  0.050857  0  0.989932  0
H  H57  1  0.74708547  0.69566166  0.96722112  1  0.026181  0  0.091969  0.084586  0  0.981668  0
H  H58  1  0.62712408  0.65389890  0.92676145  1  0.060441  0  0.093933  0.088749  0  0.9779  0
H  H59  1  0.30369883  0.65798242  0.97263917  1  0.034188  0  0.085418  0.119349  0  1.005528  0
H  H60  1  0.38139459  0.72175328  0.95717225  1  0.036467  0  0.087493  0.117489  0  0.996269  0
H  H61  1  0.42452424  0.69800466  0.01505933  1  0.024788  0  0.075413  0.093298  0  1.059457  0
H  H62  1  0.57694555  0.08921879  0.76324994  1  0.011822  0  0.097074  0.061086  0  0.977884  0
H  H63  1  0.68276068  0.03021181  0.78808137  1  0.010288  0  0.091754  0.048675  0  0.977759  0
H  H64  1  0.89643118  0.10978276  0.72565779  1  0.053158  0  0.096061  0.097866  0  0.993144  0
H  H65  1  0.02523722  0.05797042  0.75591615  1  0.043972  0  0.092491  0.08759  0  0.968896  0
H  H66  1  0.81775719  0.99172019  0.71246526  1  0.021678  0  0.082221  0.105508  0  1.007706  0
H  H67  1  0.93839764  0.03373608  0.67227116  1  0.003341  0  0.083304  0.111349  0  1.0144  0
H  H68  1  0.67727983  0.04264331  0.68323557  1  0.056807  0  0.080762  0.108611  0  1.031376  0
H  H69  1  0.07579462  0.75381727  0.07074588  1  0.033951  0  0.098027  0.067593  0  0.999911  0
H  H70  1  0.18149495  0.80551502  0.03782177  1  0.064152  0  0.096719  0.055284  0  0.995861  0
H  H71  1  0.80970310  0.81433896  0.10056775  1  0.065937  0  0.095632  0.103963  0  0.97628  0
H  H72  1  0.90246893  0.86608800  0.06656333  1  -0.003107  0  0.083491  0.073957  0  1.014463  0
H  H73  1  0.83382594  0.81290080  0.99265276  1  0.003524  0  0.082709  0.104739  0  1.005281  0
H  H74  1  0.61063874  0.82513232  0.02467989  1  0.032954  0  0.083054  0.112331  0  1.030416  0
H  H75  1  0.73221915  0.76273961  0.02813529  1  -0.020983  0  0.085731  0.114013  0  1.011894  0
H  H76  1  0.33202351  0.50763580  0.10824037  1  0.037961  0  0.088624  0.049574  0  0.996755  0
H  H77  1  0.38424366  0.44806405  0.07835377  1  0.038614  0  0.094674  0.05098  0  1.009017  0
H  H78  1  0.21455433  0.45601120  0.17710068  1  0.028022  0  0.092957  0.087796  0  0.974232  0
H  H79  1  0.26068292  0.39719751  0.14682804  1  0.013572  0  0.093038  0.085528  0  0.975469  0
H  H80  1  0.63606200  0.41990508  0.14283792  1  0.034707  0  0.085746  0.11601  0  0.998754  0
H  H81  1  0.55385647  0.41567323  0.20141664  1  0.033468  0  0.088713  0.117742  0  0.999595  0
H  H82  1  0.58639506  0.47771699  0.17485679  1  0.016411  0  0.076784  0.098598  0  1.054302  0
H  H83  1  0.63178056  0.54529144  0.91767013  1  0.038968  0  0.093501  0.049127  0  1.004739  0
H  H84  1  0.69232689  0.48778120  0.88553845  1  0.055987  0  0.092487  0.056242  0  0.981112  0
H  H85  1  0.75282325  0.60083432  0.85212610  1  0.010498  0  0.091684  0.081859  0  0.979337  0
H  H86  1  0.81190819  0.54433144  0.81968061  1  0.017185  0  0.096333  0.093116  0  0.961464  0
H  H87  1  0.44373655  0.51900663  0.81764069  1  0.048469  0  0.075898  0.098593  0  1.056963  0
H  H88  1  0.47048268  0.58300519  0.79466182  1  0.038919  0  0.090166  0.121124  0  0.993424  0
H  H89  1  0.38039897  0.57407918  0.85213782  1  0.038872  0  0.084624  0.113332  0  1.003188  0
H  H90  1  0.47494341  0.68482299  0.22748605  1  0.610178  0  0.337284  0.409719  0  0.904628  0
H  H91  1  0.52157692  0.31664151  0.76024614  1  0.654569  0  0.348917  0.430508  0  0.860823  0
H  H92  1  0.97435948  0.80910127  0.22825585  1  0.637989  0  0.342197  0.422621  0  0.878841  0
H  H93  1  0.03223981  0.19000080  0.77260372  1  0.617603  0  0.350849  0.432182  0  0.855754  0
C  C94  1  0.48659422  0.80865316  0.31421170  1  1.571196  0  0.270115  0.639058  0  4.107123  0
C  C95  1  0.51560471  0.18530716  0.68489561  1  1.54735  0  0.265856  0.622385  0  4.134963  0
C  C96  1  0.46831581  0.81219114  0.18841089  1  1.62269  0  0.261793  0.667822  0  4.106786  0
C  C97  1  0.53891996  0.18984932  0.81114264  1  1.620386  0  0.264067  0.666919  0  4.1092  0
C  C98  1  0.98000444  0.68049876  0.18922897  1  1.613952  0  0.259257  0.657592  0  4.110864  0
C  C99  1  0.03191433  0.31607814  0.80638215  1  1.629845  0  0.260981  0.65811  0  4.123764  0
C  C100  1  0.98999147  0.68415745  0.31562828  1  1.575173  0  0.267371  0.646416  0  4.102857  0
C  C101  1  0.00576507  0.31122112  0.67984078  1  1.548878  0  0.267811  0.648541  0  4.094789  0
C  C102  1  0.16832298  0.62180306  0.37438660  1  0.481541  0  0.09645  0.257374  0  4.021214  0
C  C103  1  0.81265992  0.36651019  0.61757505  1  0.528413  0  0.097496  0.258385  0  4.023113  0
C  C104  1  0.15881417  0.59137947  0.41497209  1  0.000649  0  -0.089644  -0.227875  0  3.95108  0
C  C105  1  0.81262124  0.40867089  0.58620038  1  0.028269  0  -0.091895  -0.229178  0  3.947742  0
C  C106  1  0.97488138  0.58424769  0.43755123  1  -0.044926  0  -0.002528  0.041766  0  4.02844  0
C  C107  1  0.98993052  0.43626792  0.57759520  1  -0.061302  0  -0.002439  0.044358  0  4.018566  0
C  C108  1  0.79676821  0.60824597  0.41922918  1  0.012829  0  -0.087119  -0.125037  0  3.965895  0
C  C109  1  0.17242033  0.42063069  0.60033760  1  -0.015658  0  -0.087145  -0.127817  0  3.961051  0
C  C110  1  0.80734837  0.63983113  0.37963519  1  0.019817  0  -0.077212  -0.066747  0  3.966433  0
C  C111  1  0.17242825  0.37912166  0.63195780  1  -0.045166  0  -0.078432  -0.066563  0  3.975039  0
C  C112  1  0.99081458  0.64755280  0.35654960  1  -0.017542  0  -0.016762  -0.147848  0  3.926119  0
C  C113  1  0.99503407  0.35151759  0.64180463  1  -0.017483  0  -0.019796  -0.155759  0  3.927955  0
C  C114  1  0.98160198  0.48118126  0.54517386  1  0.955436  0  0.241055  0.242988  0  3.982913  0
C  C115  1  0.97300191  0.55102490  0.47958529  1  0.984249  0  0.241455  0.245205  0  3.987317  0
C  C116  1  0.13560781  0.64243892  0.11580907  1  0.05636  0  0.021777  0.144869  0  4.036123  0
C  C117  1  0.91979814  0.34466909  0.88656312  1  0.061343  0  0.019771  0.146771  0  4.039923  0
C  C118  1  0.13028785  0.60854245  0.07791732  1  0.057472  0  -0.097799  -0.21915  0  3.969299  0
C  C119  1  0.92301605  0.37918273  0.92390897  1  0.015089  0  -0.096829  -0.213779  0  3.957863  0
C  C120  1  0.98179511  0.57029793  0.07464091  1  0.017356  0  0.004634  0.150438  0  4.013088  0
C  C121  1  0.03781579  0.42472907  0.92161630  1  0.008144  0  -0.000242  0.138345  0  4.012556  0
C  C122  1  0.83836440  0.56636777  0.10969961  1  0.016076  0  -0.095285  -0.213854  0  3.959565  0
C  C123  1  0.15126919  0.43480558  0.88177090  1  0.06591  0  -0.095064  -0.210856  0  3.955137  0
C  C124  1  0.83968319  0.60175527  0.14640279  1  0.027626  0  0.022127  0.148154  0  4.028635  0
C  C125  1  0.14965140  0.39936758  0.84509711  1  0.044272  0  0.021152  0.150239  0  4.027913  0
C  C126  1  0.98599834  0.64135781  0.15043595  1  0.04273  0  -0.02198  -0.167072  0  3.907562  0
C  C127  1  0.03315474  0.35375630  0.84625457  1  0.018895  0  -0.021419  -0.159724  0  3.924998  0
C  C128  1  0.04395245  0.48081326  0.04424263  1  0.562867  0  0.067103  0.105848  0  4.088167  0
C  C129  1  0.97393815  0.51470243  0.95188533  1  0.5284  0  0.068688  0.108691  0  4.079189  0
C  C130  1  0.06858552  0.44546536  0.00734540  1  0.486396  0  0.068254  0.103091  0  4.088818  0
C  C131  1  0.94904830  0.54997292  0.98886394  1  0.571953  0  0.065379  0.097818  0  4.095932  0
C  C132  1  0.03168337  0.46217036  0.96077097  1  0.015612  0  -0.024245  -0.123736  0  4.02288  0
C  C133  1  0.98612791  0.53313605  0.03522323  1  -0.084376  0  -0.026282  -0.125456  0  4.036732  0
C  C134  1  0.34040557  0.11841181  0.63614093  1  -0.040451  0  -0.080391  -0.089562  0  3.987335  0
C  C135  1  0.67212268  0.87392463  0.36314832  1  -0.084821  0  -0.078803  -0.083289  0  3.979896  0
C  C136  1  0.34134712  0.08129534  0.60099756  1  -0.036296  0  -0.0914  -0.139653  0  3.992662  0
C  C137  1  0.67633498  0.91059760  0.39871913  1  -0.010925  0  -0.09197  -0.136821  0  3.98983  0
C  C138  1  0.51700489  0.07153305  0.57509916  1  0.008485  0  -0.000497  0.079339  0  3.994669  0
C  C139  1  0.50376281  0.92045338  0.42558615  1  -0.058612  0  -0.00405  0.074473  0  4.006067  0
C  C140  1  0.69318144  0.09958957  0.58639910  1  -0.095393  0  -0.08764  -0.135685  0  3.98144  0
C  C141  1  0.32610043  0.89250635  0.41539047  1  -0.0113  0  -0.091703  -0.138538  0  3.989848  0
C  C142  1  0.69448079  0.13575173  0.62237774  1  -0.038526  0  -0.074803  -0.081438  0  3.982006  0
C  C143  1  0.32011339  0.85649269  0.37935038  1  -0.014858  0  -0.077547  -0.078498  0  3.971827  0
C  C144  1  0.51738944  0.14577044  0.64719373  1  -0.004176  0  -0.014722  -0.05233  0  3.993974  0
C  C145  1  0.49345421  0.84686854  0.35304550  1  -0.037605  0  -0.014132  -0.046276  0  3.982357  0
C  C146  1  0.68760891  0.00257111  0.52711962  1  -0.069729  0  -0.091623  -0.125791  0  3.997199  0
C  C147  1  0.33563836  0.98973734  0.47336717  1  -0.032388  0  -0.090378  -0.125037  0  3.993042  0
C  C148  1  0.68425255  0.96632247  0.49119898  1  0.001557  0  -0.090447  -0.124835  0  3.991914  0
C  C149  1  0.33895340  0.02594151  0.50927603  1  -0.079607  0  -0.092206  -0.126174  0  3.998114  0
C  C150  1  0.50816661  0.95906467  0.46354938  1  -0.093918  0  -0.007035  0.067675  0  4.00256  0
C  C151  1  0.51489583  0.03312567  0.53699754  1  0.022878  0  -0.010329  0.061023  0  4.010383  0
C  C152  1  0.41341610  0.16053696  0.89034194  1  0.076677  0  0.019495  0.157714  0  4.045128  0
C  C153  1  0.60094844  0.89555818  0.15234311  1  0.00322  0  0.02309  0.161565  0  4.054393  0
C  C154  1  0.40709772  0.12418810  0.92678005  1  0.003515  0  -0.103371  -0.222306  0  3.977472  0
C  C155  1  0.60845944  0.93225550  0.11609284  1  0.077393  0  -0.111383  -0.247501  0  4.008835  0
C  C156  1  0.52457234  0.07802840  0.92558658  1  0.039622  0  -0.00518  0.107868  0  4.030307  0
C  C157  1  0.47491491  0.92833112  0.07770999  1  -0.004777  0  -0.003569  0.118028  0  4.047122  0
C  C158  1  0.65310294  0.07014352  0.88774949  1  -0.070465  0  -0.102723  -0.259079  0  3.966128  0
C  C159  1  0.33327490  0.88812602  0.07618520  1  0.002567  0  -0.115622  -0.295139  0  3.995333  0
C  C160  1  0.66249434  0.10716398  0.85176894  1  0.469741  0  0.09  0.260895  0  4.050927  0
C  C161  1  0.32992360  0.85043423  0.11199901  1  0.470317  0  0.099386  0.277715  0  4.034937  0
C  C162  1  0.53882946  0.15270343  0.85185555  1  0.045217  0  -0.023488  -0.201995  0  3.920754  0
C  C163  1  0.46513672  0.85376913  0.15117690  1  0.060743  0  -0.028522  -0.218707  0  3.907921  0
C  C164  1  0.68216547  0.00916572  0.97866419  1  -0.085593  0  -0.09164  -0.125925  0  3.993973  0
C  C165  1  0.31510259  0.99539198  0.02335886  1  -0.085157  0  -0.092452  -0.129681  0  3.996899  0
C  C166  1  0.66994437  0.97364274  0.01561611  1  0.023974  0  -0.092878  -0.129577  0  3.995569  0
C  C167  1  0.32825921  0.03156176  0.98695216  1  0.016389  0  -0.091229  -0.127593  0  3.99205  0
C  C168  1  0.48627537  0.96617326  0.03853522  1  -0.042136  0  -0.007626  0.070253  0  3.997399  0
C  C169  1  0.51196070  0.03919212  0.96391073  1  -0.01977  0  -0.008615  0.065978  0  3.998715  0
C  C170  1  0.38448251  0.59816715  0.31152418  1  0.376613  0  -0.065499  0.037637  0  3.865877  0
C  C171  1  0.39291323  0.53916413  0.31947260  1  -0.01456  0  -0.173645  -0.143158  0  3.994147  0
C  C172  1  0.43750482  0.50965618  0.27460403  1  -0.059377  0  -0.246562  -0.34793  0  3.983755  0
C  C173  1  0.59385280  0.29224330  0.60825803  1  0.384108  0  -0.064938  0.03921  0  3.8597  0
C  C174  1  0.52611784  0.29304181  0.55705069  1  0.00293  0  -0.172898  -0.140728  0  3.99022  0
C  C175  1  0.47903686  0.23807560  0.53970011  1  -0.097839  0  -0.246116  -0.347524  0  3.98181  0
C  C176  1  0.32233594  0.37707979  0.00443374  1  0.3678  0  -0.067649  0.038392  0  3.879339  0
C  C177  1  0.38489156  0.33063521  0.03513258  1  -0.016514  0  -0.167014  -0.12774  0  3.985795  0
C  C178  1  0.59728687  0.31025421  0.02403284  1  -0.056964  0  -0.24547  -0.354858  0  3.967519  0
C  C179  1  0.69736544  0.61840901  0.99341797  1  0.411372  0  -0.069658  0.036889  0  3.887809  0
C  C180  1  0.63096788  0.66535353  0.96375839  1  -0.034235  0  -0.16719  -0.129021  0  3.982756  0
C  C181  1  0.42390579  0.68684408  0.97802480  1  -0.081056  0  -0.24606  -0.356637  0  3.972295  0
C  C182  1  0.71887764  0.07037474  0.77659800  1  0.426774  0  -0.064332  0.047735  0  3.892749  0
C  C183  1  0.87927900  0.06975499  0.73930726  1  0.001382  0  -0.168799  -0.134603  0  3.968087  0
C  C184  1  0.82482539  0.03237472  0.69974964  1  -0.077946  0  -0.246204  -0.352712  0  3.982344  0
C  C185  1  0.09317072  0.79646250  0.06914986  1  0.405497  0  -0.066391  0.034762  0  3.890689  0
C  C186  1  0.88604659  0.82335488  0.06772547  1  -0.000789  0  -0.173743  -0.140316  0  3.964646  0
C  C187  1  0.75885366  0.80505225  0.02593781  1  -0.015003  0  -0.244867  -0.345706  0  3.964666  0
C  C188  1  0.28791819  0.46623338  0.10498831  1  0.392759  0  -0.068029  0.04343  0  3.890397  0
C  C189  1  0.31352016  0.43752093  0.15130125  1  0.015797  0  -0.166558  -0.129556  0  3.987753  0
C  C190  1  0.53463751  0.43770543  0.16846448  1  -0.067061  0  -0.244769  -0.353919  0  3.970956  0
C  C191  1  0.73154396  0.52926503  0.89061886  1  0.364525  0  -0.066097  0.044913  0  3.886984  0
C  C192  1  0.70674015  0.56032256  0.84547528  1  0.03242  0  -0.166494  -0.127061  0  3.987186  0
C  C193  1  0.48838549  0.55900689  0.82653869  1  -0.101603  0  -0.245206  -0.354972  0  3.976017  0
N  N194  1  0.79358587  0.53265883  0.49425091  1  -0.602004  0  -0.152411  -0.142911  0  3.206564  0
N  N195  1  0.15420957  0.50741369  0.53713491  1  -0.504526  0  -0.152125  -0.140428  0  3.209014  0
N  N196  1  0.79761182  0.49738097  0.52805267  1  -0.512143  0  -0.152933  -0.141438  0  3.207187  0
N  N197  1  0.14980007  0.54346010  0.50396708  1  -0.600936  0  -0.154491  -0.144499  0  3.201153  0
Cl  Cl198  1  0.26824562  0.21718138  0.89505541  1  -0.197354  0  -0.001686  -0.067031  0  1.542775  0
Cl  Cl199  1  0.76508242  0.90482383  0.19964032  1  -0.203526  0  0.001883  -0.065934  0  1.476224  0
Cl  Cl200  1  0.33513564  0.68560771  0.11776578  1  -0.180731  0  0.038079  -0.029912  0  1.63812  0
Cl  Cl201  1  0.77504725  0.28914230  0.89172390  1  -0.18936  0  0.014187  -0.052045  0  1.58431  0
Cl  Cl202  1  0.65969995  0.59216521  0.18882484  1  -0.202714  0  0.028978  -0.057207  0  1.620864  0
Cl  Cl203  1  0.28991727  0.41438631  0.79623299  1  -0.204061  0  0.012218  -0.057902  0  1.480311  0
O  O204  1  0.64246960  0.79434887  0.20076381  1  -1.252924  0  -0.239619  -0.604358  0  2.388961  0
O  O205  1  0.36829450  0.19885928  0.79087055  1  -1.257669  0  -0.237409  -0.601159  0  2.355337  0
O  O206  1  0.31234517  0.79453745  0.29972543  1  -1.253073  0  -0.230807  -0.579716  0  2.352069  0
O  O207  1  0.68524978  0.19683202  0.70385143  1  -1.261593  0  -0.230752  -0.584235  0  2.372046  0
O  O208  1  0.15840096  0.70197986  0.30258775  1  -1.251264  0  -0.226799  -0.575518  0  2.394863  0
O  O209  1  0.84144476  0.29072533  0.69269197  1  -1.261428  0  -0.227997  -0.58403  0  2.414367  0
O  O210  1  0.29977406  0.79816473  0.20470629  1  -1.249535  0  -0.234833  -0.594045  0  2.358322  0
O  O211  1  0.70835207  0.20812719  0.79942556  1  -1.249253  0  -0.232419  -0.593702  0  2.37952  0
O  O212  1  0.14823723  0.69251579  0.20826849  1  -1.24938  0  -0.237273  -0.600502  0  2.401047  0
O  O213  1  0.86123150  0.30631164  0.78731920  1  -1.246244  0  -0.234453  -0.591498  0  2.347563  0
O  O214  1  0.65483699  0.79324762  0.29774629  1  -1.268376  0  -0.23213  -0.586289  0  2.350893  0
O  O215  1  0.34388225  0.20458996  0.69559401  1  -1.257052  0  -0.233196  -0.583878  0  2.35761  0
O  O216  1  0.48057787  0.71406487  0.24888064  1  -1.41581  0  -0.448846  -0.98293  0  2.218269  0
O  O217  1  0.52176608  0.28277157  0.74522421  1  -1.456669  0  -0.447557  -0.984782  0  2.203708  0
O  O218  1  0.80660768  0.69841367  0.19969172  1  -1.2483  0  -0.237121  -0.591098  0  2.387134  0
O  O219  1  0.20313063  0.29747808  0.79512839  1  -1.247185  0  -0.234219  -0.601984  0  2.401709  0
O  O220  1  0.81834911  0.69563329  0.29639783  1  -1.258596  0  -0.234126  -0.589823  0  2.348042  0
O  O221  1  0.17938562  0.30066198  0.69849325  1  -1.259231  0  -0.234619  -0.590753  0  2.352209  0
O  O222  1  0.97723732  0.77815896  0.24825175  1  -1.441481  0  -0.449253  -0.98901  0  2.215099  0
O  O223  1  0.02594936  0.21778440  0.74914673  1  -1.418022  0  -0.449184  -0.988042  0  2.194368  0
O  O224  1  0.35509332  0.62588281  0.35470339  1  -1.073233  0  -0.193061  -0.226338  0  2.545828  0
O  O225  1  0.62828075  0.34458242  0.62511903  1  -1.074041  0  -0.191636  -0.223086  0  2.551232  0
O  O226  1  0.12348202  0.39482597  0.01890324  1  -1.072725  0  -0.200668  -0.224879  0  2.554815  0
O  O227  1  0.89424957  0.60082482  0.97774921  1  -1.064204  0  -0.201869  -0.222399  0  2.541819  0
O  O228  1  0.79678764  0.09916599  0.81619995  1  -1.073736  0  -0.204682  -0.245155  0  2.503311  0
O  O229  1  0.20992216  0.80790471  0.11077049  1  -1.06421  0  -0.174054  -0.19393  0  2.587877  0
O  O230  1  0.07772839  0.46422491  0.08970943  1  -1.068495  0  -0.204998  -0.225792  0  2.533976  0
O  O231  1  0.94055684  0.53213248  0.90670112  1  -1.062625  0  -0.203615  -0.227517  0  2.548881  0
