# generated using pymatgen
data_CuH14C10S(NO3)2
_symmetry_space_group_name_H-M   'P 1'
_cell_length_a   7.13958757
_cell_length_b   10.68963522
_cell_length_c   10.68969397
_cell_angle_alpha   91.99099980
_cell_angle_beta   100.92318061
_cell_angle_gamma   100.92253082
_symmetry_Int_Tables_number   1
_chemical_formula_structural   CuH14C10S(NO3)2
_chemical_formula_sum   'Cu2 H28 C20 S2 N4 O12'
_cell_volume   784.42560621
_cell_formula_units_Z   2
loop_
 _symmetry_equiv_pos_site_id
 _symmetry_equiv_pos_as_xyz
  1  'x, y, z'
loop_
 _atom_site_type_symbol
 _atom_site_label
 _atom_site_symmetry_multiplicity
 _atom_site_fract_x
 _atom_site_fract_y
 _atom_site_fract_z
 _atom_site_occupancy
 _atom_site_hle17_ddec_charge
 _atom_site_hle17_ddec_spin_density
 _atom_site_hle17_ddec_sum_bond_order
 _atom_site_hle17_magmom
 _atom_site_hse06_10hf_ddec_charge
 _atom_site_hse06_10hf_ddec_spin_density
 _atom_site_hse06_10hf_ddec_sum_bond_order
 _atom_site_hse06_10hf_magmom
 _atom_site_hse06_ddec_charge
 _atom_site_hse06_ddec_spin_density
 _atom_site_hse06_ddec_sum_bond_order
 _atom_site_hse06_magmom
 _atom_site_pbe_cm5_charge
 _atom_site_pbe_ddec_charge
 _atom_site_pbe_ddec_spin_density
 _atom_site_pbe_ddec_sum_bond_order
 _atom_site_pbe_magmom
Cu  Cu0  1  0.74999621  0.31830786  0.68168819  1  0.921628  -0.767442  1.726702  -0.538  0.89805  -0.827385  2.102354  -0.644  0.978042  -0.896487  2.043887  -0.721  0.744523  0.848315  -0.778555  2.143293  -0.595
Cu  Cu1  1  0.25001391  0.68169056  0.31832060  1  0.921793  0.767434  1.726312  0.538  0.898174  0.827375  2.101971  0.644  0.978146  0.896469  2.043543  0.721  0.744558  0.848497  0.778545  2.142933  0.595
H  H2  1  0.79564270  0.55171754  0.61723134  1  0.422795  7.9e-05  0.885306  0.001  0.393356  -0.000478  0.9475  0.0  0.405057  -0.000319  0.930763  0.0  0.289518  0.385042  -0.000604  0.959321  -0.001
H  H3  1  0.70435929  0.38277096  0.44828073  1  0.422807  7.7e-05  0.885295  0.001  0.393355  -0.000478  0.947504  0.0  0.405057  -0.000319  0.930766  0.0  0.289503  0.385043  -0.000604  0.959324  -0.001
H  H4  1  0.20435358  0.44827789  0.38277109  1  0.422767  -7.8e-05  0.885326  -0.001  0.393325  0.000478  0.947525  0.0  0.405025  0.000319  0.93079  0.0  0.28949  0.385013  0.000603  0.959345  0.001
H  H5  1  0.29564816  0.61722361  0.55172293  1  0.422729  -7.8e-05  0.885366  -0.001  0.393308  0.000479  0.94753  0.0  0.405007  0.00032  0.930796  0.0  0.289524  0.384997  0.000604  0.959347  0.001
H  H6  1  0.59886620  0.50923887  0.66904205  1  0.415122  0.000169  0.899208  0.001  0.382883  -0.000363  0.966945  0.0  0.394548  -0.000187  0.950205  0.0  0.285543  0.374754  -0.000533  0.978515  0.0
H  H7  1  0.90113809  0.33096065  0.49075987  1  0.415164  0.000167  0.899213  0.001  0.382911  -0.000363  0.96696  0.0  0.394578  -0.000188  0.95022  0.0  0.285536  0.37478  -0.000534  0.978533  0.0
H  H8  1  0.40114432  0.49075668  0.33096013  1  0.415156  -0.000169  0.899198  -0.001  0.382975  0.000362  0.966845  0.0  0.394641  0.000187  0.950105  0.0  0.285548  0.374848  0.000533  0.978412  0.0
H  H9  1  0.09885859  0.66903669  0.50923800  1  0.415118  -0.000168  0.899263  -0.001  0.382864  0.000363  0.967013  0.0  0.39453  0.000188  0.950273  0.0  0.285517  0.374734  0.000534  0.978583  0.0
H  H10  1  0.04559836  0.28724425  0.89674931  1  0.097024  -0.001477  0.947576  -0.002  0.105133  -0.001092  1.008445  -0.002  0.106896  -0.00077  1.006188  -0.001  0.120018  0.103453  -0.001259  1.010441  -0.002
H  H11  1  0.45440798  0.10325141  0.71276603  1  0.096958  -0.001471  0.947796  -0.002  0.105152  -0.001092  1.008545  -0.002  0.106916  -0.00077  1.006285  -0.001  0.120019  0.103449  -0.001258  1.010569  -0.002
H  H12  1  0.95442111  0.71277711  0.10325949  1  0.096958  0.001474  0.94777  0.002  0.105161  0.001091  1.008525  0.002  0.106925  0.00077  1.006266  0.001  0.120029  0.103449  0.001257  1.010561  0.002
H  H13  1  0.54561100  0.89676329  0.28724248  1  0.097107  0.001478  0.947771  0.002  0.105278  0.001091  1.008546  0.002  0.107041  0.00077  1.006292  0.001  0.120048  0.103598  0.001257  1.010544  0.002
H  H14  1  0.10270526  0.31332697  0.13711135  1  0.108497  -0.00058  0.950064  -0.001  0.119195  -0.000487  1.005789  -0.001  0.122263  -0.00035  1.004878  0.0  0.107581  0.116867  -0.000486  1.006589  -0.001
H  H15  1  0.39729005  0.86288724  0.68668439  1  0.10845  -0.000584  0.950046  -0.001  0.119154  -0.000488  1.005782  -0.001  0.122221  -0.00035  1.004863  0.0  0.107553  0.116826  -0.000486  1.006583  -0.001
H  H16  1  0.89729407  0.68669422  0.86289141  1  0.108469  0.000585  0.950033  0.001  0.119178  0.000488  1.005762  0.001  0.12224  0.00035  1.004846  0.0  0.107542  0.116845  0.000486  1.006562  0.001
H  H17  1  0.60271157  0.13712728  0.31331559  1  0.108524  0.000582  0.950028  0.001  0.11921  0.000488  1.005793  0.001  0.122276  0.00035  1.004873  0.0  0.107592  0.116875  0.000486  1.006588  0.001
H  H18  1  0.83932800  0.37384212  0.23861764  1  0.109519  -0.000583  0.937447  -0.001  0.120595  -0.000184  0.993579  0.0  0.12289  -9e-05  0.991572  0.0  0.11286  0.118929  -0.000422  0.994815  0.0
H  H19  1  0.66066223  0.76137957  0.62616280  1  0.109462  -0.000588  0.937576  -0.001  0.120555  -0.000184  0.993677  0.0  0.122851  -9.1e-05  0.991667  0.0  0.112831  0.118838  -0.000421  0.994985  0.0
H  H20  1  0.16066499  0.62616186  0.76138379  1  0.10948  0.000593  0.937614  0.001  0.120569  0.000184  0.99373  0.0  0.122864  9e-05  0.991722  0.0  0.11286  0.118855  0.000422  0.995034  0.0
H  H21  1  0.33931319  0.23861853  0.37382987  1  0.109491  0.000582  0.937571  0.001  0.120627  0.000184  0.993635  0.0  0.122921  9e-05  0.991628  0.0  0.112868  0.118946  0.000422  0.994894  0.0
H  H22  1  0.52930838  0.39952267  0.09835267  1  0.107386  -0.000771  0.946579  -0.001  0.117235  -0.000675  1.004858  -0.001  0.11966  -0.000473  1.005101  -0.001  0.108683  0.115232  -0.000732  1.005121  -0.001
H  H23  1  0.97067998  0.90164023  0.60047254  1  0.107338  -0.00077  0.946622  -0.001  0.117166  -0.000675  1.004934  -0.001  0.119606  -0.000473  1.005162  -0.001  0.108687  0.115166  -0.000732  1.005199  -0.001
H  H24  1  0.47068177  0.60047175  0.90164435  1  0.107324  0.000772  0.946643  0.001  0.117172  0.000675  1.004924  0.001  0.119601  0.000473  1.005165  0.001  0.108694  0.11517  0.000732  1.005189  0.001
H  H25  1  0.02930241  0.09834745  0.39951961  1  0.107354  0.000769  0.946552  0.001  0.117222  0.000675  1.004806  0.001  0.119642  0.000473  1.005054  0.001  0.108686  0.11522  0.000732  1.005071  0.001
H  H26  1  0.49369270  0.36704273  0.85977864  1  0.086134  -0.00153  0.966937  -0.003  0.090516  -0.001139  1.036117  -0.002  0.0922  -0.000797  1.033676  -0.001  0.116982  0.088835  -0.001319  1.038173  -0.002
H  H27  1  0.00629558  0.14021407  0.63294692  1  0.086174  -0.001537  0.966907  -0.003  0.090514  -0.001139  1.036123  -0.002  0.09222  -0.000798  1.033657  -0.001  0.116965  0.088835  -0.001319  1.038177  -0.002
H  H28  1  0.50630803  0.63294891  0.14021854  1  0.086142  0.001535  0.966998  0.003  0.090497  0.001138  1.036195  0.002  0.092208  0.000797  1.033725  0.001  0.116977  0.088819  0.001318  1.038244  0.002
H  H29  1  0.99370817  0.85977854  0.36704690  1  0.086162  0.001534  0.967001  0.003  0.090513  0.001138  1.036195  0.002  0.092246  0.000797  1.033697  0.001  0.116989  0.088835  0.001318  1.038249  0.002
C  C30  1  0.93484957  0.30938916  0.94655879  1  0.117721  0.009406  3.688556  0.01  0.089299  0.000855  3.941884  0.002  0.098149  0.002144  3.961669  0.003  0.046881  0.08371  7e-06  3.928872  0.001
C  C31  1  0.56514283  0.05343726  0.69061579  1  0.117751  0.009377  3.689094  0.01  0.089298  0.000854  3.942375  0.002  0.098149  0.002144  3.962157  0.003  0.046863  0.083728  6e-06  3.929374  0.001
C  C32  1  0.06515368  0.69062540  0.05344793  1  0.117927  -0.009396  3.688608  -0.01  0.089486  -0.000858  3.941884  -0.002  0.098335  -0.002145  3.961659  -0.003  0.046927  0.083922  -8e-06  3.928885  -0.001
C  C33  1  0.43486577  0.94656208  0.30938163  1  0.117641  -0.009409  3.688692  -0.01  0.089224  -0.000858  3.941965  -0.002  0.098069  -0.002144  3.961747  -0.003  0.046951  0.083635  -8e-06  3.928956  -0.001
C  C34  1  0.96480599  0.32412798  0.07906628  1  -0.113817  -0.013348  3.731311  -0.014  -0.123643  -0.004382  3.976099  -0.005  -0.13161  -0.00401  3.99769  -0.005  -0.081221  -0.118504  -0.004526  3.961951  -0.005
C  C35  1  0.53518865  0.92093877  0.67588782  1  -0.113924  -0.013326  3.731674  -0.014  -0.123813  -0.00438  3.976514  -0.005  -0.131774  -0.00401  3.998097  -0.005  -0.08127  -0.118663  -0.004525  3.962345  -0.005
C  C36  1  0.03519760  0.67588848  0.92093399  1  -0.114021  0.013332  3.731399  0.014  -0.123888  0.004383  3.976249  0.005  -0.131842  0.004009  3.997826  0.005  -0.081232  -0.118734  0.004526  3.962069  0.005
C  C37  1  0.46481056  0.07907671  0.32411754  1  -0.113871  0.013344  3.731368  0.014  -0.123722  0.004385  3.97619  0.005  -0.13168  0.00401  3.997778  0.005  -0.08126  -0.118567  0.004527  3.962023  0.005
C  C38  1  0.81879259  0.35746799  0.13553764  1  0.02017  0.012159  3.687121  0.011  -0.001584  0.003064  3.936029  0.003  0.003294  0.003401  3.953835  0.003  -0.060149  -0.004974  0.002956  3.92429  0.003
C  C39  1  0.68119117  0.86445430  0.64253942  1  0.020422  0.012175  3.686705  0.011  -0.00131  0.003066  3.935543  0.003  0.003571  0.003403  3.953351  0.003  -0.060013  -0.004664  0.002958  3.923828  0.003
C  C40  1  0.18120034  0.64254646  0.86445761  1  0.020318  -0.012178  3.687146  -0.011  -0.001452  -0.003066  3.936035  -0.003  0.003423  -0.003399  3.953848  -0.003  -0.060155  -0.00481  -0.002956  3.924312  -0.003
C  C41  1  0.31879006  0.13554479  0.35744834  1  0.020195  -0.012156  3.687082  -0.011  -0.001611  -0.003066  3.935985  -0.003  0.003263  -0.0034  3.953798  -0.003  -0.060208  -0.004991  -0.002956  3.924256  -0.003
C  C42  1  0.64602612  0.37299778  0.05729872  1  -0.121266  -0.013482  3.730401  -0.014  -0.132472  -0.004508  3.97771  -0.005  -0.140973  -0.004067  4.000606  -0.005  -0.081693  -0.127101  -0.004806  3.962831  -0.006
C  C43  1  0.85396276  0.94269840  0.62699942  1  -0.121193  -0.013487  3.730289  -0.014  -0.132398  -0.004508  3.977581  -0.005  -0.140917  -0.004067  4.000481  -0.005  -0.081702  -0.127023  -0.004805  3.962693  -0.006
C  C44  1  0.35396454  0.62699854  0.94269749  1  -0.121085  0.013484  3.730246  0.014  -0.13226  0.004509  3.977544  0.005  -0.14077  0.004067  4.000454  0.005  -0.081667  -0.126889  0.004805  3.962653  0.006
C  C45  1  0.14602407  0.05730549  0.37298727  1  -0.121137  0.013489  3.729995  0.014  -0.132357  0.004511  3.977317  0.005  -0.140859  0.004067  4.000226  0.005  -0.081645  -0.126987  0.004807  3.962443  0.006
C  C46  1  0.62569780  0.35645553  0.92537912  1  0.114308  0.008818  3.69586  0.009  0.089088  0.000502  3.946094  0.001  0.097518  0.001862  3.966673  0.003  0.044327  0.083694  -0.000405  3.93269  0.0
C  C47  1  0.87429199  0.07461287  0.64353797  1  0.114218  0.008833  3.696104  0.009  0.089056  0.000502  3.946302  0.001  0.097469  0.001863  3.966877  0.003  0.044377  0.083665  -0.000405  3.932899  0.0
C  C48  1  0.37430640  0.64353806  0.07462040  1  0.114199  -0.008829  3.695756  -0.009  0.089008  -0.000503  3.946005  -0.001  0.097414  -0.001865  3.966573  -0.003  0.044358  0.083621  0.000405  3.932602  0.0
C  C49  1  0.12569767  0.92537965  0.35646080  1  0.114318  -0.008827  3.695795  -0.009  0.089151  -0.000505  3.946003  -0.001  0.097544  -0.001863  3.966559  -0.003  0.044397  0.083762  0.000404  3.932606  0.0
S  S50  1  0.25000173  0.37614098  0.62385256  1  1.552304  9.6e-05  5.848899  0.0  1.435061  0.000189  6.387766  0.0  1.49046  0.000162  6.351565  0.0  0.552521  1.39657  0.0002  6.411373  0.0
S  S51  1  0.75000277  0.62384879  0.37614592  1  1.552288  -8.8e-05  5.848848  0.0  1.435011  -0.000194  6.387736  0.0  1.490406  -0.000159  6.351538  0.0  0.552477  1.396534  -0.000199  6.411341  0.0
N  N52  1  0.76852721  0.32596733  0.87150991  1  -0.294225  -0.099157  3.343469  -0.122  -0.249677  -0.062611  3.639544  -0.083  -0.281691  -0.051678  3.664828  -0.072  -0.344147  -0.230008  -0.069147  3.623688  -0.089
N  N53  1  0.73146706  0.12848590  0.67403017  1  -0.294228  -0.099163  3.343454  -0.122  -0.24971  -0.062614  3.639543  -0.083  -0.281729  -0.051682  3.664835  -0.072  -0.344193  -0.230038  -0.069148  3.623681  -0.089
N  N54  1  0.23148217  0.67403871  0.12849719  1  -0.294345  0.099152  3.343016  0.122  -0.249847  0.062611  3.639123  0.083  -0.28185  0.051684  3.664407  0.072  -0.344232  -0.230193  0.069146  3.623283  0.089
N  N55  1  0.26853881  0.87151342  0.32597068  1  -0.294387  0.099169  3.343336  0.122  -0.249879  0.062624  3.63943  0.083  -0.281888  0.051686  3.664727  0.072  -0.344302  -0.230224  0.069156  3.623605  0.089
O  O56  1  0.38112913  0.28408060  0.63905543  1  -0.745578  0.001077  1.971775  0.0  -0.708511  0.001032  2.247614  0.0  -0.72999  0.001119  2.227495  0.001  -0.364926  -0.692785  0.000858  2.261099  0.0
O  O57  1  0.11890013  0.36091420  0.71591346  1  -0.745484  0.001101  1.971806  0.0  -0.708384  0.001038  2.247585  0.0  -0.72986  0.001109  2.227461  0.001  -0.365  -0.692672  0.000858  2.261083  0.0
O  O58  1  0.61888466  0.71591210  0.36094047  1  -0.745599  -0.0011  1.971652  0.0  -0.708549  -0.001037  2.247501  0.0  -0.730022  -0.001109  2.227383  -0.001  -0.365045  -0.692838  -0.000859  2.261001  0.0
O  O59  1  0.88110864  0.63906514  0.28408887  1  -0.74543  -0.001085  1.971926  0.0  -0.708346  -0.001032  2.247729  0.0  -0.729817  -0.001119  2.227612  -0.001  -0.36494  -0.692633  -0.000859  2.261223  0.0
O  O60  1  0.12851902  0.35840635  0.48947606  1  -0.750535  0.000653  1.978247  0.001  -0.676625  0.00044  2.205844  0.001  -0.6989  0.000298  2.187194  0.0  -0.360012  -0.660509  0.000715  2.218154  0.001
O  O61  1  0.37148025  0.51051909  0.64158912  1  -0.75061  0.000639  1.978295  0.001  -0.676744  0.000434  2.205908  0.001  -0.699017  0.000302  2.187261  0.0  -0.3601  -0.660628  0.000715  2.218215  0.001
O  O62  1  0.87149416  0.64157874  0.51052417  1  -0.750539  -0.000649  1.97824  -0.001  -0.676629  -0.000436  2.205841  -0.001  -0.698906  -0.0003  2.187195  0.0  -0.359978  -0.660512  -0.000714  2.218142  -0.001
O  O63  1  0.62850398  0.48947340  0.35841839  1  -0.750618  -0.000638  1.97827  -0.001  -0.676644  -0.000435  2.205788  -0.001  -0.698922  -0.000303  2.187139  0.0  -0.359975  -0.660537  -0.000714  2.2181  -0.001
O  O64  1  0.74179202  0.50516527  0.68703505  1  -0.810209  -0.067656  1.954246  -0.086  -0.781347  -0.045575  2.176922  -0.063  -0.813574  -0.036224  2.145019  -0.052  -0.588698  -0.759079  -0.051675  2.198781  -0.069
O  O65  1  0.75821816  0.31296969  0.49483594  1  -0.81025  -0.067646  1.954225  -0.086  -0.781383  -0.045572  2.176947  -0.063  -0.813604  -0.036222  2.145022  -0.052  -0.588676  -0.759117  -0.051671  2.198812  -0.069
O  O66  1  0.25821287  0.49483024  0.31296929  1  -0.810271  0.067661  1.954198  0.086  -0.781457  0.045579  2.176792  0.063  -0.813677  0.03623  2.144887  0.053  -0.58869  -0.759206  0.051681  2.198671  0.069
O  O67  1  0.24178353  0.68702483  0.50516614  1  -0.810185  0.067651  1.954291  0.086  -0.781283  0.045572  2.176927  0.063  -0.813509  0.036224  2.145036  0.053  -0.588675  -0.759027  0.051671  2.198801  0.069
