# generated using pymatgen
data_NdH19C19(SO4)2
_symmetry_space_group_name_H-M   'P 1'
_cell_length_a   13.51376578
_cell_length_b   13.60328637
_cell_length_c   14.21625321
_cell_angle_alpha   118.58396434
_cell_angle_beta   98.27899935
_cell_angle_gamma   90.00097471
_symmetry_Int_Tables_number   1
_chemical_formula_structural   NdH19C19(SO4)2
_chemical_formula_sum   'Nd4 H76 C76 S8 O32'
_cell_volume   2263.80046518
_cell_formula_units_Z   4
loop_
 _symmetry_equiv_pos_site_id
 _symmetry_equiv_pos_as_xyz
  1  'x, y, z'
loop_
 _atom_site_type_symbol
 _atom_site_label
 _atom_site_symmetry_multiplicity
 _atom_site_fract_x
 _atom_site_fract_y
 _atom_site_fract_z
 _atom_site_occupancy
 _atom_site_pbe_bader_charge
 _atom_site_pbe_bader_spin_density
 _atom_site_pbe_cm5_charge
 _atom_site_pbe_ddec_charge
 _atom_site_pbe_ddec_spin_density
 _atom_site_pbe_ddec_sum_bond_order
 _atom_site_pbe_magmom
Nd  Nd0  1  0.46213776  0.95304122  0.33807918  1  2.244449  0  1.474514  2.09746  0  2.155837  0
Nd  Nd1  1  0.03785891  0.61496334  0.66192019  1  2.245869  0  1.47448  2.097549  0  2.155526  0
Nd  Nd2  1  0.53786115  0.04696506  0.66191789  1  2.244465  0  1.47449  2.09756  0  2.155659  0
Nd  Nd3  1  0.96214081  0.38503674  0.33808244  1  2.245814  0  1.474486  2.097515  0  2.155538  0
H  H4  1  0.58314958  0.83026239  0.98701886  1  0.072555  0  0.106599  0.111974  0  1.003206  0
H  H5  1  0.91685431  0.84324637  0.01298445  1  0.066447  0  0.106629  0.112016  0  1.003192  0
H  H6  1  0.41685300  0.16973332  0.01297776  1  0.072452  0  0.106631  0.111987  0  1.003221  0
H  H7  1  0.08314862  0.15674669  0.98701456  1  0.066266  0  0.106617  0.111997  0  1.003182  0
H  H8  1  0.62615438  0.68810522  0.80869166  1  0.044703  0  0.096594  0.091177  0  1.045954  0
H  H9  1  0.87383793  0.87941307  0.19130669  1  0.054137  0  0.096592  0.091212  0  1.046009  0
H  H10  1  0.37384440  0.31189043  0.19130406  1  0.045226  0  0.096632  0.091262  0  1.045936  0
H  H11  1  0.12616408  0.12058192  0.80869172  1  0.05386  0  0.096633  0.091224  0  1.045962  0
H  H12  1  0.61892706  0.43423621  0.90649445  1  0.081725  0  0.105881  0.116567  0  1.005538  0
H  H13  1  0.88108387  0.52774065  0.09350541  1  0.080469  0  0.105831  0.116463  0  1.005454  0
H  H14  1  0.38108992  0.56576571  0.09351090  1  0.081867  0  0.105841  0.116478  0  1.005467  0
H  H15  1  0.11892597  0.47225197  0.90649569  1  0.080559  0  0.105857  0.116496  0  1.005478  0
H  H16  1  0.57811972  0.57946305  0.08645085  1  0.098546  0  0.100507  0.098741  0  1.042306  0
H  H17  1  0.92189732  0.49301557  0.91355178  1  0.097717  0  0.100506  0.098768  0  1.042241  0
H  H18  1  0.42189185  0.42053739  0.91355049  1  0.098499  0  0.100525  0.098749  0  1.042272  0
H  H19  1  0.07810774  0.50698291  0.08645095  1  0.097784  0  0.100475  0.098724  0  1.04222  0
H  H20  1  0.76035288  0.58407111  0.73707101  1  0.07468  0  0.107987  0.111066  0  1.025676  0
H  H21  1  0.73964449  0.84700331  0.26292679  1  0.07613  0  0.108016  0.111129  0  1.025548  0
H  H22  1  0.23965165  0.41591984  0.26292759  1  0.079626  0  0.107999  0.111033  0  1.025672  0
H  H23  1  0.26035627  0.15300475  0.73707707  1  0.076124  0  0.108038  0.111211  0  1.025582  0
H  H24  1  0.67624785  0.28153529  0.43483069  1  0.11044  0  0.096868  0.087954  0  1.095804  0
H  H25  1  0.82374887  0.84670890  0.56516563  1  0.1538  0  0.096893  0.087997  0  1.0958  0
H  H26  1  0.32375019  0.71846026  0.56516494  1  0.11053  0  0.096893  0.088004  0  1.095772  0
H  H27  1  0.17624431  0.15330400  0.43484134  1  0.154071  0  0.096891  0.087988  0  1.095867  0
H  H28  1  0.54631920  0.33336292  0.71285318  1  0.156634  0  0.114222  0.130501  0  1.028207  0
H  H29  1  0.95367294  0.62050604  0.28714062  1  0.159851  0  0.114192  0.130506  0  1.028113  0
H  H30  1  0.45368009  0.66663390  0.28714036  1  0.156769  0  0.114203  0.130516  0  1.02813  0
H  H31  1  0.04632848  0.37950209  0.71287252  1  0.159776  0  0.114213  0.130477  0  1.028223  0
H  H32  1  0.17049634  0.72433539  0.04159383  1  0.080637  0  0.112  0.174921  0  0.963946  0
H  H33  1  0.32949083  0.68279848  0.95843510  1  0.073953  0  0.111913  0.174732  0  0.963811  0
H  H34  1  0.82950730  0.27566669  0.95841329  1  0.080576  0  0.112016  0.174916  0  0.963863  0
H  H35  1  0.67050876  0.31720037  0.04156462  1  0.073946  0  0.111938  0.174758  0  0.963781  0
H  H36  1  0.07313585  0.70278706  0.10445829  1  0.069865  0  0.100979  0.157756  0  1.048438  0
H  H37  1  0.42685005  0.59838281  0.89558866  1  0.0724  0  0.100912  0.157738  0  1.04821  0
H  H38  1  0.92686537  0.29721322  0.89554454  1  0.069893  0  0.100973  0.157719  0  1.048452  0
H  H39  1  0.57315059  0.40161533  0.10441456  1  0.072223  0  0.100967  0.157778  0  1.048159  0
H  H40  1  0.18910749  0.63590013  0.10403212  1  0.10676  0  0.108519  0.169007  0  0.9935  0
H  H41  1  0.31087917  0.53192252  0.89602879  1  0.106271  0  0.108555  0.168971  0  0.993563  0
H  H42  1  0.81089534  0.36410229  0.89597451  1  0.10675  0  0.108503  0.168964  0  0.993625  0
H  H43  1  0.68911905  0.46807595  0.10397223  1  0.106284  0  0.108578  0.169008  0  0.993565  0
H  H44  1  0.19712726  0.85342080  0.40641419  1  0.094976  0  0.111668  0.176095  0  0.982815  0
H  H45  1  0.30287426  0.44701028  0.59362287  1  0.05916  0  0.111727  0.176144  0  0.982588  0
H  H46  1  0.80287989  0.14658283  0.59359115  1  0.09511  0  0.111723  0.176169  0  0.982716  0
H  H47  1  0.69712763  0.55298630  0.40637545  1  0.060771  0  0.111725  0.176145  0  0.982621  0
H  H48  1  0.18017557  0.70649666  0.30645298  1  0.101804  0  0.109633  0.17595  0  0.980975  0
H  H49  1  0.31981901  0.40006078  0.69359207  1  0.102133  0  0.109636  0.175891  0  0.980877  0
H  H50  1  0.81983095  0.29350811  0.69355516  1  0.101567  0  0.109628  0.175899  0  0.980988  0
H  H51  1  0.68018415  0.59993918  0.30640627  1  0.102873  0  0.109648  0.175926  0  0.980791  0
H  H52  1  0.07952624  0.79716953  0.31593796  1  0.071636  0  0.104579  0.164265  0  0.998836  0
H  H53  1  0.42047122  0.48124806  0.68411201  1  0.07338  0  0.104669  0.164423  0  0.998703  0
H  H54  1  0.92047822  0.20283573  0.68407317  1  0.071535  0  0.104595  0.164305  0  0.998817  0
H  H55  1  0.57953303  0.51874935  0.31588881  1  0.073332  0  0.104693  0.164502  0  0.998708  0
H  H56  1  0.34487851  0.24356643  0.42993463  1  0.105518  0  0.109028  0.170326  0  0.986811  0
H  H57  1  0.15512410  0.81366916  0.57008993  1  0.079423  0  0.109003  0.170243  0  0.986785  0
H  H58  1  0.65511560  0.75641703  0.57005734  1  0.106061  0  0.109  0.170387  0  0.986671  0
H  H59  1  0.84487780  0.18633166  0.42991260  1  0.079387  0  0.108993  0.170241  0  0.986779  0
H  H60  1  0.25867916  0.29740635  0.35965700  1  0.117734  0  0.1087  0.17911  0  1.009438  0
H  H61  1  0.24134046  0.93778312  0.64037384  1  0.118001  0  0.108705  0.179081  0  1.009463  0
H  H62  1  0.74131870  0.70258044  0.64033828  1  0.117833  0  0.108714  0.179113  0  1.009451  0
H  H63  1  0.75866258  0.06221490  0.35962090  1  0.11801  0  0.108758  0.179122  0  1.009426  0
H  H64  1  0.38057649  0.25474346  0.31862715  1  0.078347  0  0.107365  0.170782  0  0.980514  0
H  H65  1  0.11944453  0.93615792  0.68140950  1  0.08546  0  0.107379  0.170674  0  0.980619  0
H  H66  1  0.61942731  0.74525234  0.68137625  1  0.078285  0  0.107385  0.170771  0  0.980566  0
H  H67  1  0.88055822  0.06384727  0.31858817  1  0.085347  0  0.107375  0.170679  0  0.980616  0
H  H68  1  0.28294452  0.14010791  0.12058650  1  0.079827  0  0.101939  0.15975  0  1.003558  0
H  H69  1  0.21706976  0.01953614  0.87944624  1  0.074362  0  0.101977  0.159877  0  1.003537  0
H  H70  1  0.71705283  0.85989721  0.87940857  1  0.079939  0  0.101938  0.159757  0  1.003609  0
H  H71  1  0.78293371  0.98046726  0.12055969  1  0.074701  0  0.102008  0.159876  0  1.003555  0
H  H72  1  0.16036186  0.17122346  0.16228630  1  0.144236  0  0.111941  0.188  0  1.012837  0
H  H73  1  0.33965419  0.00894933  0.83775091  1  0.143013  0  0.11196  0.187973  0  1.012873  0
H  H74  1  0.83963676  0.82878059  0.83771524  1  0.144295  0  0.111928  0.18798  0  1.012881  0
H  H75  1  0.66034904  0.99105726  0.16225484  1  0.142845  0  0.111926  0.187981  0  1.012837  0
H  H76  1  0.18791912  0.02848503  0.08012696  1  0.070813  0  0.108429  0.169217  0  0.967644  0
H  H77  1  0.31208278  0.94835656  0.91989280  1  0.061968  0  0.1085  0.16933  0  0.967545  0
H  H78  1  0.81207730  0.97151920  0.91986472  1  0.070813  0  0.10845  0.169248  0  0.96763  0
H  H79  1  0.68791838  0.05164416  0.08010963  1  0.061993  0  0.108512  0.16934  0  0.967531  0
C  C80  1  0.54508649  0.79506003  0.15067082  1  1.540517  0  0.184877  0.552175  0  4.268577  0
C  C81  1  0.95490958  0.64439227  0.84932832  1  1.538068  0  0.184789  0.551998  0  4.268545  0
C  C82  1  0.45491432  0.20494194  0.84932783  1  1.54031  0  0.184892  0.55223  0  4.268575  0
C  C83  1  0.04508858  0.35560734  0.15067301  1  1.538106  0  0.184748  0.551925  0  4.268816  0
C  C84  1  0.58015036  0.71314095  0.04805275  1  -0.057883  0  -0.020844  -0.034876  0  3.973413  0
C  C85  1  0.91984880  0.66509074  0.95194719  1  -0.011594  0  -0.020839  -0.034764  0  3.973484  0
C  C86  1  0.41985055  0.28685801  0.95194458  1  -0.058011  0  -0.02084  -0.034849  0  3.973531  0
C  C87  1  0.08014567  0.33490582  0.04805193  1  -0.01324  0  -0.020843  -0.034704  0  3.973318  0
C  C88  1  0.59442686  0.74433511  0.96996479  1  -0.005689  0  -0.086077  -0.094956  0  3.99046  0
C  C89  1  0.90557114  0.77437033  0.03003323  1  -0.105989  0  -0.086088  -0.094991  0  3.990519  0
C  C90  1  0.40557555  0.25566405  0.03003275  1  -0.005676  0  -0.086048  -0.094869  0  3.990492  0
C  C91  1  0.09442477  0.22562616  0.96996499  1  -0.102325  0  -0.086069  -0.095023  0  3.990407  0
C  C92  1  0.61800311  0.66480102  0.87077018  1  -0.091876  0  -0.095212  -0.144855  0  3.999607  0
C  C93  1  0.88199136  0.79403077  0.12922836  1  -0.040924  0  -0.095267  -0.144929  0  3.999515  0
C  C94  1  0.38199970  0.33519504  0.12923014  1  -0.092377  0  -0.095355  -0.145096  0  3.99954  0
C  C95  1  0.11800472  0.20595945  0.87076613  1  -0.042229  0  -0.095333  -0.144952  0  3.999591  0
C  C96  1  0.62719554  0.55220377  0.84612563  1  -0.03773  0  -0.005126  0.074394  0  4.001885  0
C  C97  1  0.87279657  0.70607420  0.15386868  1  -0.022106  0  -0.005148  0.074256  0  4.001957  0
C  C98  1  0.37280698  0.44779380  0.15387200  1  -0.037361  0  -0.005089  0.074435  0  4.001842  0
C  C99  1  0.12719945  0.29391928  0.84612823  1  -0.02198  0  -0.005065  0.074486  0  4.001977  0
C  C100  1  0.61338501  0.52156810  0.92503653  1  -0.035416  0  -0.089999  -0.138891  0  3.95854  0
C  C101  1  0.88661961  0.59653329  0.07496033  1  -0.048638  0  -0.08995  -0.138714  0  3.958434  0
C  C102  1  0.38662448  0.47842789  0.07496290  1  -0.036266  0  -0.089953  -0.138733  0  3.958493  0
C  C103  1  0.11338102  0.40346344  0.92504148  1  -0.048704  0  -0.089925  -0.138809  0  3.958513  0
C  C104  1  0.59103280  0.60183775  0.02502241  1  -0.040199  0  -0.085387  -0.09453  0  3.986259  0
C  C105  1  0.90897385  0.57681876  0.97498046  1  -0.03246  0  -0.085366  -0.094564  0  3.986161  0
C  C106  1  0.40897365  0.39816181  0.97497972  1  -0.039717  0  -0.085399  -0.094604  0  3.986277  0
C  C107  1  0.09102453  0.42317344  0.02501684  1  -0.032879  0  -0.085416  -0.094579  0  3.986216  0
C  C108  1  0.64744511  0.47093721  0.73703602  1  -0.032398  0  -0.012246  0.047924  0  4.020796  0
C  C109  1  0.85254514  0.73389715  0.26295777  1  -0.053529  0  -0.012353  0.047817  0  4.021065  0
C  C110  1  0.35255373  0.52905871  0.26296080  1  -0.032479  0  -0.012316  0.04784  0  4.020947  0
C  C111  1  0.14745165  0.26610421  0.73704695  1  -0.042844  0  -0.012276  0.047875  0  4.021123  0
C  C112  1  0.71554592  0.50407730  0.68983637  1  -0.025284  0  -0.077036  -0.129461  0  3.926685  0
C  C113  1  0.78444847  0.81423884  0.31015931  1  -0.014073  0  -0.077062  -0.129478  0  3.926582  0
C  C114  1  0.28445609  0.49591698  0.31016135  1  -0.030231  0  -0.077085  -0.129428  0  3.926664  0
C  C115  1  0.21555471  0.18576607  0.68984394  1  -0.013902  0  -0.077154  -0.129752  0  3.926727  0
C  C116  1  0.72898713  0.43513630  0.58238345  1  -0.098205  0  -0.0207  -0.03846  0  3.978408  0
C  C117  1  0.77101079  0.85275299  0.41761534  1  -0.003558  0  -0.020768  -0.038607  0  3.978609  0
C  C118  1  0.27101350  0.56485831  0.41761625  1  -0.09641  0  -0.020739  -0.038549  0  3.978467  0
C  C119  1  0.22899210  0.14725767  0.58238944  1  -0.003731  0  -0.020737  -0.038366  0  3.978446  0
C  C120  1  0.67097693  0.33322937  0.52025379  1  0.025649  0  -0.078079  -0.102315  0  3.933671  0
C  C121  1  0.82901671  0.81297446  0.47973756  1  -0.105478  0  -0.07806  -0.102226  0  3.933951  0
C  C122  1  0.32901943  0.66676591  0.47973904  1  0.025873  0  -0.078089  -0.10228  0  3.933858  0
C  C123  1  0.17097870  0.18703309  0.52026410  1  -0.105577  0  -0.078048  -0.102205  0  3.933628  0
C  C124  1  0.60676849  0.29626548  0.56775527  1  -0.015078  0  -0.014946  -0.02975  0  3.970243  0
C  C125  1  0.89321758  0.72850465  0.43223498  1  -0.094197  0  -0.014995  -0.029992  0  3.970341  0
C  C126  1  0.39322074  0.70373483  0.43223667  1  -0.015474  0  -0.014962  -0.029834  0  3.970185  0
C  C127  1  0.10677218  0.27149732  0.56776615  1  -0.094315  0  -0.015022  -0.030008  0  3.970162  0
C  C128  1  0.59632637  0.36353393  0.67670681  1  -0.07194  0  -0.069708  -0.129367  0  3.89206  0
C  C129  1  0.90365999  0.68682558  0.32328575  1  -0.005405  0  -0.069505  -0.129153  0  3.891891  0
C  C130  1  0.40366562  0.63646127  0.32328761  1  -0.071698  0  -0.069572  -0.12928  0  3.891778  0
C  C131  1  0.09633669  0.31317808  0.67671958  1  -0.016029  0  -0.069547  -0.129207  0  3.891992  0
C  C132  1  0.80702224  0.47003906  0.53647397  1  1.585596  0  0.224617  0.627919  0  4.180574  0
C  C133  1  0.69297488  0.93356681  0.46352207  1  1.575664  0  0.224713  0.628122  0  4.180506  0
C  C134  1  0.19297650  0.52995189  0.46352712  1  1.583865  0  0.224719  0.627897  0  4.180575  0
C  C135  1  0.30702432  0.06644735  0.53647614  1  1.576304  0  0.224748  0.628032  0  4.180455  0
C  C136  1  0.55022556  0.18423563  0.49807911  1  1.557867  0  0.213217  0.616982  0  4.180607  0
C  C137  1  0.94976186  0.68614721  0.50190903  1  1.570029  0  0.213364  0.61735  0  4.180301  0
C  C138  1  0.44976153  0.81576724  0.50190616  1  1.558385  0  0.213376  0.617371  0  4.180493  0
C  C139  1  0.05022669  0.31384882  0.49809037  1  1.569716  0  0.213453  0.617393  0  4.180115  0
C  C140  1  0.15445376  0.71034952  0.10787221  1  -0.219998  0  -0.229678  -0.496949  0  3.809978  0
C  C141  1  0.34553009  0.60251973  0.89217043  1  -0.205436  0  -0.229491  -0.496583  0  3.809535  0
C  C142  1  0.84554505  0.28965532  0.89213263  1  -0.219899  0  -0.22962  -0.496827  0  3.809938  0
C  C143  1  0.65447256  0.39748048  0.10783150  1  -0.205299  0  -0.229566  -0.496654  0  3.809517  0
C  C144  1  0.16107722  0.79148196  0.32454175  1  -0.215684  0  -0.2243  -0.486086  0  3.775101  0
C  C145  1  0.33892031  0.46695293  0.67550216  1  -0.17957  0  -0.224584  -0.486443  0  3.774878  0
C  C146  1  0.83892850  0.20852316  0.67546589  1  -0.215571  0  -0.224393  -0.486173  0  3.775012  0
C  C147  1  0.66108044  0.53304221  0.32449975  1  -0.181954  0  -0.224609  -0.486554  0  3.774931  0
C  C148  1  0.31739448  0.23911454  0.35152720  1  -0.249233  0  -0.228432  -0.499769  0  3.778923  0
C  C149  1  0.18261662  0.88762223  0.64850253  1  -0.231677  0  -0.228421  -0.499573  0  3.778971  0
C  C150  1  0.68260470  0.76087590  0.64846919  1  -0.249901  0  -0.228486  -0.499879  0  3.778907  0
C  C151  1  0.81738499  0.11237940  0.35149662  1  -0.231515  0  -0.228451  -0.499591  0  3.778917  0
C  C152  1  0.21950681  0.11204697  0.14443216  1  -0.249634  0  -0.231139  -0.5033  0  3.80851  0
C  C153  1  0.28050079  0.96762545  0.85559577  1  -0.23408  0  -0.231366  -0.503655  0  3.808611  0
C  C154  1  0.78049071  0.88795540  0.85556269  1  -0.250339  0  -0.231149  -0.503353  0  3.808569  0
C  C155  1  0.71950026  0.03237828  0.14440798  1  -0.234162  0  -0.231349  -0.503642  0  3.808544  0
S  S156  1  0.20925524  0.82941575  0.23355556  1  1.216653  0  0.30295  0.678127  0  4.071422  0
S  S157  1  0.29073676  0.59587664  0.76647436  1  1.203792  0  0.303073  0.678327  0  4.071574  0
S  S158  1  0.79074351  0.17059024  0.76644958  1  1.216692  0  0.302952  0.678104  0  4.071232  0
S  S159  1  0.70926669  0.40412252  0.23352737  1  1.203981  0  0.302953  0.678222  0  4.071762  0
S  S160  1  0.26201049  0.09806215  0.26263034  1  1.210683  0  0.30169  0.677576  0  4.124422  0
S  S161  1  0.23799012  0.83544954  0.73738543  1  1.211482  0  0.301792  0.67773  0  4.124352  0
S  S162  1  0.73798792  0.90193052  0.73735739  1  1.211197  0  0.301671  0.677648  0  4.124347  0
S  S163  1  0.76201156  0.16455517  0.26261762  1  1.211478  0  0.301783  0.67769  0  4.124432  0
O  O164  1  0.52497890  0.76251963  0.21678100  1  -1.17794  0  -0.370327  -0.61613  0  2.214191  0
O  O165  1  0.97500825  0.54573992  0.78321043  1  -1.179526  0  -0.370298  -0.616046  0  2.214132  0
O  O166  1  0.47502485  0.23748742  0.78322186  1  -1.177876  0  -0.37037  -0.616198  0  2.214102  0
O  O167  1  0.02498973  0.45426032  0.21678901  1  -1.179551  0  -0.370327  -0.616065  0  2.214105  0
O  O168  1  0.53357456  0.89563162  0.16789158  1  -1.179615  0  -0.386466  -0.631886  0  2.180438  0
O  O169  1  0.96643001  0.72774876  0.83211441  1  -1.181217  0  -0.386413  -0.631846  0  2.180289  0
O  O170  1  0.46642532  0.10436945  0.83210367  1  -1.179485  0  -0.386448  -0.631891  0  2.180448  0
O  O171  1  0.03357271  0.27225525  0.16789213  1  -1.181203  0  -0.386357  -0.631788  0  2.180572  0
O  O172  1  0.52027155  0.12827171  0.54174866  1  -1.21944  0  -0.424755  -0.734852  0  2.400667  0
O  O173  1  0.97972261  0.58651722  0.45823813  1  -1.219577  0  -0.424717  -0.734982  0  2.400476  0
O  O174  1  0.47972019  0.87172760  0.45823561  1  -1.219782  0  -0.424785  -0.735053  0  2.400777  0
O  O175  1  0.02027077  0.41348190  0.54175850  1  -1.21937  0  -0.424756  -0.73497  0  2.400356  0
O  O176  1  0.53346337  0.14615574  0.39610044  1  -1.184698  0  -0.37293  -0.608731  0  2.183709  0
O  O177  1  0.96651924  0.75004549  0.60388900  1  -1.184397  0  -0.373108  -0.608951  0  2.183805  0
O  O178  1  0.46652045  0.85385388  0.60388736  1  -1.184807  0  -0.373101  -0.608991  0  2.183874  0
O  O179  1  0.03346592  0.24994809  0.39611298  1  -1.184329  0  -0.373159  -0.608969  0  2.183688  0
O  O180  1  0.81906644  0.40343337  0.43913528  1  -1.206353  0  -0.378155  -0.67995  0  2.341695  0
O  O181  1  0.68093920  0.96430173  0.56086612  1  -1.203401  0  -0.378252  -0.680167  0  2.34174  0
O  O182  1  0.18093431  0.59656177  0.56086663  1  -1.206429  0  -0.378191  -0.67994  0  2.341663  0
O  O183  1  0.31906168  0.03571413  0.43913629  1  -1.203384  0  -0.378194  -0.680039  0  2.341677  0
O  O184  1  0.85652597  0.56419938  0.59883138  1  -1.206377  0  -0.385989  -0.661337  0  2.326385  0
O  O185  1  0.64346705  0.96535953  0.40116818  1  -1.204442  0  -0.385965  -0.661321  0  2.326546  0
O  O186  1  0.14347726  0.43579641  0.40117452  1  -1.206536  0  -0.385993  -0.661301  0  2.326574  0
O  O187  1  0.35653060  0.03464760  0.59883308  1  -1.204899  0  -0.386048  -0.661428  0  2.326442  0
O  O188  1  0.32023448  0.80879481  0.24232415  1  -1.259336  0  -0.417303  -0.652123  0  2.275652  0
O  O189  1  0.17975565  0.56648335  0.75769712  1  -1.25947  0  -0.417362  -0.652246  0  2.275412  0
O  O190  1  0.67976513  0.19121696  0.75767753  1  -1.259337  0  -0.41734  -0.65213  0  2.275436  0
O  O191  1  0.82024481  0.43351683  0.24230560  1  -1.259531  0  -0.417277  -0.652164  0  2.275554  0
O  O192  1  0.34863600  0.02275898  0.23235386  1  -1.26307  0  -0.420446  -0.667117  0  2.249699  0
O  O193  1  0.15135421  0.79042227  0.76765030  1  -1.262118  0  -0.420433  -0.667111  0  2.249617  0
O  O194  1  0.65136448  0.97723319  0.76763088  1  -1.262976  0  -0.420395  -0.667095  0  2.249659  0
O  O195  1  0.84864430  0.20958479  0.23235256  1  -1.262272  0  -0.420459  -0.667132  0  2.249696  0
