# generated using pymatgen
data_NaCu2H27C38N6O5
_symmetry_space_group_name_H-M   'P 1'
_cell_length_a   8.62712188
_cell_length_b   19.22742223
_cell_length_c   21.18696756
_cell_angle_alpha   90.00000698
_cell_angle_beta   90.00007286
_cell_angle_gamma   90.00019671
_symmetry_Int_Tables_number   1
_chemical_formula_structural   NaCu2H27C38N6O5
_chemical_formula_sum   'Na4 Cu8 H108 C152 N24 O20'
_cell_volume   3514.43729066
_cell_formula_units_Z   4
loop_
 _symmetry_equiv_pos_site_id
 _symmetry_equiv_pos_as_xyz
  1  'x, y, z'
loop_
 _atom_site_type_symbol
 _atom_site_label
 _atom_site_symmetry_multiplicity
 _atom_site_fract_x
 _atom_site_fract_y
 _atom_site_fract_z
 _atom_site_occupancy
 _atom_site_pbe_bader_charge
 _atom_site_pbe_bader_spin_density
 _atom_site_pbe_cm5_charge
 _atom_site_pbe_ddec_charge
 _atom_site_pbe_ddec_spin_density
 _atom_site_pbe_ddec_sum_bond_order
 _atom_site_pbe_magmom
Na  Na0  1  0.85478305  0.99709690  0.33792358  1  0.888392  3.8e-05  0.691516  0.867964  1.4e-05  0.546229  0.0
Na  Na1  1  0.64521882  0.00290474  0.83792470  1  0.88838  3.8e-05  0.691525  0.867951  1.4e-05  0.546249  0.0
Na  Na2  1  0.35478061  0.50290444  0.66207646  1  0.888399  3.8e-05  0.691504  0.867966  1.4e-05  0.546214  0.0
Na  Na3  1  0.14522556  0.49709536  0.16207706  1  0.888391  3.8e-05  0.691522  0.867951  1.3e-05  0.546253  0.0
Cu  Cu4  1  0.98512209  0.91902519  0.58816329  1  0.983106  0.452959  0.740963  0.723472  0.620797  2.378908  0.453
Cu  Cu5  1  0.51487900  0.08097590  0.08816282  1  0.983113  0.452957  0.740984  0.723482  0.620795  2.378849  0.453
Cu  Cu6  1  0.48512410  0.58097428  0.41183729  1  0.983111  0.452956  0.740993  0.723506  0.620796  2.378874  0.453
Cu  Cu7  1  0.01487474  0.41902556  0.91183887  1  0.983118  0.452955  0.741011  0.723469  0.620798  2.37891  0.453
Cu  Cu8  1  0.30502708  0.82443164  0.63550636  1  0.970951  -0.448229  0.741177  0.7145  -0.616254  2.398412  -0.448
Cu  Cu9  1  0.19497205  0.17556868  0.13550411  1  0.970994  -0.448231  0.741174  0.714507  -0.616259  2.398434  -0.448
Cu  Cu10  1  0.80503178  0.67556910  0.36449460  1  0.971035  -0.448229  0.74119  0.714472  -0.616255  2.398456  -0.448
Cu  Cu11  1  0.69497018  0.32443150  0.86449579  1  0.970962  -0.448228  0.741176  0.714481  -0.616255  2.39849  -0.448
H  H12  1  0.17230140  0.84494755  0.53470238  1  0.61389  -2.6e-05  0.275467  0.344979  0.000175  1.005369  0.0
H  H13  1  0.32769742  0.15505068  0.03470067  1  0.613873  -2.6e-05  0.275498  0.344999  0.000175  1.005248  0.0
H  H14  1  0.67230625  0.65505144  0.46529709  1  0.613874  -2.5e-05  0.275456  0.344936  0.000174  1.00545  0.0
H  H15  1  0.82769370  0.34494918  0.96529883  1  0.613872  -2.6e-05  0.275475  0.344968  0.000174  1.005368  0.0
H  H16  1  0.14492523  0.05096225  0.43634422  1  0.076098  -1.9e-05  0.105466  0.109845  -3.9e-05  1.012401  0.0
H  H17  1  0.35507949  0.94904123  0.93634084  1  0.07628  -1.9e-05  0.105513  0.109885  -3.9e-05  1.012364  0.0
H  H18  1  0.64492568  0.44903785  0.56365471  1  0.076081  -1.9e-05  0.105457  0.109848  -3.9e-05  1.012428  0.0
H  H19  1  0.85507417  0.55096115  0.06365400  1  0.076125  -1.9e-05  0.105446  0.109828  -3.9e-05  1.012457  0.0
H  H20  1  0.34848073  0.02709337  0.35755669  1  0.057196  0.000172  0.101935  0.094914  2.7e-05  1.034219  0.0
H  H21  1  0.15152142  0.97291062  0.85755462  1  0.057272  0.000172  0.101939  0.094947  2.7e-05  1.03421  0.0
H  H22  1  0.84848046  0.47290704  0.64244282  1  0.0572  0.000172  0.101941  0.094915  2.7e-05  1.034207  0.0
H  H23  1  0.65151848  0.52709509  0.14244154  1  0.057161  0.000172  0.101919  0.094897  2.7e-05  1.034178  0.0
H  H24  1  0.40372263  0.90558246  0.32373124  1  0.062627  0.000128  0.100989  0.09318  8.5e-05  1.02922  0.0
H  H25  1  0.09627362  0.09442100  0.82373188  1  0.062582  0.000128  0.100967  0.093102  8.5e-05  1.029326  0.0
H  H26  1  0.90372420  0.59441739  0.67626788  1  0.062624  0.000128  0.100981  0.093128  8.5e-05  1.029306  0.0
H  H27  1  0.59627253  0.40558526  0.17626891  1  0.062598  0.000128  0.100961  0.093114  8.5e-05  1.029267  0.0
H  H28  1  0.25977282  0.80788075  0.37367936  1  0.035697  -2.1e-05  0.095124  0.088003  -3.1e-05  1.036123  0.0
H  H29  1  0.24022243  0.19212272  0.87367961  1  0.035595  -2.1e-05  0.095118  0.087993  -3.1e-05  1.036077  0.0
H  H30  1  0.75977730  0.69211993  0.62632063  1  0.035669  -2.1e-05  0.095137  0.08804  -3.1e-05  1.036067  0.0
H  H31  1  0.74021811  0.30788168  0.12632362  1  0.035677  -2.1e-05  0.095123  0.088008  -3.1e-05  1.036074  0.0
H  H32  1  0.05746222  0.83127271  0.45385406  1  0.084475  -0.000188  0.103315  0.112054  -0.000207  1.034439  0.0
H  H33  1  0.44253791  0.16873077  0.95385253  1  0.084421  -0.000188  0.103334  0.112102  -0.000207  1.034391  0.0
H  H34  1  0.55746395  0.66872765  0.54614630  1  0.084492  -0.000188  0.103262  0.111972  -0.000207  1.034327  0.0
H  H35  1  0.94253005  0.33127186  0.04614844  1  0.084454  -0.000187  0.103232  0.111923  -0.000207  1.034427  0.0
H  H36  1  0.64522800  0.10939897  0.51510079  1  0.094808  0.001491  0.11579  0.126953  0.000829  0.980345  0.001
H  H37  1  0.85476822  0.89060210  0.01509823  1  0.094701  0.001492  0.115793  0.126956  0.000829  0.980277  0.001
H  H38  1  0.14522566  0.39060061  0.48489956  1  0.094964  0.001491  0.115808  0.126955  0.000829  0.980327  0.001
H  H39  1  0.35476877  0.60939924  0.98490275  1  0.094649  0.001491  0.115796  0.126961  0.000829  0.980274  0.001
H  H40  1  0.54216030  0.13669117  0.62414846  1  0.100755  -6e-05  0.106785  0.100371  -2.7e-05  1.004005  0.0
H  H41  1  0.95783163  0.86330680  0.12414595  1  0.100615  -6e-05  0.10683  0.100437  -2.7e-05  1.004033  0.0
H  H42  1  0.04216204  0.36330721  0.37585089  1  0.100739  -6.1e-05  0.106781  0.100379  -2.7e-05  1.004007  0.0
H  H43  1  0.45783900  0.63669262  0.87585556  1  0.100737  -6.1e-05  0.106816  0.100452  -2.7e-05  1.003971  0.0
H  H44  1  0.64149459  0.06926984  0.71735389  1  0.142358  0.00119  0.116806  0.117945  0.000597  1.038143  0.001
H  H45  1  0.85850343  0.93072814  0.21735181  1  0.142375  0.00119  0.116773  0.117865  0.000597  1.038198  0.001
H  H46  1  0.14150004  0.43072713  0.28264646  1  0.142333  0.00119  0.11683  0.117995  0.000597  1.038124  0.001
H  H47  1  0.35850767  0.56927113  0.78265153  1  0.142468  0.00119  0.11676  0.117823  0.000597  1.038344  0.001
H  H48  1  0.04117376  0.91477534  0.80192605  1  0.097204  2e-05  0.10149  0.108711  5e-06  1.058323  0.0
H  H49  1  0.45882357  0.08522189  0.30192677  1  0.097045  2e-05  0.10152  0.108855  5e-06  1.05838  0.0
H  H50  1  0.54118651  0.58522396  0.19807429  1  0.097159  2e-05  0.101487  0.108765  5e-06  1.058318  0.0
H  H51  1  0.95882535  0.41477557  0.69807469  1  0.097151  2e-05  0.101492  0.10874  5e-06  1.058332  0.0
H  H52  1  0.15315870  0.81994628  0.86670505  1  0.030586  0.000362  0.09618  0.092008  0.000159  0.998309  0.0
H  H53  1  0.34684231  0.18005095  0.36670713  1  0.030511  0.000362  0.09613  0.091888  0.000159  0.998325  0.0
H  H54  1  0.65316734  0.68005371  0.13329536  1  0.030272  0.000362  0.096167  0.091995  0.000159  0.998296  0.0
H  H55  1  0.84684316  0.31994582  0.63329521  1  0.030612  0.000362  0.096189  0.092019  0.000159  0.998323  0.0
H  H56  1  0.16348143  0.69853688  0.82408451  1  0.048298  4.7e-05  0.091551  0.088621  1.8e-05  1.032765  0.0
H  H57  1  0.33652293  0.30146035  0.32408801  1  0.046151  4.8e-05  0.091564  0.088676  1.8e-05  1.032777  0.0
H  H58  1  0.66348418  0.80146417  0.17591449  1  0.048268  4.7e-05  0.091552  0.088659  1.8e-05  1.032726  0.0
H  H59  1  0.83651834  0.19853692  0.67591668  1  0.048328  4.7e-05  0.091558  0.088635  1.8e-05  1.032787  0.0
H  H60  1  0.07255166  0.67612038  0.71450061  1  0.083346  2.8e-05  0.099786  0.096498  -1.5e-05  1.018039  0.0
H  H61  1  0.42744888  0.32387787  0.21450275  1  0.083422  2.8e-05  0.099757  0.09642  -1.5e-05  1.01798  0.0
H  H62  1  0.57255260  0.82387949  0.28549976  1  0.083349  2.8e-05  0.099791  0.096498  -1.5e-05  1.018075  0.0
H  H63  1  0.92744678  0.17612266  0.78550199  1  0.083551  2.8e-05  0.099782  0.096471  -1.5e-05  1.018104  0.0
H  H64  1  0.96816927  0.77207828  0.64894073  1  0.060513  4.9e-05  0.100094  0.112025  -1.3e-05  1.027523  0.0
H  H65  1  0.53182505  0.22791969  0.14894218  1  0.060269  4.9e-05  0.100063  0.111995  -1.3e-05  1.027497  0.0
H  H66  1  0.46817338  0.72792011  0.35105937  1  0.06056  4.9e-05  0.10004  0.111981  -1.3e-05  1.027459  0.0
H  H67  1  0.03182411  0.27208128  0.85105999  1  0.060466  4.9e-05  0.10005  0.111992  -1.3e-05  1.027565  0.0
H  H68  1  0.63801573  0.85640708  0.82450565  1  0.113166  -0.001467  0.122925  0.122434  -0.000803  1.003104  -0.001
H  H69  1  0.86198726  0.14358884  0.32450254  1  0.113055  -0.001467  0.122935  0.122481  -0.000803  1.003108  -0.001
H  H70  1  0.13801748  0.64359341  0.17549380  1  0.113175  -0.001467  0.122934  0.122447  -0.000803  1.00309  -0.001
H  H71  1  0.36198294  0.35640587  0.67549650  1  0.113208  -0.001467  0.122931  0.122432  -0.000803  1.00311  -0.001
H  H72  1  0.70378110  0.72950400  0.83273761  1  0.098587  -1.5e-05  0.107979  0.102772  -3.6e-05  1.009144  0.0
H  H73  1  0.79622191  0.27049243  0.33273779  1  0.098625  -1.5e-05  0.107998  0.102775  -3.6e-05  1.009149  0.0
H  H74  1  0.20377917  0.77049711  0.16726046  1  0.098568  -1.5e-05  0.107969  0.102781  -3.6e-05  1.009062  0.0
H  H75  1  0.29621775  0.22950270  0.66726311  1  0.098594  -1.5e-05  0.107972  0.102798  -3.6e-05  1.009135  0.0
H  H76  1  0.57987723  0.64413624  0.75839423  1  0.14964  -0.001277  0.116101  0.12712  -0.000722  1.008436  -0.001
H  H77  1  0.92012323  0.35586174  0.25839590  1  0.149517  -0.001277  0.116102  0.127134  -0.000722  1.008375  -0.001
H  H78  1  0.07987386  0.85586520  0.24160331  1  0.149757  -0.001277  0.116116  0.127164  -0.000722  1.008354  -0.001
H  H79  1  0.42012676  0.14413514  0.74160554  1  0.149619  -0.001277  0.116093  0.127141  -0.000722  1.008393  -0.001
H  H80  1  0.21399496  0.01252347  0.75237861  1  0.106656  8.8e-05  0.102702  0.111615  6.4e-05  1.046512  0.0
H  H81  1  0.28600570  0.98747270  0.25237320  1  0.106636  8.8e-05  0.102715  0.111556  6.4e-05  1.046469  0.0
H  H82  1  0.71400283  0.48747673  0.24762366  1  0.106728  8.8e-05  0.102711  0.111533  6.4e-05  1.046557  0.0
H  H83  1  0.78599412  0.51252386  0.74762114  1  0.106684  8.9e-05  0.102676  0.111503  6.4e-05  1.046556  0.0
H  H84  1  0.09562329  0.12360483  0.71796450  1  0.078124  -0.000197  0.092568  0.08309  -6.5e-05  1.057352  0.0
H  H85  1  0.40437842  0.87639186  0.21795961  1  0.078177  -0.000197  0.092582  0.083161  -6.5e-05  1.057277  0.0
H  H86  1  0.59563158  0.37639519  0.28203582  1  0.078179  -0.000197  0.092548  0.083162  -6.5e-05  1.057352  0.0
H  H87  1  0.90436316  0.62360696  0.78203243  1  0.078155  -0.000197  0.09258  0.083145  -6.5e-05  1.057275  0.0
H  H88  1  0.10518612  0.15931997  0.60520463  1  0.034379  -0.000135  0.09301  0.088755  -6.1e-05  1.015373  0.0
H  H89  1  0.39481524  0.84067775  0.10519831  1  0.03425  -0.000134  0.092992  0.088799  -6.1e-05  1.015376  0.0
H  H90  1  0.60518753  0.34067955  0.39479617  1  0.034382  -0.000135  0.092989  0.088772  -6.1e-05  1.015349  0.0
H  H91  1  0.89480756  0.65932418  0.89479231  1  0.034377  -0.000134  0.093011  0.088757  -6.1e-05  1.015392  0.0
H  H92  1  0.23491146  0.08122587  0.52680693  1  0.037897  7.6e-05  0.094355  0.090572  9.7e-05  1.021399  0.0
H  H93  1  0.26508733  0.91877339  0.02680386  1  0.037675  7.6e-05  0.094374  0.090573  9.7e-05  1.021407  0.0
H  H94  1  0.73491024  0.41877384  0.47319488  1  0.037833  7.6e-05  0.094385  0.090603  9.7e-05  1.021323  0.0
H  H95  1  0.76508973  0.58122937  0.97319094  1  0.037928  7.6e-05  0.094362  0.090626  9.7e-05  1.02146  0.0
H  H96  1  0.34640401  0.96903088  0.56081188  1  0.053234  -0.000115  0.099106  0.109104  -2.8e-05  1.03219  0.0
H  H97  1  0.15359721  0.03096735  0.06080771  1  0.053409  -0.000115  0.099074  0.109086  -2.8e-05  1.032179  0.0
H  H98  1  0.84640551  0.53096889  0.43919099  1  0.053414  -0.000115  0.09909  0.109095  -2.8e-05  1.032175  0.0
H  H99  1  0.65359784  0.46903328  0.93919076  1  0.053466  -0.000115  0.099092  0.109141  -2.8e-05  1.03214  0.0
H  H100  1  0.36672853  0.75739670  0.49389668  1  0.100391  -1.8e-05  0.099138  0.109564  8e-06  1.015294  0.0
H  H101  1  0.13327173  0.24260263  0.99389499  1  0.100355  -1.8e-05  0.099166  0.109619  8e-06  1.015311  0.0
H  H102  1  0.86672954  0.74260571  0.50610573  1  0.100415  -1.8e-05  0.099129  0.109535  8e-06  1.015271  0.0
H  H103  1  0.63327013  0.25739381  0.00610535  1  0.100405  -1.8e-05  0.099151  0.109575  8e-06  1.015263  0.0
H  H104  1  0.24109879  0.70446906  0.39911196  1  0.068148  8e-06  0.095102  0.0922  3.6e-05  1.03268  0.0
H  H105  1  0.25890233  0.29553181  0.89911129  1  0.068103  8e-06  0.095082  0.092162  3.6e-05  1.03271  0.0
H  H106  1  0.74109703  0.79553211  0.60088802  1  0.068137  8e-06  0.095093  0.09217  3.6e-05  1.032739  0.0
H  H107  1  0.75890525  0.20446690  0.10088817  1  0.068131  8e-06  0.095082  0.092167  3.6e-05  1.032699  0.0
H  H108  1  0.04987013  0.60942549  0.41107303  1  0.094612  0.000326  0.088497  0.080252  0.000222  1.072544  0.0
H  H109  1  0.45012871  0.39057590  0.91107389  1  0.094629  0.000326  0.088502  0.080241  0.000222  1.072585  0.0
H  H110  1  0.54986210  0.89057278  0.58892591  1  0.094601  0.000326  0.08849  0.080263  0.000222  1.072542  0.0
H  H111  1  0.95013667  0.10942570  0.08892567  1  0.094581  0.000326  0.088496  0.080278  0.000222  1.072533  0.0
H  H112  1  0.97822031  0.56828133  0.51967494  1  0.038411  -0.000178  0.095082  0.090892  -4e-05  1.033175  0.0
H  H113  1  0.52177477  0.43172026  0.01967641  1  0.038425  -0.000178  0.095107  0.090946  -4e-05  1.033105  0.0
H  H114  1  0.47821131  0.93171344  0.48032328  1  0.038431  -0.000178  0.094979  0.090735  -4e-05  1.033236  0.0
H  H115  1  0.02178658  0.06828485  0.98032293  1  0.038395  -0.000178  0.095046  0.090856  -4e-05  1.033184  0.0
H  H116  1  0.10538958  0.61887455  0.61286172  1  0.055963  0.000115  0.103731  0.101228  0.000108  1.046711  0.0
H  H117  1  0.39460485  0.38112368  0.11286337  1  0.055779  0.000114  0.103741  0.101231  0.000108  1.046678  0.0
H  H118  1  0.60538201  0.88111964  0.38713772  1  0.055997  0.000114  0.103696  0.101175  0.000108  1.046757  0.0
H  H119  1  0.89461538  0.11887940  0.88713663  1  0.055969  0.000114  0.103712  0.101204  0.000108  1.04672  0.0
C  C120  1  0.08865497  0.94282383  0.45193167  1  0.381329  -0.002608  0.089656  0.242755  -0.001074  4.059297  -0.003
C  C121  1  0.41134863  0.05717965  0.95193058  1  0.381447  -0.002608  0.089658  0.242753  -0.001074  4.059028  -0.003
C  C122  1  0.58865470  0.55717814  0.54806776  1  0.381485  -0.002609  0.089702  0.242866  -0.001074  4.059228  -0.003
C  C123  1  0.91134279  0.44282189  0.04806849  1  0.381516  -0.002609  0.089702  0.24272  -0.001074  4.059291  -0.003
C  C124  1  0.17211982  0.99753013  0.42349912  1  -0.046749  0.014103  -0.094528  -0.189321  0.009476  3.980732  0.009
C  C125  1  0.32788369  0.00247334  0.92349751  1  -0.046682  0.014103  -0.094509  -0.189254  0.009476  3.980602  0.009
C  C126  1  0.67211806  0.50247041  0.57649894  1  -0.04671  0.014104  -0.094542  -0.189391  0.009477  3.98067  0.009
C  C127  1  0.82787951  0.49753015  0.07649915  1  -0.046837  0.014103  -0.094536  -0.189318  0.009476  3.980651  0.009
C  C128  1  0.28543791  0.98389397  0.37853424  1  -0.070414  -0.003267  -0.086492  -0.061925  -0.002191  4.033069  -0.003
C  C129  1  0.21456199  0.01611003  0.87853399  1  -0.070503  -0.003267  -0.086513  -0.061986  -0.002191  4.033235  -0.003
C  C130  1  0.78543755  0.51610571  0.62146576  1  -0.070342  -0.003267  -0.086471  -0.061841  -0.002191  4.033059  -0.003
C  C131  1  0.71456017  0.48389486  0.12146545  1  -0.070301  -0.003267  -0.086458  -0.061871  -0.002191  4.032941  -0.003
C  C132  1  0.31701362  0.91574497  0.35989637  1  -0.074458  0.014636  -0.094391  -0.099862  0.00988  4.018871  0.009
C  C133  1  0.18298042  0.08425746  0.85989753  1  -0.074408  0.014635  -0.094452  -0.099879  0.00988  4.018955  0.009
C  C134  1  0.81701848  0.58425424  0.64010176  1  -0.074554  0.014636  -0.094405  -0.099904  0.00988  4.018967  0.009
C  C135  1  0.68298162  0.41574737  0.14010472  1  -0.0743  0.014634  -0.094377  -0.099866  0.009879  4.018867  0.009
C  C136  1  0.23646863  0.86119469  0.38814013  1  -0.019017  -0.003964  -0.09174  -0.065201  -0.002642  4.017895  -0.003
C  C137  1  0.26353129  0.13880930  0.88814039  1  -0.018939  -0.003964  -0.091677  -0.065162  -0.002642  4.017767  -0.003
C  C138  1  0.73646802  0.63880595  0.61186032  1  -0.01895  -0.003964  -0.091751  -0.065273  -0.002643  4.017763  -0.003
C  C139  1  0.76352734  0.36119462  0.11186332  1  -0.019286  -0.003964  -0.091736  -0.065199  -0.002642  4.01772  -0.003
C  C140  1  0.12428650  0.87419427  0.43406833  1  -0.072779  0.012784  -0.097896  -0.181857  0.008432  3.95107  0.008
C  C141  1  0.37571241  0.12580817  0.93406723  1  -0.07282  0.012781  -0.09797  -0.181961  0.00843  3.951048  0.008
C  C142  1  0.62428912  0.62580568  0.56593159  1  -0.072805  0.012783  -0.097847  -0.181692  0.008431  3.950817  0.008
C  C143  1  0.87570726  0.37419436  0.06593370  1  -0.072661  0.012782  -0.097867  -0.181684  0.008431  3.950934  0.008
C  C144  1  0.87371281  0.00825506  0.49018930  1  1.397449  -0.000144  0.218748  0.440507  0.000689  4.20125  0.001
C  C145  1  0.62628838  0.99174868  0.99019053  1  1.397516  -0.000146  0.218658  0.440344  0.000689  4.201478  0.001
C  C146  1  0.37371248  0.49174643  0.50981069  1  1.39735  -0.000144  0.218737  0.440572  0.000689  4.201299  0.001
C  C147  1  0.12628510  0.50825336  0.00981175  1  1.397523  -0.000145  0.218684  0.44045  0.000689  4.201415  0.001
C  C148  1  0.79322843  0.02839915  0.55024176  1  0.464221  -0.001113  0.124259  0.142552  -0.000294  3.963644  -0.001
C  C149  1  0.70677485  0.97160401  0.05023961  1  0.464419  -0.001113  0.124275  0.142669  -0.000294  3.963562  -0.001
C  C150  1  0.29322545  0.47160117  0.44975913  1  0.464417  -0.001113  0.124247  0.142537  -0.000294  3.963664  -0.001
C  C151  1  0.20677235  0.52839971  0.94976177  1  0.46414  -0.001112  0.124204  0.142408  -0.000293  3.963575  -0.001
C  C152  1  0.68378774  0.08120906  0.55685429  1  0.015202  0.002885  -0.071534  -0.133093  0.002238  3.905729  0.002
C  C153  1  0.81621093  0.91879254  0.05685408  1  0.015311  0.002885  -0.071583  -0.133118  0.002238  3.905769  0.002
C  C154  1  0.18378433  0.41879110  0.44314419  1  0.014987  0.002886  -0.071531  -0.133033  0.002238  3.906001  0.002
C  C155  1  0.31620997  0.58121030  0.94314783  1  0.015448  0.002885  -0.071546  -0.133019  0.002238  3.905849  0.002
C  C156  1  0.62840326  0.09592030  0.61746465  1  -0.068816  -0.003621  -0.06154  -0.017585  -0.002502  3.945087  -0.002
C  C157  1  0.87159444  0.90407819  0.11746163  1  -0.068815  -0.003621  -0.061566  -0.017699  -0.002502  3.945303  -0.002
C  C158  1  0.12840302  0.40407873  0.38253569  1  -0.068836  -0.003621  -0.061499  -0.017542  -0.002502  3.945218  -0.002
C  C159  1  0.37159804  0.59592162  0.88253983  1  -0.069086  -0.003621  -0.061593  -0.017724  -0.002501  3.94532  -0.002
C  C160  1  0.68163068  0.05832508  0.66965193  1  0.027154  0.003291  -0.064752  -0.121464  0.002402  3.878442  0.002
C  C161  1  0.81836718  0.94167341  0.16964984  1  0.027188  0.003291  -0.064668  -0.121274  0.002401  3.878463  0.002
C  C162  1  0.18163521  0.44167299  0.33034843  1  0.027196  0.003291  -0.064815  -0.121617  0.002402  3.878462  0.002
C  C163  1  0.31837265  0.55832683  0.83035207  1  0.027158  0.003291  -0.064637  -0.121259  0.002402  3.878718  0.002
C  C164  1  0.78801125  0.00480785  0.65909972  1  0.511699  -0.001403  0.127817  0.143989  -0.000338  3.940386  -0.001
C  C165  1  0.71199354  0.99519117  0.15909804  1  0.511504  -0.001401  0.127762  0.143775  -0.000338  3.940507  -0.001
C  C166  1  0.28801158  0.49518987  0.34090023  1  0.511669  -0.001403  0.127781  0.143898  -0.000337  3.940465  -0.001
C  C167  1  0.21199400  0.50480944  0.84090475  1  0.511564  -0.001401  0.127789  0.143833  -0.000338  3.940583  -0.001
C  C168  1  0.85274803  0.95658291  0.70838433  1  1.367173  0.001633  0.221547  0.445109  0.001797  4.173695  0.002
C  C169  1  0.64725111  0.04341403  0.20838488  1  1.367186  0.001634  0.221629  0.445178  0.001798  4.173616  0.002
C  C170  1  0.35275981  0.54341323  0.29161618  1  1.366092  0.00164  0.221624  0.445196  0.001798  4.173528  0.002
C  C171  1  0.14725024  0.45658607  0.79161878  1  1.367053  0.001637  0.221604  0.44528  0.001798  4.173453  0.002
C  C172  1  0.99414822  0.85038054  0.72128569  1  0.3899  -0.00042  0.086062  0.252128  0.000478  4.044833  -0.001
C  C173  1  0.50584865  0.14961692  0.22128617  1  0.389493  -0.000418  0.085999  0.252152  0.000478  4.045006  -0.001
C  C174  1  0.49415150  0.64961790  0.27871490  1  0.389817  -0.00042  0.086024  0.252139  0.000478  4.044914  -0.001
C  C175  1  0.00584576  0.35038192  0.77871458  1  0.389838  -0.00042  0.08604  0.252217  0.000478  4.044768  -0.001
C  C176  1  0.04912172  0.86252445  0.78305644  1  -0.099318  0.010003  -0.097877  -0.168354  0.006783  3.946002  0.006
C  C177  1  0.45087903  0.13747121  0.28305715  1  -0.099189  0.010004  -0.097858  -0.168669  0.006784  3.946273  0.006
C  C178  1  0.54912914  0.63747383  0.21694345  1  -0.099192  0.010004  -0.097798  -0.168363  0.006784  3.945872  0.006
C  C179  1  0.95087235  0.36252623  0.71694524  1  -0.099304  0.010003  -0.097893  -0.168417  0.006783  3.94599  0.006
C  C180  1  0.11003644  0.80867120  0.81933158  1  -0.008629  -0.001524  -0.100991  -0.082512  -0.001008  4.056686  -0.001
C  C181  1  0.38996443  0.19132602  0.31933321  1  -0.008719  -0.001523  -0.100816  -0.081981  -0.001008  4.056799  -0.001
C  C182  1  0.61004300  0.69132924  0.18066833  1  -0.008344  -0.001524  -0.100972  -0.082456  -0.001008  4.056745  -0.001
C  C183  1  0.88996533  0.30867029  0.68066915  1  -0.008598  -0.001524  -0.10098  -0.082522  -0.001008  4.056919  -0.001
C  C184  1  0.11640907  0.74083788  0.79565712  1  -0.082333  0.007745  -0.109163  -0.108694  0.005189  4.035439  0.005
C  C185  1  0.38359288  0.25915726  0.29565970  1  -0.080097  0.007742  -0.109425  -0.109207  0.005188  4.036001  0.005
C  C186  1  0.61640811  0.75916206  0.20434138  1  -0.082318  0.007744  -0.109225  -0.108823  0.005188  4.035549  0.005
C  C187  1  0.88359219  0.24083904  0.70434313  1  -0.082287  0.007743  -0.10918  -0.108698  0.005188  4.035606  0.005
C  C188  1  0.06372392  0.72827869  0.73434960  1  -0.066453  -0.001887  -0.101247  -0.083638  -0.001264  4.053771  -0.002
C  C189  1  0.43627321  0.27171956  0.23435221  1  -0.066432  -0.001887  -0.101112  -0.083345  -0.001265  4.053461  -0.002
C  C190  1  0.56372672  0.77172064  0.26565029  1  -0.066437  -0.001887  -0.101238  -0.083604  -0.001264  4.053722  -0.002
C  C191  1  0.93627377  0.22827786  0.76565206  1  -0.066682  -0.001887  -0.101205  -0.083531  -0.001264  4.05364  -0.002
C  C192  1  0.00495244  0.78211685  0.69727822  1  -0.037286  0.007744  -0.105574  -0.196996  0.005172  3.982674  0.005
C  C193  1  0.49504457  0.21788035  0.19727802  1  -0.036898  0.007743  -0.105516  -0.19698  0.005172  3.982582  0.005
C  C194  1  0.50495842  0.71788135  0.30272211  1  -0.037261  0.007743  -0.105502  -0.196948  0.005171  3.982546  0.005
C  C195  1  0.99504450  0.28211976  0.80272298  1  -0.037211  0.007742  -0.10552  -0.197016  0.005171  3.98262  0.005
C  C196  1  0.29026962  0.98296823  0.65924974  1  0.378128  0.001366  0.084537  0.245448  0.000148  4.054665  0.002
C  C197  1  0.20973422  0.01703002  0.15924417  1  0.378104  0.001365  0.084531  0.245687  0.000148  4.054611  0.002
C  C198  1  0.79027418  0.51703198  0.34075310  1  0.378141  0.001366  0.08455  0.245537  0.000148  4.054567  0.002
C  C199  1  0.70972770  0.48296914  0.84075243  1  0.378121  0.001365  0.084527  0.245491  0.000147  4.054503  0.002
C  C200  1  0.21738657  0.02744071  0.70301053  1  -0.082819  -0.012181  -0.095326  -0.161738  -0.008245  3.932981  -0.008
C  C201  1  0.28261278  0.97255754  0.20300511  1  -0.082523  -0.012182  -0.095343  -0.161776  -0.008245  3.932989  -0.008
C  C202  1  0.71739564  0.47256002  0.29699175  1  -0.082799  -0.012181  -0.095343  -0.161631  -0.008245  3.933068  -0.008
C  C203  1  0.78260146  0.52744161  0.79699017  1  -0.082814  -0.01218  -0.095322  -0.161609  -0.008244  3.932938  -0.008
C  C204  1  0.15137983  0.08987128  0.68344094  1  -0.062933  0.002327  -0.102607  -0.085684  0.001526  4.051371  0.002
C  C205  1  0.34862294  0.91012748  0.18343460  1  -0.062844  0.002327  -0.102685  -0.08578  0.001526  4.051595  0.002
C  C206  1  0.65138385  0.41012934  0.31655989  1  -0.062858  0.002327  -0.102676  -0.085872  0.001526  4.051501  0.002
C  C207  1  0.84860984  0.58987281  0.81655694  1  -0.062345  0.002327  -0.102679  -0.085763  0.001525  4.051268  0.002
C  C208  1  0.15742006  0.11028900  0.62012324  1  -0.028716  -0.011306  -0.111022  -0.118794  -0.007656  4.055912  -0.007
C  C209  1  0.34258598  0.88970924  0.12011737  1  -0.029123  -0.011307  -0.11098  -0.118896  -0.007656  4.056187  -0.007
C  C210  1  0.65742180  0.38971164  0.37987853  1  -0.029046  -0.011308  -0.110962  -0.118835  -0.007656  4.056072  -0.007
C  C211  1  0.84257440  0.61029104  0.87987369  1  -0.029387  -0.011305  -0.110859  -0.118635  -0.007655  4.055894  -0.007
C  C212  1  0.22912508  0.06654008  0.57641620  1  -0.060644  0.00266  -0.103342  -0.083814  0.001773  4.067319  0.002
C  C213  1  0.27087735  0.93345816  0.07640889  1  -0.060411  0.002661  -0.10332  -0.083685  0.001774  4.06708  0.002
C  C214  1  0.72912498  0.43346015  0.42358561  1  -0.060212  0.002661  -0.103316  -0.083679  0.001773  4.067258  0.002
C  C215  1  0.77087484  0.56654306  0.92358356  1  -0.060636  0.002661  -0.103447  -0.084006  0.001773  4.067502  0.002
C  C216  1  0.29302335  0.00327580  0.59543970  1  -0.046558  -0.010841  -0.103151  -0.189047  -0.007287  3.990552  -0.006
C  C217  1  0.20697682  0.99672348  0.09543566  1  -0.046844  -0.010842  -0.103149  -0.189181  -0.007288  3.990445  -0.006
C  C218  1  0.79302483  0.49672401  0.40456308  1  -0.046974  -0.010842  -0.103155  -0.189151  -0.007288  3.990502  -0.006
C  C219  1  0.70697261  0.50327712  0.90456052  1  -0.046794  -0.01084  -0.103135  -0.189129  -0.007287  3.990452  -0.006
C  C220  1  0.43439169  0.91313371  0.73170563  1  1.382962  -0.001549  0.221269  0.442975  -0.001828  4.181712  -0.002
C  C221  1  0.06560311  0.08686246  0.23170378  1  1.383649  -0.001549  0.221305  0.443097  -0.001828  4.181546  -0.002
C  C222  1  0.93439888  0.58686672  0.26829634  1  1.383614  -0.001547  0.221318  0.443094  -0.001827  4.181552  -0.002
C  C223  1  0.56560161  0.41313387  0.76829511  1  1.383586  -0.001549  0.221253  0.443041  -0.001828  4.181642  -0.002
C  C224  1  0.48801998  0.84005895  0.74426761  1  0.450675  0.000331  0.127283  0.143362  -0.000306  3.952775  0.001
C  C225  1  0.01198298  0.15994034  0.24426385  1  0.450859  0.000332  0.127244  0.143225  -0.000305  3.952758  0.001
C  C226  1  0.98802189  0.65994208  0.25573250  1  0.450405  0.000331  0.127293  0.143322  -0.000306  3.95284  0.001
C  C227  1  0.51197972  0.34005747  0.75573407  1  0.450359  0.000331  0.127311  0.143334  -0.000305  3.952777  0.001
C  C228  1  0.58780644  0.81853145  0.79230471  1  0.032299  -0.003041  -0.063284  -0.122129  -0.002326  3.89654  -0.002
C  C229  1  0.91219065  0.18146602  0.29230258  1  0.032312  -0.003042  -0.063198  -0.121969  -0.002327  3.896509  -0.002
C  C230  1  0.08780742  0.68146949  0.20769519  1  0.032604  -0.003041  -0.063304  -0.122159  -0.002326  3.896489  -0.002
C  C231  1  0.41218962  0.31853032  0.70769602  1  0.032645  -0.003041  -0.063279  -0.122072  -0.002326  3.896433  -0.002
C  C232  1  0.62272048  0.74766238  0.79688489  1  -0.006887  0.003001  -0.062856  -0.023938  0.002086  3.939357  0.002
C  C233  1  0.87728010  0.25233509  0.29688416  1  -0.006878  0.003  -0.062928  -0.024076  0.002086  3.939421  0.002
C  C234  1  0.12271736  0.75233861  0.20311456  1  -0.006821  0.003  -0.062869  -0.023979  0.002086  3.939184  0.002
C  C235  1  0.37727967  0.24766172  0.70311631  1  -0.006887  0.003  -0.06288  -0.024041  0.002085  3.93937  0.002
C  C236  1  0.55497110  0.69962832  0.75565953  1  -0.084909  -0.002837  -0.068894  -0.131664  -0.002061  3.900099  -0.002
C  C237  1  0.94503167  0.30037070  0.25565931  1  -0.084698  -0.002837  -0.068897  -0.131688  -0.002061  3.899901  -0.002
C  C238  1  0.05497080  0.80037308  0.24434083  1  -0.085107  -0.002837  -0.068889  -0.131723  -0.002061  3.899995  -0.002
C  C239  1  0.44502868  0.19962674  0.74434119  1  -0.084936  -0.002837  -0.068877  -0.13169  -0.002061  3.900008  -0.002
C  C240  1  0.45611081  0.72501802  0.70895154  1  0.514727  0.000529  0.124897  0.136652  -0.000239  3.968388  0.001
C  C241  1  0.04388971  0.27498231  0.20894970  1  0.514695  0.000528  0.124888  0.13671  -0.00024  3.968191  0.001
C  C242  1  0.95611024  0.77498348  0.29104855  1  0.51474  0.000529  0.124889  0.136671  -0.000239  3.968281  0.001
C  C243  1  0.54389264  0.22501711  0.79104918  1  0.51522  0.000528  0.124904  0.136703  -0.00024  3.968251  0.001
C  C244  1  0.37182522  0.68264514  0.66036363  1  1.413965  -0.003248  0.221418  0.441529  -0.003079  4.204378  -0.003
C  C245  1  0.12817515  0.31735622  0.16036184  1  1.413942  -0.003249  0.221484  0.44156  -0.003081  4.204314  -0.003
C  C246  1  0.87182396  0.81735623  0.33963736  1  1.413973  -0.003248  0.221438  0.44155  -0.00308  4.204343  -0.003
C  C247  1  0.62817907  0.18264437  0.83963756  1  1.413977  -0.003248  0.22144  0.441493  -0.00308  4.204382  -0.003
C  C248  1  0.24450338  0.69170137  0.56007695  1  0.41142  0.00244  0.087251  0.25627  0.001098  4.025204  0.003
C  C249  1  0.25549204  0.30829894  0.06007522  1  0.411383  0.002439  0.087179  0.256214  0.001097  4.025121  0.003
C  C250  1  0.74450469  0.80829772  0.43992445  1  0.41135  0.002439  0.087204  0.256146  0.001097  4.025404  0.003
C  C251  1  0.75549634  0.19170133  0.93992424  1  0.411368  0.002439  0.087206  0.25618  0.001097  4.025357  0.003
C  C252  1  0.28069737  0.71608948  0.49911165  1  -0.092795  -0.010742  -0.097439  -0.17274  -0.007194  3.945629  -0.007
C  C253  1  0.21929943  0.28391037  0.99911143  1  -0.092812  -0.01074  -0.097475  -0.172841  -0.007192  3.945769  -0.007
C  C254  1  0.78070100  0.78391175  0.50088882  1  -0.09283  -0.010741  -0.097409  -0.17263  -0.007193  3.945636  -0.007
C  C255  1  0.71930097  0.21608880  0.00088895  1  -0.092793  -0.010741  -0.097431  -0.172712  -0.007193  3.945627  -0.007
C  C256  1  0.21074916  0.68638081  0.44625414  1  -0.133287  0.002639  -0.102253  -0.098146  0.001628  4.077154  0.003
C  C257  1  0.28924863  0.31361903  0.94625302  1  -0.133271  0.002639  -0.10222  -0.09808  0.001628  4.077071  0.003
C  C258  1  0.71074623  0.81361927  0.55374724  1  -0.13364  0.002639  -0.102223  -0.098083  0.001628  4.077167  0.003
C  C259  1  0.78925475  0.18638077  0.05374741  1  -0.133641  0.002639  -0.102237  -0.098056  0.001628  4.077148  0.003
C  C260  1  0.10213105  0.63292531  0.45281994  1  -0.070509  -0.011676  -0.110203  -0.125048  -0.007761  4.069803  -0.007
C  C261  1  0.39786676  0.36707558  0.95281982  1  -0.070485  -0.011673  -0.110181  -0.124969  -0.007759  4.069782  -0.007
C  C262  1  0.60212387  0.86707357  0.54717950  1  -0.070182  -0.011674  -0.110195  -0.125165  -0.00776  4.069843  -0.007
C  C263  1  0.89787592  0.13292647  0.04718019  1  -0.070188  -0.011674  -0.110226  -0.125216  -0.007759  4.069838  -0.007
C  C264  1  0.06368370  0.60948532  0.51317354  1  -0.035553  0.003128  -0.096734  -0.072064  0.002101  4.030498  0.002
C  C265  1  0.43631389  0.39051498  0.01317427  1  -0.035459  0.003127  -0.096747  -0.072145  0.0021  4.030407  0.002
C  C266  1  0.56367768  0.89051141  0.48682399  1  -0.035426  0.003128  -0.096652  -0.071805  0.002101  4.030421  0.002
C  C267  1  0.93632350  0.10948816  0.98682387  1  -0.035396  0.003128  -0.096691  -0.071929  0.002101  4.030388  0.002
C  C268  1  0.13458703  0.63814861  0.56620946  1  -0.027035  -0.012744  -0.091998  -0.159928  -0.008634  3.931758  -0.008
C  C269  1  0.36540725  0.36184962  0.06620874  1  -0.026853  -0.01274  -0.091997  -0.15993  -0.008631  3.931753  -0.008
C  C270  1  0.63458873  0.86184720  0.43378952  1  -0.027083  -0.012741  -0.091936  -0.159907  -0.008632  3.931935  -0.008
C  C271  1  0.86541112  0.13815237  0.93379030  1  -0.027069  -0.012739  -0.091945  -0.159919  -0.008631  3.931889  -0.008
N  N272  1  0.97779288  0.95663396  0.49880930  1  -1.209846  0.093317  -0.387839  -0.477074  0.064156  3.522944  0.079
N  N273  1  0.52221181  0.04336926  0.99880895  1  -1.210307  0.093316  -0.387837  -0.477026  0.064154  3.522976  0.079
N  N274  1  0.47779373  0.54336653  0.50119080  1  -1.210042  0.093314  -0.387902  -0.477275  0.064154  3.523155  0.079
N  N275  1  0.02220730  0.45663273  0.00119133  1  -1.21006  0.093311  -0.387845  -0.47705  0.064151  3.523099  0.079
N  N276  1  0.83924755  0.99232299  0.60074316  1  -1.242635  0.086575  -0.360205  -0.273648  0.060668  3.75493  0.075
N  N277  1  0.66075473  0.00767913  0.10074229  1  -1.242446  0.086572  -0.360206  -0.273567  0.060667  3.75469  0.075
N  N278  1  0.33924665  0.50767677  0.39925687  1  -1.242557  0.086578  -0.360176  -0.273545  0.06067  3.754802  0.075
N  N279  1  0.16075215  0.49232359  0.89925901  1  -1.242416  0.086574  -0.360229  -0.273568  0.060669  3.754708  0.075
N  N280  1  0.93210913  0.90276868  0.68275916  1  -1.201115  0.084837  -0.381597  -0.47971  0.058708  3.469335  0.072
N  N281  1  0.56789109  0.09723033  0.18275920  1  -1.200772  0.084838  -0.381681  -0.4798  0.05871  3.469298  0.072
N  N282  1  0.43211445  0.59722966  0.31724139  1  -1.199992  0.084827  -0.38163  -0.479759  0.058707  3.469399  0.072
N  N283  1  0.06788757  0.40276965  0.81724347  1  -1.200921  0.084835  -0.381668  -0.479865  0.058709  3.46923  0.072
N  N284  1  0.35532238  0.91891913  0.67679261  1  -1.205463  -0.087286  -0.3858  -0.481383  -0.060523  3.492864  -0.074
N  N285  1  0.14468267  0.08107911  0.17678702  1  -1.205464  -0.087288  -0.385797  -0.481538  -0.060524  3.492609  -0.074
N  N286  1  0.85532854  0.58108065  0.32320979  1  -1.205585  -0.08729  -0.385795  -0.481453  -0.060524  3.492698  -0.074
N  N287  1  0.64467328  0.41891838  0.82321097  1  -1.20547  -0.08729  -0.385805  -0.481482  -0.060525  3.492715  -0.074
N  N288  1  0.42956339  0.79319667  0.70437514  1  -1.244861  -0.087377  -0.361978  -0.2715  -0.061606  3.752493  -0.076
N  N289  1  0.07043712  0.20680366  0.20437284  1  -1.244887  -0.08738  -0.362016  -0.271502  -0.061608  3.752529  -0.076
N  N290  1  0.92956463  0.70680427  0.29562541  1  -1.244839  -0.087376  -0.362008  -0.271483  -0.061605  3.752542  -0.076
N  N291  1  0.57043711  0.29319528  0.79562606  1  -1.245335  -0.087376  -0.362022  -0.271515  -0.061605  3.752627  -0.076
N  N292  1  0.31937559  0.72215585  0.61214436  1  -1.20749  -0.082442  -0.389743  -0.488037  -0.057111  3.521936  -0.069
N  N293  1  0.18061883  0.27784186  0.11214353  1  -1.207513  -0.082435  -0.38977  -0.488033  -0.057106  3.521762  -0.069
N  N294  1  0.81937882  0.77784440  0.38785567  1  -1.207501  -0.08244  -0.389731  -0.487917  -0.05711  3.521799  -0.069
N  N295  1  0.68062321  0.22215621  0.88785636  1  -1.207551  -0.082435  -0.389729  -0.487939  -0.057107  3.521915  -0.069
O  O296  1  0.14755396  0.85349418  0.57895552  1  -1.16172  -1.4e-05  -0.613249  -0.795658  -0.000153  2.392636  0.0
O  O297  1  0.35244615  0.14650665  0.07895430  1  -1.161721  -1.5e-05  -0.613285  -0.795672  -0.000154  2.392447  0.0
O  O298  1  0.64755977  0.64650633  0.42104441  1  -1.161751  -1.4e-05  -0.613265  -0.795665  -0.000153  2.39264  0.0
O  O299  1  0.85243888  0.35349480  0.92104569  1  -1.161715  -1.5e-05  -0.613267  -0.795627  -0.000153  2.392449  0.0
O  O300  1  0.84166856  0.03960921  0.43963510  1  -1.184463  0.012479  -0.393003  -0.587891  0.008359  2.113439  0.01
O  O301  1  0.65833479  0.96039556  0.93963398  1  -1.184448  0.012479  -0.392926  -0.58783  0.008359  2.113422  0.01
O  O302  1  0.34166583  0.46039223  0.56036440  1  -1.184501  0.012477  -0.392985  -0.587892  0.008357  2.113423  0.01
O  O303  1  0.15833306  0.53960652  0.06036690  1  -1.184553  0.012478  -0.392915  -0.587793  0.008357  2.113477  0.01
O  O304  1  0.82593505  0.96853665  0.76569455  1  -1.18285  0.013594  -0.385286  -0.572137  0.009038  2.166187  0.011
O  O305  1  0.67406195  0.03146029  0.26569275  1  -1.182858  0.013594  -0.385273  -0.572102  0.009038  2.166303  0.011
O  O306  1  0.32595352  0.53145840  0.23430594  1  -1.18296  0.013596  -0.385331  -0.572176  0.009039  2.166101  0.011
O  O307  1  0.17405983  0.46853985  0.73430997  1  -1.18278  0.013597  -0.385252  -0.572154  0.00904  2.166198  0.011
O  O308  1  0.46654634  0.96035639  0.77037045  1  -1.177364  -0.015279  -0.386204  -0.572801  -0.010263  2.207501  -0.012
O  O309  1  0.03344974  0.03964394  0.27036527  1  -1.177972  -0.015273  -0.386154  -0.572755  -0.01026  2.20764  -0.012
O  O310  1  0.96655768  0.53964460  0.22963201  1  -1.177907  -0.015278  -0.386224  -0.572793  -0.010262  2.207397  -0.012
O  O311  1  0.53344848  0.46035442  0.72963266  1  -1.177918  -0.015278  -0.386165  -0.572762  -0.010262  2.207543  -0.012
O  O312  1  0.36035534  0.61810242  0.66790694  1  -1.201149  -0.016686  -0.397746  -0.579853  -0.011138  2.205223  -0.013
O  O313  1  0.13964273  0.38189739  0.16790611  1  -1.201169  -0.016685  -0.397738  -0.579863  -0.011137  2.205241  -0.013
O  O314  1  0.86035340  0.88189737  0.33209263  1  -1.201176  -0.016686  -0.397739  -0.579893  -0.011137  2.205247  -0.013
O  O315  1  0.63965193  0.11810218  0.83209282  1  -1.201176  -0.016687  -0.397738  -0.579822  -0.011138  2.205224  -0.013
