# generated using pymatgen
data_DyH21(C9O2)3
_symmetry_space_group_name_H-M   'P 1'
_cell_length_a   7.89308665
_cell_length_b   11.28977091
_cell_length_c   12.98000000
_cell_angle_alpha   93.65396630
_cell_angle_beta   90.00000000
_cell_angle_gamma   90.00000000
_symmetry_Int_Tables_number   1
_chemical_formula_structural   DyH21(C9O2)3
_chemical_formula_sum   'Dy2 H42 C54 O12'
_cell_volume   1154.31126838
_cell_formula_units_Z   2
loop_
 _symmetry_equiv_pos_site_id
 _symmetry_equiv_pos_as_xyz
  1  'x, y, z'
loop_
 _atom_site_type_symbol
 _atom_site_label
 _atom_site_symmetry_multiplicity
 _atom_site_fract_x
 _atom_site_fract_y
 _atom_site_fract_z
 _atom_site_occupancy
 _atom_site_hle17_bader_spin_density
 _atom_site_hle17_ddec_charge
 _atom_site_hle17_ddec_spin_density
 _atom_site_hle17_ddec_sum_bond_order
 _atom_site_hle17_magmom
 _atom_site_hse06_10hf_bader_spin_density
 _atom_site_hse06_10hf_ddec_charge
 _atom_site_hse06_10hf_ddec_spin_density
 _atom_site_hse06_10hf_ddec_sum_bond_order
 _atom_site_hse06_10hf_magmom
 _atom_site_hse06_bader_spin_density
 _atom_site_hse06_ddec_charge
 _atom_site_hse06_ddec_spin_density
 _atom_site_hse06_ddec_sum_bond_order
 _atom_site_hse06_magmom
 _atom_site_pbe_bader_charge
 _atom_site_pbe_bader_spin_density
 _atom_site_pbe_cm5_charge
 _atom_site_pbe_ddec_charge
 _atom_site_pbe_ddec_spin_density
 _atom_site_pbe_ddec_sum_bond_order
 _atom_site_pbe_magmom
Dy  Dy0  1  0.49526379  0.54175444  0.47342172  1  0  2.257614  0  1.738136  0  0  2.123552  0  2.211987  0  0  2.173231  0  2.164558  0  2.165778  0  1.547339  2.084869  0  2.250134  0
Dy  Dy1  1  0.99526464  0.45824818  0.52657788  1  0  2.257588  0  1.738177  0  0  2.123527  0  2.212028  0  0  2.173207  0  2.164593  0  2.166027  0  1.547344  2.084857  0  2.250151  0
H  H2  1  0.32202231  0.12100575  0.60681079  1  0  0.11354  0  0.95455  0  0  0.125069  0  1.01168  0  0  0.128831  0  1.011053  0  0.056944  0  0.103369  0.122389  0  1.012345  0
H  H3  1  0.82202442  0.87899688  0.39318805  1  0  0.11354  0  0.954543  0  0  0.125059  0  1.011685  0  0  0.128821  0  1.01106  0  0.056937  0  0.103351  0.122379  0  1.012353  0
H  H4  1  0.65700660  0.26159022  0.60244876  1  0  0.101213  0  0.96297  0  0  0.107371  0  1.031542  0  0  0.110523  0  1.028613  0  0.113865  0  0.111576  0.105168  0  1.033464  0
H  H5  1  0.15700702  0.73841063  0.39755074  1  0  0.101234  0  0.962948  0  0  0.107388  0  1.031524  0  0  0.110541  0  1.028595  0  0.113888  0  0.111579  0.105185  0  1.033446  0
H  H6  1  0.45588122  0.95339054  0.59754217  1  0  0.089501  0  0.95751  0  0  0.101524  0  1.017529  0  0  0.104155  0  1.016693  0  0.06086  0  0.100631  0.099637  0  1.018191  0
H  H7  1  0.95588080  0.04660942  0.40245729  1  0  0.089498  0  0.957507  0  0  0.101521  0  1.017527  0  0  0.104153  0  1.01669  0  0.060865  0  0.100638  0.099633  0  1.018189  0
H  H8  1  0.61779253  0.77339211  0.63009845  1  0  0.090187  0  0.991567  0  0  0.09386  0  1.065266  0  0  0.097706  0  1.062406  0  0.112224  0  0.100309  0.09115  0  1.067303  0
H  H9  1  0.11779169  0.22660963  0.36990418  1  0  0.090186  0  0.991507  0  0  0.093853  0  1.065218  0  0  0.0977  0  1.062356  0  0.112212  0  0.100305  0.091145  0  1.067255  0
H  H10  1  0.92538576  0.78532715  0.66893877  1  0  0.090862  0  0.980839  0  0  0.101299  0  1.042487  0  0  0.103221  0  1.043007  0  0.092856  0  0.098821  0.099911  0  1.042136  0
H  H11  1  0.42538745  0.21467547  0.33106238  1  0  0.090914  0  0.980856  0  0  0.101357  0  1.04249  0  0  0.103283  0  1.042999  0  0.092781  0  0.098866  0.099974  0  1.042125  0
H  H12  1  0.07384057  0.98072656  0.67135252  1  0  0.081302  0  0.952368  0  0  0.094113  0  1.009763  0  0  0.096711  0  1.00918  0  0.066056  0  0.096479  0.09226  0  1.010245  0
H  H13  1  0.57384141  0.01927607  0.32864555  1  0  0.08128  0  0.952374  0  0  0.094091  0  1.009767  0  0  0.09669  0  1.009187  0  0.066041  0  0.09647  0.092238  0  1.010249  0
H  H14  1  0.91122273  0.16341966  0.63731440  1  0  0.105156  0  0.953089  0  0  0.113984  0  1.017754  0  0  0.117563  0  1.015104  0  0.095323  0  0.108605  0.111425  0  1.019639  0
H  H15  1  0.41122442  0.83658207  0.36268361  1  0  0.105176  0  0.953167  0  0  0.114  0  1.017826  0  0  0.11758  0  1.015176  0  0.09525  0  0.108621  0.111436  0  1.01971  0
H  H16  1  0.85581475  0.18351140  0.26108991  1  0  0.11198  0  0.967564  0  0  0.121343  0  1.030892  0  0  0.125075  0  1.030274  0  0.064757  0  0.102832  0.118692  0  1.031527  0
H  H17  1  0.35581391  0.81649122  0.73891047  1  0  0.111997  0  0.967566  0  0  0.121349  0  1.030894  0  0  0.125081  0  1.030277  0  0.064316  0  0.10283  0.1187  0  1.031525  0
H  H18  1  0.56032579  0.33132773  0.18187144  1  0  0.096297  0  0.939825  0  0  0.107162  0  1.001884  0  0  0.109383  0  1.000449  0  0.096766  0  0.108722  0.10552  0  1.002944  0
H  H19  1  0.06032241  0.66867490  0.81812585  1  0  0.096299  0  0.939859  0  0  0.107163  0  1.001916  0  0  0.109383  0  1.000486  0  0.096724  0  0.108727  0.105522  0  1.002975  0
H  H20  1  0.80511089  0.04184233  0.13963295  1  0  0.087196  0  0.955124  0  0  0.099041  0  1.015294  0  0  0.101567  0  1.014447  0  0.043503  0  0.099745  0.097223  0  1.015943  0
H  H21  1  0.30511004  0.95815763  0.86036728  1  0  0.087208  0  0.955109  0  0  0.099054  0  1.015276  0  0  0.10158  0  1.014429  0  0.04351  0  0.099755  0.097236  0  1.015926  0
H  H22  1  0.81657535  0.92542702  0.97260921  1  0  0.086484  0  0.973182  0  0  0.096104  0  1.035207  0  0  0.097936  0  1.036425  0  0.089606  0  0.096604  0.094795  0  1.034406  0
H  H23  1  0.31657831  0.07457117  0.02739092  1  0  0.086491  0  0.973195  0  0  0.096119  0  1.035211  0  0  0.097951  0  1.036431  0  0.089619  0  0.096612  0.094811  0  1.034406  0
H  H24  1  0.67848742  0.00087336  0.81734348  1  0  0.077975  0  1.001298  0  0  0.086163  0  1.067653  0  0  0.087305  0  1.069764  0  0.071619  0  0.093245  0.085279  0  1.06627  0
H  H25  1  0.17848404  0.99912838  0.18265685  1  0  0.077956  0  1.00131  0  0  0.086159  0  1.067655  0  0  0.087278  0  1.069786  0  0.07161  0  0.093229  0.085275  0  1.066273  0
H  H26  1  0.52560680  0.19485089  0.83080245  1  0  0.090148  0  0.957004  0  0  0.099857  0  1.017186  0  0  0.101666  0  1.018418  0  0.084153  0  0.09829  0.09854  0  1.016417  0
H  H27  1  0.02559962  0.80515262  0.16919721  1  0  0.090205  0  0.956995  0  0  0.099898  0  1.017191  0  0  0.101705  0  1.018422  0  0.084131  0  0.098295  0.098566  0  1.016436  0
H  H28  1  0.51260935  0.31200195  0.99898970  1  0  0.088789  0  0.97151  0  0  0.097497  0  1.03766  0  0  0.099138  0  1.039017  0  0.08669  0  0.09736  0.096306  0  1.036778  0
H  H29  1  0.01260217  0.68800156  0.00101072  1  0  0.088804  0  0.971472  0  0  0.09753  0  1.0376  0  0  0.099171  0  1.038957  0  0.086779  0  0.097358  0.096339  0  1.036719  0
H  H30  1  0.08669866  0.37627741  0.24011962  1  0  0.117759  0  0.957121  0  0  0.126651  0  1.019213  0  0  0.130148  0  1.01924  0  0.077982  0  0.107143  0.124228  0  1.019244  0
H  H31  1  0.58669697  0.62371900  0.75988426  1  0  0.117748  0  0.95706  0  0  0.126582  0  1.019247  0  0  0.130102  0  1.019224  0  0.077916  0  0.107135  0.124159  0  1.019278  0
H  H32  1  0.32043611  0.55017208  0.13336984  1  0  0.099067  0  0.946189  0  0  0.109565  0  1.008127  0  0  0.111849  0  1.00709  0  0.094302  0  0.108586  0.107842  0  1.009031  0
H  H33  1  0.82043569  0.44982345  0.86663092  1  0  0.099089  0  0.946315  0  0  0.10959  0  1.008232  0  0  0.111873  0  1.007197  0  0.094263  0  0.108628  0.107868  0  1.009134  0
H  H34  1  0.05141208  0.26860728  0.09610429  1  0  0.087134  0  0.95807  0  0  0.099478  0  1.01825  0  0  0.101657  0  1.018057  0  0.071771  0  0.099203  0.097915  0  1.018448  0
H  H35  1  0.55142053  0.73138913  0.90389497  1  0  0.087114  0  0.958118  0  0  0.099475  0  1.018276  0  0  0.101654  0  1.018081  0  0.072165  0  0.099178  0.097911  0  1.018474  0
H  H36  1  0.99019057  0.17134648  0.92457660  1  0  0.08783  0  0.977094  0  0  0.097582  0  1.03889  0  0  0.099424  0  1.040592  0  0.089932  0  0.096736  0.09627  0  1.037783  0
H  H37  1  0.49019353  0.82865082  0.07542117  1  0  0.087727  0  0.977174  0  0  0.09749  0  1.038971  0  0  0.099333  0  1.040673  0  0.089979  0  0.096639  0.096178  0  1.037864  0
H  H38  1  0.09315494  0.26135235  0.76514590  1  0  0.09879  0  0.95751  0  0  0.108435  0  1.018493  0  0  0.11133  0  1.016735  0  0.086711  0  0.104615  0.106393  0  1.019702  0
H  H39  1  0.59314945  0.73864495  0.23485341  1  0  0.098829  0  0.957506  0  0  0.108462  0  1.018506  0  0  0.111355  0  1.01675  0  0.086731  0  0.104618  0.106418  0  1.019714  0
H  H40  1  0.25907102  0.44817613  0.77901649  1  0  0.10039  0  0.951113  0  0  0.109759  0  1.010847  0  0  0.11214  0  1.011088  0  0.119963  0  0.105345  0.108072  0  1.010726  0
H  H41  1  0.75906680  0.55182117  0.22098590  1  0  0.100346  0  0.951138  0  0  0.10971  0  1.010888  0  0  0.112089  0  1.011129  0  0.120284  0  0.105323  0.108024  0  1.010765  0
H  H42  1  0.32021440  0.54719786  0.95208093  1  0  0.086629  0  0.977602  0  0  0.095224  0  1.045093  0  0  0.096948  0  1.046457  0  0.086222  0  0.096308  0.093987  0  1.044206  0
H  H43  1  0.82021398  0.45279767  0.04792290  1  0  0.086586  0  0.977586  0  0  0.095183  0  1.045084  0  0  0.096907  0  1.046449  0  0.086123  0  0.096278  0.093946  0  1.044198  0
C  C44  1  0.33120250  0.31104960  0.58926357  1  0  0.759373  0  3.871095  0  0  0.718304  0  4.154306  0  0  0.75577  0  4.141526  0  1.556984  0  0.226726  0.693001  0  4.161743  0
C  C45  1  0.83120334  0.68895391  0.41073455  1  0  0.759363  0  3.871057  0  0  0.718336  0  4.154221  0  0  0.755789  0  4.141463  0  1.557257  0  0.22672  0.693034  0  4.161656  0
C  C46  1  0.40976745  0.19509675  0.60244936  1  0  -0.264981  0  3.680937  0  0  -0.276197  0  3.930759  0  0  -0.2911  0  3.949079  0  -0.069769  0  -0.103732  -0.266487  0  3.918462  0
C  C47  1  0.90976956  0.80490588  0.39755025  1  0  -0.264987  0  3.680922  0  0  -0.276209  0  3.930711  0  0  -0.291108  0  3.949037  0  -0.069831  0  -0.103733  -0.266501  0  3.918413  0
C  C48  1  0.57964396  0.18181527  0.60642424  1  0  -0.008061  0  3.700527  0  0  -0.032808  0  3.945669  0  0  -0.026152  0  3.962374  0  -0.016864  0  -0.060618  -0.036982  0  3.934151  0
C  C49  1  0.07964311  0.81818558  0.39357450  1  0  -0.008038  0  3.700536  0  0  -0.032766  0  3.945665  0  0  -0.026111  0  3.962367  0  -0.016884  0  -0.060578  -0.03694  0  3.934145  0
C  C50  1  0.67137107  0.07207446  0.61859074  1  0  0.06158  0  3.828621  0  0  0.084803  0  4.055348  0  0  0.082051  0  4.080569  0  -0.063631  0  -0.014052  0.086543  0  4.038174  0
C  C51  1  0.17137275  0.92792461  0.38140790  1  0  0.061563  0  3.828589  0  0  0.084765  0  4.055335  0  0  0.082014  0  4.080556  0  -0.063815  0  -0.014071  0.086507  0  4.038159  0
C  C52  1  0.59049396  0.96057269  0.61578312  1  0  -0.107977  0  3.726203  0  0  -0.125772  0  3.96573  0  0  -0.12752  0  3.98698  0  -0.057615  0  -0.085991  -0.124406  0  3.951223  0
C  C53  1  0.09049565  0.03942816  0.38421793  1  0  -0.10795  0  3.726127  0  0  -0.125734  0  3.96566  0  0  -0.127479  0  3.986902  0  -0.057348  0  -0.085989  -0.124368  0  3.951154  0
C  C54  1  0.68172443  0.85889538  0.63420091  1  0  -0.076125  0  3.783709  0  0  -0.0888  0  4.035815  0  0  -0.091644  0  4.056541  0  -0.084551  0  -0.092314  -0.086844  0  4.021616  0
C  C55  1  0.18172739  0.14110547  0.36579937  1  0  -0.076183  0  3.783645  0  0  -0.088861  0  4.03577  0  0  -0.091703  0  4.056493  0  -0.084542  0  -0.092352  -0.086908  0  4.021573  0
C  C56  1  0.85541694  0.86587517  0.65518642  1  0  -0.061854  0  3.747782  0  0  -0.075376  0  3.989875  0  0  -0.07705  0  4.013333  0  -0.037706  0  -0.088428  -0.074033  0  3.973795  0
C  C57  1  0.35542116  0.13412657  0.34481236  1  0  -0.061895  0  3.747766  0  0  -0.075417  0  3.989856  0  0  -0.077091  0  4.013317  0  -0.037719  0  -0.088435  -0.074072  0  3.97378  0
C  C58  1  0.93810575  0.97532841  0.65592232  1  0  -0.073251  0  3.78807  0  0  -0.084006  0  4.03556  0  0  -0.087359  0  4.059  0  -0.059973  0  -0.091979  -0.081731  0  4.019519  0
C  C59  1  0.43810744  0.02467333  0.34407801  1  0  -0.073224  0  3.788063  0  0  -0.083983  0  4.035548  0  0  -0.087339  0  4.058988  0  -0.059976  0  -0.091984  -0.08171  0  4.019509  0
C  C60  1  0.84730858  0.07767498  0.63714155  1  0  -0.102618  0  3.696959  0  0  -0.121748  0  3.938994  0  0  -0.123551  0  3.959893  0  -0.059004  0  -0.078725  -0.120292  0  3.924647  0
C  C61  1  0.34731153  0.92232499  0.36285790  1  0  -0.102608  0  3.697024  0  0  -0.12173  0  3.93905  0  0  -0.123527  0  3.959935  0  -0.058951  0  -0.078717  -0.120267  0  3.924697  0
C  C62  1  0.73809148  0.32806949  0.35467311  1  0  0.761206  0  3.882787  0  0  0.721685  0  4.164534  0  0  0.759338  0  4.150722  0  1.541912  0  0.230461  0.696235  0  4.172674  0
C  C63  1  0.23809063  0.67193314  0.64532572  1  0  0.761177  0  3.882756  0  0  0.721622  0  4.164538  0  0  0.759275  0  4.150731  0  1.541864  0  0.230517  0.696172  0  4.172678  0
C  C64  1  0.75429427  0.24901790  0.26063707  1  0  -0.27438  0  3.671554  0  0  -0.286993  0  3.922151  0  0  -0.30201  0  3.938394  0  -0.080711  0  -0.106434  -0.277228  0  3.911293  0
C  C65  1  0.25429342  0.75098472  0.73936254  1  0  -0.274435  0  3.671626  0  0  -0.286997  0  3.922182  0  0  -0.302014  0  3.938428  0  -0.080292  0  -0.106439  -0.277232  0  3.911327  0
C  C66  1  0.65377592  0.25958166  0.17736439  1  0  -0.005812  0  3.712514  0  0  -0.030051  0  3.958923  0  0  -0.021556  0  3.974358  0  -0.040407  0  -0.059175  -0.035503  0  3.948374  0
C  C67  1  0.15377508  0.74042007  0.82263440  1  0  -0.005815  0  3.712536  0  0  -0.030057  0  3.958931  0  0  -0.021562  0  3.974368  0  -0.040367  0  -0.059189  -0.035509  0  3.948381  0
C  C68  1  0.66024361  0.18665870  0.08093386  1  0  0.054603  0  3.831496  0  0  0.076802  0  4.060553  0  0  0.073196  0  4.085931  0  -0.009186  0  -0.01535  0.07912  0  4.04327  0
C  C69  1  0.16024023  0.81334304  0.91906647  1  0  0.054593  0  3.831446  0  0  0.076772  0  4.060535  0  0  0.073166  0  4.085916  0  -0.009169  0  -0.015372  0.079091  0  4.043247  0
C  C70  1  0.74490377  0.07648919  0.07212821  1  0  -0.101874  0  3.716872  0  0  -0.119857  0  3.956442  0  0  -0.121499  0  3.977816  0  0.015349  0  -0.083532  -0.11856  0  3.941821  0
C  C71  1  0.24490292  0.92351077  0.92787202  1  0  -0.101866  0  3.716899  0  0  -0.119847  0  3.956481  0  0  -0.121489  0  3.977856  0  0.015337  0  -0.083537  -0.118551  0  3.94186  0
C  C72  1  0.75066197  0.01040134  0.97807425  1  0  -0.070988  0  3.778372  0  0  -0.081579  0  4.023947  0  0  -0.084022  0  4.045288  0  -0.080803  0  -0.089863  -0.079944  0  4.009399  0
C  C73  1  0.25065986  0.98959862  0.02192521  1  0  -0.071  0  3.778386  0  0  -0.081603  0  4.023967  0  0  -0.084046  0  4.045304  0  -0.080799  0  -0.089868  -0.079968  0  4.009423  0
C  C74  1  0.67231366  0.05275135  0.89093180  1  0  -0.059969  0  3.749213  0  0  -0.073653  0  3.99334  0  0  -0.074385  0  4.014322  0  -0.085392  0  -0.085666  -0.072964  0  3.97898  0
C  C75  1  0.17231282  0.94724861  0.10906843  1  0  -0.059937  0  3.749235  0  0  -0.073624  0  3.993334  0  0  -0.074337  0  4.014331  0  -0.085375  0  -0.085667  -0.072934  0  3.978969  0
C  C76  1  0.58682493  0.16140224  0.89845527  1  0  -0.067118  0  3.761996  0  0  -0.077451  0  4.006096  0  0  -0.080218  0  4.027607  0  -0.025717  0  -0.088768  -0.075589  0  3.991468  0
C  C77  1  0.08682155  0.83859950  0.10154506  1  0  -0.067191  0  3.762068  0  0  -0.077515  0  4.006173  0  0  -0.080279  0  4.027677  0  -0.025748  0  -0.088759  -0.075638  0  3.991552  0
C  C78  1  0.57975545  0.22735429  0.99286457  1  0  -0.105516  0  3.716007  0  0  -0.124045  0  3.958249  0  0  -0.125785  0  3.980129  0  -0.105953  0  -0.083788  -0.122724  0  3.943381  0
C  C79  1  0.07975207  0.77264744  0.00713576  1  0  -0.105505  0  3.716015  0  0  -0.124045  0  3.958246  0  0  -0.125785  0  3.980126  0  -0.106057  0  -0.083757  -0.122724  0  3.943372  0
C  C80  1  0.25096266  0.50467122  0.32283994  1  0  0.715568  0  3.896948  0  0  0.673569  0  4.181211  0  0  0.710744  0  4.169158  0  1.469346  0  0.199087  0.64846  0  4.188301  0
C  C81  1  0.75096224  0.49532519  0.67716086  1  0  0.715358  0  3.897112  0  0  0.673352  0  4.181404  0  0  0.710525  0  4.169362  0  1.468916  0  0.19902  0.648243  0  4.188493  0
C  C82  1  0.17676101  0.44764359  0.22934522  1  0  -0.246808  0  3.649614  0  0  -0.257712  0  3.898211  0  0  -0.272973  0  3.915667  0  -0.053217  0  -0.099249  -0.247705  0  3.886403  0
C  C83  1  0.67676186  0.55235193  0.77065631  1  0  -0.246566  0  3.649501  0  0  -0.257447  0  3.898109  0  0  -0.272711  0  3.915567  0  -0.052573  0  -0.099177  -0.247442  0  3.886297  0
C  C84  1  0.23100975  0.47620445  0.13519804  1  0  -0.00121  0  3.688758  0  0  -0.024297  0  3.9298  0  0  -0.01599  0  3.945445  0  -0.033355  0  -0.055556  -0.029649  0  3.919154  0
C  C85  1  0.73100807  0.52379019  0.86480267  1  0  -0.00141  0  3.688915  0  0  -0.024459  0  3.929978  0  0  -0.016157  0  3.945631  0  -0.033246  0  -0.055624  -0.02981  0  3.919331  0
C  C86  1  0.18813172  0.41644402  0.03618049  1  0  0.048221  0  3.84811  0  0  0.070366  0  4.077049  0  0  0.066893  0  4.101715  0  -0.070158  0  -0.017672  0.072598  0  4.060273  0
C  C87  1  0.68813384  0.58355150  0.96382027  1  0  0.048201  0  3.84808  0  0  0.070251  0  4.077156  0  0  0.066777  0  4.101824  0  -0.070318  0  -0.017768  0.072483  0  4.060379  0
C  C88  1  0.09553424  0.30938542  0.02701724  1  0  -0.1062  0  3.729465  0  0  -0.123382  0  3.969012  0  0  -0.124762  0  3.990141  0  0.003389  0  -0.085743  -0.122261  0  3.954598  0
C  C89  1  0.59553508  0.69060921  0.97298270  1  0  -0.106162  0  3.729561  0  0  -0.123325  0  3.969107  0  0  -0.124704  0  3.990238  0  0.003112  0  -0.085668  -0.122203  0  3.954692  0
C  C90  1  0.06191114  0.25399713  0.93039458  1  0  -0.077467  0  3.778935  0  0  -0.087981  0  4.024862  0  0  -0.091204  0  4.047387  0  -0.0542  0  -0.090106  -0.085801  0  4.009518  0
C  C91  1  0.56191325  0.74599929  0.06960391  1  0  -0.0773  0  3.779075  0  0  -0.087818  0  4.024977  0  0  -0.091042  0  4.047506  0  -0.054206  0  -0.089982  -0.085639  0  4.009632  0
C  C92  1  0.12079432  0.30366420  0.84098592  1  0  -0.040373  0  3.712917  0  0  -0.056657  0  3.961094  0  0  -0.056729  0  3.980403  0  -0.064997  0  -0.078169  -0.05643  0  3.947872  0
C  C93  1  0.62079389  0.69633221  0.15901411  1  0  -0.040513  0  3.713061  0  0  -0.056788  0  3.961239  0  0  -0.056862  0  3.980552  0  -0.064973  0  -0.078211  -0.05656  0  3.948017  0
C  C94  1  0.21369460  0.40928228  0.84864328  1  0  -0.0672  0  3.74691  0  0  -0.080386  0  3.997779  0  0  -0.083595  0  4.020186  0  -0.090822  0  -0.087385  -0.078187  0  3.982487  0
C  C95  1  0.71368911  0.59071235  0.15135819  1  0  -0.06721  0  3.747016  0  0  -0.080396  0  3.997881  0  0  -0.083602  0  4.020285  0  -0.091336  0  -0.087389  -0.078198  0  3.982588  0
C  C96  1  0.24717073  0.46500164  0.94537135  1  0  -0.110913  0  3.728863  0  0  -0.128754  0  3.972089  0  0  -0.131121  0  3.995178  0  -0.063923  0  -0.085781  -0.126987  0  3.956374  0
C  C97  1  0.74717031  0.53499388  0.05463018  1  0  -0.110759  0  3.728787  0  0  -0.128572  0  3.972036  0  0  -0.130938  0  3.995124  0  -0.063851  0  -0.085699  -0.126807  0  3.956323  0
O  O98  1  0.42527849  0.40288385  0.58303514  1  0  -0.79308  0  2.073264  0  0  -0.738134  0  2.331795  0  0  -0.765106  0  2.319645  0  -1.216573  0  -0.429865  -0.71885  0  2.339131  0
O  O99  1  0.92527681  0.59711877  0.41696678  1  0  -0.79306  0  2.073263  0  0  -0.738138  0  2.331785  0  0  -0.765103  0  2.319641  0  -1.216798  0  -0.429844  -0.718856  0  2.339119  0
O  O100  1  0.16929372  0.31548830  0.58504197  1  0  -0.739198  0  1.986215  0  0  -0.68764  0  2.243512  0  0  -0.712804  0  2.229343  0  -1.204717  0  -0.408886  -0.669626  0  2.252173  0
O  O101  1  0.66929457  0.68451521  0.41495768  1  0  -0.739231  0  1.986159  0  0  -0.687669  0  2.243428  0  0  -0.712829  0  2.229264  0  -1.204711  0  -0.4089  -0.669654  0  2.252088  0
O  O102  1  0.61089789  0.39742712  0.36551464  1  0  -0.766801  0  2.045062  0  0  -0.718945  0  2.309478  0  0  -0.744181  0  2.295333  0  -1.217695  0  -0.413029  -0.700987  0  2.318346  0
O  O103  1  0.11089578  0.60257550  0.63448497  1  0  -0.76677  0  2.044986  0  0  -0.718911  0  2.309436  0  0  -0.744146  0  2.295289  0  -1.217656  0  -0.413056  -0.700956  0  2.318306  0
O  O104  1  0.85604280  0.32380298  0.42244971  1  0  -0.769433  0  2.004875  0  0  -0.717935  0  2.2652  0  0  -0.742963  0  2.248879  0  -1.189516  0  -0.423096  -0.699978  0  2.275484  0
O  O105  1  0.35604069  0.67620142  0.57755000  1  0  -0.769386  0  2.004891  0  0  -0.717909  0  2.265303  0  0  -0.742938  0  2.248987  0  -1.189352  0  -0.423105  -0.699949  0  2.275587  0
O  O106  1  0.22277343  0.45821889  0.41123189  1  0  -0.866779  0  2.108773  0  0  -0.808018  0  2.380361  0  0  -0.833939  0  2.36478  0  -1.20618  0  -0.462925  -0.789115  0  2.390007  0
O  O107  1  0.72277174  0.54178018  0.58877061  1  0  -0.866697  0  2.108758  0  0  -0.807908  0  2.380294  0  0  -0.833828  0  2.364713  0  -1.206145  0  -0.462875  -0.789004  0  2.389939  0
O  O108  1  0.35403767  0.59100436  0.32112245  1  0  -0.680411  0  1.958941  0  0  -0.631995  0  2.199801  0  0  -0.656306  0  2.189448  0  -1.172342  0  -0.372278  -0.614985  0  2.20634  0
O  O109  1  0.85403725  0.40899205  0.67887604  1  0  -0.680367  0  1.959041  0  0  -0.631924  0  2.199874  0  0  -0.656233  0  2.189521  0  -1.172487  0  -0.372272  -0.614916  0  2.206412  0
