# generated using pymatgen
data_ZnH12C18(NO3)2
_symmetry_space_group_name_H-M   'P 1'
_cell_length_a   8.16606838
_cell_length_b   9.36608099
_cell_length_c   12.65577518
_cell_angle_alpha   71.56493685
_cell_angle_beta   88.09977996
_cell_angle_gamma   67.80681572
_symmetry_Int_Tables_number   1
_chemical_formula_structural   ZnH12C18(NO3)2
_chemical_formula_sum   'Zn2 H24 C36 N4 O12'
_cell_volume   846.14790428
_cell_formula_units_Z   2
loop_
 _symmetry_equiv_pos_site_id
 _symmetry_equiv_pos_as_xyz
  1  'x, y, z'
loop_
 _atom_site_type_symbol
 _atom_site_label
 _atom_site_symmetry_multiplicity
 _atom_site_fract_x
 _atom_site_fract_y
 _atom_site_fract_z
 _atom_site_occupancy
 _atom_site_pbe_bader_spin_density
 _atom_site_pbe_cm5_charge
 _atom_site_pbe_ddec_charge
 _atom_site_pbe_ddec_spin_density
 _atom_site_pbe_ddec_sum_bond_order
 _atom_site_pbe_magmom
Zn  Zn0  1  0.53336163  0.07416353  0.30906941  1  0  0.685114  0.830686  0  2.29842  0
Zn  Zn1  1  0.46664047  0.92583665  0.69093074  1  0  0.685095  0.830704  0  2.298378  0
H  H2  1  0.69024535  0.38472834  0.53190201  1  0  0.113787  0.152582  0  1.013898  0
H  H3  1  0.30976346  0.61527919  0.46810257  1  0  0.113821  0.152591  0  1.013962  0
H  H4  1  0.18696724  0.19538990  0.85606937  1  0  0.116658  0.131055  0  0.983416  0
H  H5  1  0.81303215  0.80459072  0.14394176  1  0  0.116613  0.131005  0  0.983367  0
H  H6  1  0.99888060  0.15385965  0.50236656  1  0  0.115422  0.14347  0  0.995991  0
H  H7  1  0.00112784  0.84614300  0.49763918  1  0  0.115428  0.14343  0  0.996016  0
H  H8  1  0.84016971  0.44323077  0.93910138  1  0  0.112258  0.1289  0  1.010767  0
H  H9  1  0.15981772  0.55677793  0.06089158  1  0  0.112262  0.128928  0  1.010768  0
H  H10  1  0.23225451  0.97875330  0.21720969  1  0  0.125845  0.099023  0  0.95938  0
H  H11  1  0.76775165  0.02124323  0.78280229  1  0  0.125822  0.099073  0  0.959358  0
H  H12  1  0.82149877  0.22316144  0.29485800  1  0  0.11732  0.091784  0  1.023753  0
H  H13  1  0.17850485  0.77683507  0.70513586  1  0  0.117318  0.091852  0  1.023584  0
H  H14  1  0.08982408  0.03424001  0.02850258  1  0  0.104188  0.105525  0  1.018396  0
H  H15  1  0.91017293  0.96574917  0.97151134  1  0  0.104205  0.105581  0  1.018329  0
H  H16  1  0.63133466  0.42979119  0.80681274  1  0  0.111913  0.138639  0  1.009811  0
H  H17  1  0.36865711  0.57021018  0.19318342  1  0  0.111895  0.13861  0  1.009845  0
H  H18  1  0.95290708  0.37761970  0.14004927  1  0  0.108909  0.119905  0  1.004532  0
H  H19  1  0.04707984  0.62239021  0.85994341  1  0  0.10895  0.119978  0  1.004467  0
H  H20  1  0.38989606  0.34263079  0.77647687  1  0  0.104348  0.106229  0  1.046394  0
H  H21  1  0.61010231  0.65736083  0.22352301  1  0  0.104337  0.10621  0  1.046437  0
H  H22  1  0.59715423  0.16217761  0.47913785  1  0  0.288957  0.391054  0  0.948296  0
H  H23  1  0.40285955  0.83781526  0.52086374  1  0  0.288992  0.391102  0  0.948302  0
H  H24  1  0.70466818  0.97736465  0.50398493  1  0  0.286102  0.375264  0  0.974765  0
H  H25  1  0.29533508  0.02262698  0.49601404  1  0  0.286113  0.375296  0  0.974723  0
C  C26  1  0.79108606  0.40421404  0.47778777  1  0  -0.09826  -0.157237  0  3.947282  0
C  C27  1  0.20893111  0.59579106  0.52221166  1  0  -0.098368  -0.157384  0  3.947099  0
C  C28  1  0.03107881  0.36738709  0.38147185  1  0  0.060203  0.058194  0  3.949935  0
C  C29  1  0.96892295  0.63261676  0.61852350  1  0  0.060136  0.058203  0  3.94992  0
C  C30  1  0.78551493  0.55329637  0.40868611  1  0  0.061645  0.062959  0  3.944509  0
C  C31  1  0.21449155  0.44670504  0.59131365  1  0  0.06171  0.063105  0  3.944383  0
C  C32  1  0.58898615  0.23989807  0.08107974  1  0  0.118742  0.116333  0  3.981626  0
C  C33  1  0.41100654  0.76010698  0.91891869  1  0  0.118678  0.116261  0  3.98175  0
C  C34  1  0.19481651  0.31167963  0.32668242  1  0  0.19845  0.5363  0  4.290574  0
C  C35  1  0.80518260  0.68832176  0.67331278  1  0  0.198544  0.536467  0  4.290423  0
C  C36  1  0.45136179  0.18649261  0.06333756  1  0  0.118346  0.117485  0  3.990671  0
C  C37  1  0.54862774  0.81351121  0.93666045  1  0  0.118489  0.117795  0  3.990519  0
C  C38  1  0.65516635  0.72019841  0.39459752  1  0  0.197619  0.531249  0  4.32231  0
C  C39  1  0.34484642  0.27980546  0.60539835  1  0  0.197671  0.531404  0  4.322475  0
C  C40  1  0.24498362  0.16867808  0.94008178  1  0  -0.057549  -0.063524  0  3.877131  0
C  C41  1  0.75501372  0.83131598  0.05992071  1  0  -0.057461  -0.063346  0  3.877105  0
C  C42  1  0.94981966  0.28487947  0.46121335  1  0  -0.101707  -0.164729  0  3.975715  0
C  C43  1  0.05018406  0.71512560  0.53878877  1  0  -0.101655  -0.164622  0  3.975716  0
C  C44  1  0.78925618  0.37592625  0.00999490  1  0  -0.060022  -0.071637  0  3.899016  0
C  C45  1  0.21074139  0.62407880  0.99000184  1  0  -0.060057  -0.071787  0  3.899081  0
C  C46  1  0.27118263  0.04818589  0.14104500  1  0  0.061234  0.108291  0  3.952258  0
C  C47  1  0.72881738  0.95181062  0.85896159  1  0  0.061312  0.108304  0  3.952234  0
C  C48  1  0.37971562  0.22414656  0.95273210  1  0  -0.001132  0.044654  0  3.998164  0
C  C49  1  0.62027598  0.77585238  0.04726859  1  0  -0.001196  0.044411  0  3.998077  0
C  C50  1  0.65435865  0.32614986  0.98780449  1  0  -0.000727  0.043348  0  4.003378  0
C  C51  1  0.34562964  0.67385395  0.01219196  1  0  -0.000645  0.043382  0  4.003616  0
C  C52  1  0.77819333  0.25335547  0.20716350  1  0  0.061259  0.115741  0  3.903978  0
C  C53  1  0.22181068  0.74664594  0.79283158  1  0  0.061352  0.115767  0  3.904085  0
C  C54  1  0.19191413  0.08028949  0.03457718  1  0  -0.083751  -0.131785  0  4.009388  0
C  C55  1  0.80808674  0.91970214  0.96543291  1  0  -0.083826  -0.131894  0  4.009466  0
C  C56  1  0.58054418  0.36108003  0.87697450  1  0  -0.080318  -0.118285  0  3.937569  0
C  C57  1  0.41944515  0.63892135  0.12302329  1  0  -0.080298  -0.118186  0  3.937576  0
C  C58  1  0.85035099  0.33982283  0.11974989  1  0  -0.083554  -0.132197  0  3.986379  0
C  C59  1  0.14964220  0.66018100  0.88024487  1  0  -0.083672  -0.132293  0  3.986182  0
C  C60  1  0.44749410  0.31303662  0.86069989  1  0  -0.082393  -0.11446  0  3.978874  0
C  C61  1  0.55249519  0.68695620  0.13930150  1  0  -0.082418  -0.11446  0  3.978967  0
N  N62  1  0.39651874  0.10060751  0.15467318  1  0  -0.313106  -0.266397  0  3.541725  0
N  N63  1  0.60348267  0.89939145  0.84533202  1  0  -0.313176  -0.266553  0  3.541919  0
N  N64  1  0.65144605  0.20498099  0.18806435  1  0  -0.316876  -0.250922  0  3.533513  0
N  N65  1  0.34854765  0.79502161  0.81193069  1  0  -0.316889  -0.250935  0  3.533816  0
O  O66  1  0.93123882  0.53214051  0.34850197  1  0  -0.116465  -0.110757  0  2.62253  0
O  O67  1  0.06876641  0.46786089  0.65149229  1  0  -0.116487  -0.110855  0  2.622445  0
O  O68  1  0.67320731  0.08359101  0.44164113  1  0  -0.580514  -0.751899  0  2.122096  0
O  O69  1  0.32679841  0.91640062  0.55835936  1  0  -0.580549  -0.752017  0  2.122027  0
O  O70  1  0.29813556  0.15838082  0.37392492  1  0  -0.324038  -0.567818  0  2.391884  0
O  O71  1  0.70186583  0.84161813  0.62607396  1  0  -0.324017  -0.567834  0  2.391917  0
O  O72  1  0.69439272  0.83961098  0.33386103  1  0  -0.330012  -0.550114  0  2.337412  0
O  O73  1  0.30562251  0.16039290  0.66613794  1  0  -0.330004  -0.550144  0  2.337419  0
O  O74  1  0.51532809  0.73078998  0.44266535  1  0  -0.317555  -0.550795  0  2.202455  0
O  O75  1  0.48467944  0.26921754  0.55732663  1  0  -0.317602  -0.550917  0  2.202668  0
O  O76  1  0.22552696  0.40632443  0.24150334  1  0  -0.320342  -0.546098  0  2.181262  0
O  O77  1  0.77446918  0.59367818  0.75849006  1  0  -0.320417  -0.546246  0  2.181308  0
