# generated using pymatgen
data_Cu5H8C8(BrN4)3
_symmetry_space_group_name_H-M   'P 1'
_cell_length_a   6.28699694
_cell_length_b   7.20405939
_cell_length_c   20.62135644
_cell_angle_alpha   90.00010853
_cell_angle_beta   90.00027952
_cell_angle_gamma   88.29028535
_symmetry_Int_Tables_number   1
_chemical_formula_structural   Cu5H8C8(BrN4)3
_chemical_formula_sum   'Cu10 H16 C16 Br6 N24'
_cell_volume   933.56460641
_cell_formula_units_Z   2
loop_
 _symmetry_equiv_pos_site_id
 _symmetry_equiv_pos_as_xyz
  1  'x, y, z'
loop_
 _atom_site_type_symbol
 _atom_site_label
 _atom_site_symmetry_multiplicity
 _atom_site_fract_x
 _atom_site_fract_y
 _atom_site_fract_z
 _atom_site_occupancy
 _atom_site_pbe_cm5_charge
 _atom_site_pbe_ddec_charge
 _atom_site_pbe_ddec_spin_density
 _atom_site_pbe_ddec_sum_bond_order
 _atom_site_pbe_magmom
Cu  Cu0  1  0.99999457  0.50000214  0.99999949  1  0.244636  0.210306  -0.000996  2.506644  0.0
Cu  Cu1  1  0.00000305  0.49999879  0.50000220  1  0.244669  0.210414  -0.001283  2.506522  0.0
Cu  Cu2  1  0.64922208  0.74357149  0.99867985  1  0.450885  0.336192  0.006867  2.256889  0.007
Cu  Cu3  1  0.35077804  0.25644175  0.49868136  1  0.450957  0.33629  0.006601  2.256843  0.007
Cu  Cu4  1  0.35076899  0.25642563  0.00132077  1  0.450933  0.336202  0.006882  2.25697  0.007
Cu  Cu5  1  0.64922922  0.74355819  0.50131829  1  0.450901  0.336219  0.006607  2.256866  0.007
Cu  Cu6  1  0.03145984  0.51349299  0.75000226  1  0.734957  0.5607  0.685312  2.529956  0.55
Cu  Cu7  1  0.96854308  0.48651287  0.24999788  1  0.734907  0.560567  0.685219  2.529877  0.55
Cu  Cu8  1  0.03030036  0.98659826  0.75000049  1  0.710704  0.54304  0.658318  2.500957  0.532
Cu  Cu9  1  0.96970998  0.01340003  0.24999917  1  0.710575  0.542763  0.65819  2.500676  0.532
H  H10  1  0.74601398  0.04534249  0.11017556  1  0.119008  0.102017  0.000188  1.030556  0.0
H  H11  1  0.25398449  0.95466008  0.61017518  1  0.119008  0.10198  0.0002  1.030425  0.0
H  H12  1  0.25398852  0.95465784  0.88982507  1  0.119024  0.101977  0.000188  1.030561  0.0
H  H13  1  0.74603506  0.04533327  0.38982884  1  0.119009  0.102017  0.0002  1.030513  0.0
H  H14  1  0.72440191  0.46112232  0.11560065  1  0.11967  0.10068  0.000129  1.030988  0.0
H  H15  1  0.27559825  0.53888014  0.61560534  1  0.119676  0.100711  0.000138  1.030894  0.0
H  H16  1  0.27558122  0.53887546  0.88440143  1  0.119666  0.10075  0.000127  1.030878  0.0
H  H17  1  0.72440097  0.46111907  0.38439189  1  0.119612  0.100613  0.000139  1.030833  0.0
H  H18  1  0.73874699  0.46108147  0.88370483  1  0.12209  0.099634  -0.000144  1.016277  0.0
H  H19  1  0.26122481  0.53892367  0.38370643  1  0.122073  0.099538  -0.000131  1.016474  0.0
H  H20  1  0.26122958  0.53891408  0.11628755  1  0.122091  0.099582  -0.000143  1.016338  0.0
H  H21  1  0.73874255  0.46107682  0.61629759  1  0.122108  0.099608  -0.000132  1.016328  0.0
H  H22  1  0.75013595  0.04414103  0.88885179  1  0.120093  0.100648  -6.6e-05  1.021645  0.0
H  H23  1  0.24988348  0.95585877  0.38885705  1  0.120123  0.100705  -5.2e-05  1.021422  0.0
H  H24  1  0.24986782  0.95585502  0.11114641  1  0.120121  0.100677  -6.6e-05  1.021502  0.0
H  H25  1  0.75014739  0.04413642  0.61114115  1  0.120134  0.100669  -5.2e-05  1.021538  0.0
C  C26  1  0.76470846  0.90131920  0.12489071  1  0.134695  0.150663  -0.000291  3.923724  0.003
C  C27  1  0.23528287  0.09869101  0.62489457  1  0.134799  0.150867  -0.000274  3.923572  0.003
C  C28  1  0.23528441  0.09868055  0.87510701  1  0.134691  0.150786  -0.000298  3.923621  0.003
C  C29  1  0.76472460  0.90131169  0.37510606  1  0.134782  0.150757  -0.000267  3.923835  0.003
C  C30  1  0.75455402  0.60456029  0.12741274  1  0.125895  0.130563  -0.000535  3.961696  0.003
C  C31  1  0.24544308  0.39544111  0.62741342  1  0.125895  0.130537  -0.000519  3.961546  0.003
C  C32  1  0.24544054  0.39544071  0.87259080  1  0.125914  0.130476  -0.000539  3.961469  0.003
C  C33  1  0.75456619  0.60456422  0.37258430  1  0.126024  0.130611  -0.000513  3.961723  0.003
C  C34  1  0.76532618  0.60437396  0.87089585  1  0.128161  0.133179  0.000717  3.972435  0.005
C  C35  1  0.23465977  0.39563130  0.37089440  1  0.128091  0.133063  0.000743  3.972469  0.005
C  C36  1  0.23466130  0.39561789  0.12910381  1  0.128127  0.133182  0.000724  3.972632  0.005
C  C37  1  0.76532315  0.60436371  0.62910477  1  0.128042  0.133026  0.00074  3.972324  0.005
C  C38  1  0.76961412  0.90099677  0.87326825  1  0.135437  0.147946  0.000818  3.934242  0.005
C  C39  1  0.23038690  0.09901699  0.37326999  1  0.135395  0.14783  0.00085  3.93441  0.005
C  C40  1  0.23038224  0.09900686  0.12672995  1  0.135401  0.147861  0.000824  3.934052  0.005
C  C41  1  0.76962565  0.90098946  0.62673064  1  0.135384  0.14788  0.000844  3.934511  0.005
Br  Br42  1  0.35217409  0.74398702  0.75000690  1  -0.344911  -0.544232  -0.00539  1.303535  -0.001
Br  Br43  1  0.64782259  0.25602076  0.25000003  1  -0.344936  -0.54421  -0.005384  1.303482  -0.001
Br  Br44  1  0.21473351  0.74931445  0.00050472  1  -0.231068  -0.396644  0.005675  1.835785  0.006
Br  Br45  1  0.78526912  0.25068568  0.50050449  1  -0.231076  -0.396648  0.005691  1.835713  0.006
Br  Br46  1  0.78525311  0.25068721  0.99949785  1  -0.231064  -0.396626  0.005687  1.835795  0.006
Br  Br47  1  0.21473752  0.74930596  0.49949469  1  -0.231054  -0.396624  0.005691  1.835805  0.006
N  N48  1  0.85670777  0.84646831  0.18014656  1  -0.268653  -0.173887  0.052783  3.54828  0.071
N  N49  1  0.14329163  0.15350819  0.68015035  1  -0.268714  -0.173995  0.052807  3.547996  0.071
N  N50  1  0.14328501  0.15350918  0.81985115  1  -0.268694  -0.174016  0.052796  3.548008  0.071
N  N51  1  0.85670910  0.84646864  0.31985270  1  -0.268718  -0.173999  0.0528  3.548531  0.071
N  N52  1  0.85039462  0.65725154  0.18154068  1  -0.274143  -0.171696  0.057058  3.575509  0.077
N  N53  1  0.14960572  0.34275828  0.68154606  1  -0.274253  -0.171923  0.057087  3.574854  0.077
N  N54  1  0.14959580  0.34275815  0.81845510  1  -0.274277  -0.171873  0.057072  3.574794  0.077
N  N55  1  0.85039603  0.65725325  0.31845554  1  -0.274116  -0.171607  0.057071  3.575484  0.077
N  N56  1  0.69949630  0.75369194  0.08986576  1  -0.408979  -0.300416  0.003764  3.685584  0.005
N  N57  1  0.30049425  0.24631673  0.58986932  1  -0.408974  -0.300382  0.00377  3.685443  0.005
N  N58  1  0.30049984  0.24630893  0.91013292  1  -0.408924  -0.300282  0.003773  3.685454  0.005
N  N59  1  0.69952095  0.75368255  0.41013034  1  -0.409062  -0.300453  0.003766  3.685866  0.005
N  N60  1  0.86655454  0.65787670  0.81791008  1  -0.271673  -0.171409  0.056696  3.583622  0.076
N  N61  1  0.13343868  0.34211093  0.31790605  1  -0.271682  -0.171321  0.056693  3.584143  0.076
N  N62  1  0.13344077  0.34211311  0.18209103  1  -0.271675  -0.171408  0.056681  3.584054  0.076
N  N63  1  0.86655515  0.65788039  0.68209360  1  -0.271669  -0.17138  0.056704  3.583462  0.076
N  N64  1  0.86866463  0.84702156  0.81915691  1  -0.265494  -0.171244  0.052401  3.555466  0.07
N  N65  1  0.13134870  0.15299917  0.31916003  1  -0.265507  -0.171163  0.052411  3.556106  0.07
N  N66  1  0.13134093  0.15299799  0.18084177  1  -0.265491  -0.171127  0.052397  3.555784  0.07
N  N67  1  0.86866807  0.84702084  0.68083866  1  -0.265451  -0.171105  0.052414  3.555689  0.07
N  N68  1  0.70298632  0.75283412  0.90777510  1  -0.408552  -0.301046  0.004689  3.693319  0.006
N  N69  1  0.29700372  0.24717382  0.40777897  1  -0.408495  -0.300977  0.004687  3.69348  0.006
N  N70  1  0.29701014  0.24717089  0.09222358  1  -0.408556  -0.301026  0.004691  3.693555  0.006
N  N71  1  0.70299719  0.75282665  0.59222263  1  -0.408501  -0.301008  0.004691  3.693384  0.006
