# generated using pymatgen
data_Gd2H16C12S3O14
_symmetry_space_group_name_H-M   'P 1'
_cell_length_a   7.95257898
_cell_length_b   10.54780041
_cell_length_c   14.21172852
_cell_angle_alpha   71.08651482
_cell_angle_beta   75.74485943
_cell_angle_gamma   77.09012293
_symmetry_Int_Tables_number   1
_chemical_formula_structural   Gd2H16C12S3O14
_chemical_formula_sum   'Gd4 H32 C24 S6 O28'
_cell_volume   1079.53434484
_cell_formula_units_Z   2
loop_
 _symmetry_equiv_pos_site_id
 _symmetry_equiv_pos_as_xyz
  1  'x, y, z'
loop_
 _atom_site_type_symbol
 _atom_site_label
 _atom_site_symmetry_multiplicity
 _atom_site_fract_x
 _atom_site_fract_y
 _atom_site_fract_z
 _atom_site_occupancy
 _atom_site_hle17_bader_spin_density
 _atom_site_hle17_ddec_charge
 _atom_site_hle17_ddec_spin_density
 _atom_site_hle17_ddec_sum_bond_order
 _atom_site_hle17_magmom
 _atom_site_hse06_10hf_bader_spin_density
 _atom_site_hse06_10hf_ddec_charge
 _atom_site_hse06_10hf_ddec_spin_density
 _atom_site_hse06_10hf_ddec_sum_bond_order
 _atom_site_hse06_10hf_magmom
 _atom_site_hse06_bader_spin_density
 _atom_site_hse06_ddec_charge
 _atom_site_hse06_ddec_spin_density
 _atom_site_hse06_ddec_sum_bond_order
 _atom_site_hse06_magmom
 _atom_site_pbe_bader_spin_density
 _atom_site_pbe_cm5_charge
 _atom_site_pbe_ddec_charge
 _atom_site_pbe_ddec_spin_density
 _atom_site_pbe_ddec_sum_bond_order
 _atom_site_pbe_magmom
Gd  Gd0  1  0.59059246  0.59204854  0.85844082  1  0  2.162089  0  1.864299  0  0  2.04911  0  2.251413  0  0  2.112166  0  2.185654  0  0  1.433776  2.00071  0  2.303611  0
Gd  Gd1  1  0.40940854  0.40795291  0.14155782  1  0  2.162104  0  1.864321  0  0  2.049143  0  2.251432  0  0  2.112188  0  2.185688  0  0  1.433833  2.000775  0  2.303577  0
Gd  Gd2  1  0.00740527  0.80272692  0.59675390  1  0  2.187034  0  1.748166  0  0  2.097126  0  2.098819  0  0  2.153271  0  2.041922  0  0  1.461279  2.054783  0  2.142503  0
Gd  Gd3  1  0.99259506  0.19727150  0.40324769  1  0  2.187049  0  1.748146  0  0  2.097165  0  2.098742  0  0  2.15327  0  2.041914  0  0  1.461289  2.05476  0  2.142547  0
H  H4  1  0.27113392  0.41565395  0.82274931  1  0  0.130222  0  0.934343  0  0  0.14418  0  0.991002  0  0  0.146474  0  0.990178  0  0  0.108836  0.142535  0  0.991694  0
H  H5  1  0.72886557  0.58434854  0.17725210  1  0  0.130189  0  0.934335  0  0  0.144163  0  0.990967  0  0  0.146447  0  0.990153  0  0  0.108854  0.142517  0  0.991668  0
H  H6  1  0.05508951  0.45305551  0.89141687  1  0  0.15022  0  0.93962  0  0  0.159569  0  0.998989  0  0  0.16349  0  0.997197  0  0  0.115396  0.156699  0  1.000458  0
H  H7  1  0.94490911  0.54694494  0.10858517  1  0  0.150211  0  0.939627  0  0  0.159539  0  0.999014  0  0  0.16346  0  0.997221  0  0  0.115396  0.15667  0  1.000486  0
H  H8  1  0.43385669  0.95170022  0.61594185  1  0  0.141602  0  0.905201  0  0  0.156404  0  0.957786  0  0  0.159107  0  0.95713  0  0  0.119217  0.154429  0  0.958435  0
H  H9  1  0.56614104  0.04829818  0.38405940  1  0  0.141563  0  0.905292  0  0  0.156386  0  0.957829  0  0  0.159093  0  0.957165  0  0  0.119231  0.154412  0  0.958488  0
H  H10  1  0.24430321  0.98116224  0.70654257  1  0  0.14387  0  0.904306  0  0  0.16009  0  0.954362  0  0  0.162866  0  0.953026  0  0  0.119808  0.158051  0  0.955498  0
H  H11  1  0.75569431  0.01883717  0.29345706  1  0  0.143918  0  0.904241  0  0  0.160115  0  0.95432  0  0  0.162891  0  0.952981  0  0  0.119818  0.158082  0  0.955454  0
H  H12  1  0.59110945  0.12779281  0.77524665  1  0  0.127988  0  0.943434  0  0  0.137927  0  1.006028  0  0  0.140545  0  1.004753  0  0  0.101171  0.135973  0  1.007161  0
H  H13  1  0.40888828  0.87220559  0.22475319  1  0  0.127969  0  0.943472  0  0  0.137882  0  1.006078  0  0  0.14051  0  1.004806  0  0  0.101155  0.135937  0  1.007209  0
H  H14  1  0.41729777  0.02827642  0.82938264  1  0  0.120869  0  0.953797  0  0  0.127454  0  1.020285  0  0  0.130575  0  1.018218  0  0  0.096576  0.125254  0  1.021806  0
H  H15  1  0.58269976  0.97172299  0.17061699  1  0  0.120849  0  0.95383  0  0  0.127414  0  1.020317  0  0  0.130546  0  1.018252  0  0  0.096561  0.125219  0  1.021836  0
H  H16  1  0.18923542  0.89684595  0.38768879  1  0  0.426009  0  0.886796  0  0  0.394472  0  0.952305  0  0  0.405877  0  0.935938  0  0  0.29571  0.386319  0  0.964005  0
H  H17  1  0.81076449  0.10315448  0.61231025  1  0  0.426021  0  0.886779  0  0  0.394493  0  0.952275  0  0  0.405897  0  0.935909  0  0  0.295705  0.386342  0  0.963969  0
H  H18  1  0.28775174  0.75987089  0.44678386  1  0  0.409364  0  0.882599  0  0  0.377908  0  0.964096  0  0  0.388237  0  0.948791  0  0  0.294333  0.370514  0  0.975043  0
H  H19  1  0.71224946  0.24012955  0.55321570  1  0  0.409364  0  0.882601  0  0  0.377907  0  0.964098  0  0  0.388236  0  0.948794  0  0  0.294329  0.370512  0  0.975043  0
H  H20  1  0.93464892  0.32716117  0.74635580  1  0  0.141033  0  0.941352  0  0  0.145073  0  1.013153  0  0  0.148758  0  1.010567  0  0  0.109323  0.142387  0  1.015234  0
H  H21  1  0.06535208  0.67284029  0.25364355  1  0  0.141014  0  0.941376  0  0  0.145062  0  1.013174  0  0  0.148748  0  1.010588  0  0  0.109328  0.142379  0  1.015253  0
H  H22  1  0.91637211  0.36181730  0.61720216  1  0  0.158751  0  0.926484  0  0  0.168987  0  0.982534  0  0  0.172554  0  0.980678  0  0  0.115797  0.166325  0  0.984256  0
H  H23  1  0.08362801  0.63818211  0.38279710  1  0  0.158774  0  0.926459  0  0  0.16901  0  0.982515  0  0  0.172575  0  0.980663  0  0  0.115814  0.166349  0  0.98423  0
H  H24  1  0.91089170  0.09910272  0.99132464  1  0  0.125436  0  0.921605  0  0  0.144115  0  0.973517  0  0  0.145599  0  0.973055  0  0  0.10954  0.143044  0  0.974021  0
H  H25  1  0.08911081  0.90089773  0.00867545  1  0  0.125439  0  0.921608  0  0  0.144115  0  0.973521  0  0  0.145601  0  0.973058  0  0  0.10955  0.143041  0  0.974027  0
H  H26  1  0.99023945  0.15670960  0.07355512  1  0  0.126376  0  0.940668  0  0  0.137633  0  1.001173  0  0  0.141212  0  0.998274  0  0  0.103014  0.135036  0  1.003489  0
H  H27  1  0.00976025  0.84329186  0.92644511  1  0  0.126405  0  0.940625  0  0  0.137668  0  1.001114  0  0  0.141246  0  0.998218  0  0  0.103046  0.135066  0  1.003429  0
H  H28  1  0.65680462  0.56621285  0.56368942  1  0  0.164739  0  0.902924  0  0  0.181061  0  0.954237  0  0  0.184109  0  0.952528  0  0  0.126183  0.17877  0  0.955916  0
H  H29  1  0.34319420  0.43378657  0.43631002  1  0  0.164713  0  0.902939  0  0  0.181047  0  0.954244  0  0  0.184089  0  0.952549  0  0  0.126183  0.178759  0  0.95592  0
H  H30  1  0.48507233  0.47043615  0.58856622  1  0  0.132485  0  0.931864  0  0  0.143958  0  0.994055  0  0  0.146533  0  0.992691  0  0  0.107903  0.142188  0  0.995056  0
H  H31  1  0.51492649  0.52956328  0.41143533  1  0  0.132473  0  0.931982  0  0  0.143979  0  0.99414  0  0  0.146554  0  0.992776  0  0  0.107908  0.14221  0  0.995136  0
H  H32  1  0.18914496  0.73124263  0.77079452  1  0  0.447474  0  0.847537  0  0  0.415768  0  0.913069  0  0  0.42704  0  0.896571  0  0  0.305247  0.407811  0  0.924658  0
H  H33  1  0.81085345  0.26875883  0.22920659  1  0  0.447473  0  0.84753  0  0  0.415762  0  0.913073  0  0  0.427034  0  0.896575  0  0  0.305236  0.407806  0  0.924661  0
H  H34  1  0.98634332  0.72623800  0.82488016  1  0  0.456873  0  0.829711  0  0  0.428209  0  0.888966  0  0  0.438482  0  0.87392  0  0  0.311667  0.420923  0  0.899636  0
H  H35  1  0.01365530  0.27376244  0.17512047  1  0  0.456855  0  0.829735  0  0  0.428193  0  0.888988  0  0  0.438466  0  0.873942  0  0  0.311652  0.420908  0  0.899657  0
C  C36  1  0.25610899  0.38461897  0.98106456  1  0  0.760064  0  3.789257  0  0  0.713982  0  4.088853  0  0  0.748847  0  4.079327  0  0  0.221715  0.690184  0  4.0944  0
C  C37  1  0.74388962  0.61538147  0.01893677  1  0  0.760224  0  3.788774  0  0  0.713936  0  4.088697  0  0  0.748801  0  4.07917  0  0  0.221685  0.690144  0  4.094235  0
C  C38  1  0.17989964  0.38266779  0.89422547  1  0  -0.30799  0  3.604812  0  0  -0.337473  0  3.856583  0  0  -0.343019  0  3.860216  0  0  -0.148178  -0.333829  0  3.854519  0
C  C39  1  0.82010136  0.61733368  0.10577528  1  0  -0.307922  0  3.604746  0  0  -0.337315  0  3.856524  0  0  -0.342851  0  3.860155  0  0  -0.148128  -0.333674  0  3.854476  0
C  C40  1  0.22198946  0.08524402  0.55297650  1  0  0.761732  0  3.805628  0  0  0.718608  0  4.102022  0  0  0.752843  0  4.093161  0  0  0.223615  0.695282  0  4.107068  0
C  C41  1  0.77801045  0.91475640  0.44702184  1  0  0.761644  0  3.805593  0  0  0.718479  0  4.102029  0  0  0.752712  0  4.093176  0  0  0.223558  0.69516  0  4.107064  0
C  C42  1  0.32812175  0.03126462  0.63619246  1  0  -0.305788  0  3.60916  0  0  -0.335804  0  3.862695  0  0  -0.341294  0  3.867444  0  0  -0.140915  -0.332104  0  3.859475  0
C  C43  1  0.67187577  0.96873479  0.36380716  1  0  -0.305795  0  3.609206  0  0  -0.33576  0  3.862678  0  0  -0.341245  0  3.867412  0  0  -0.140908  -0.332063  0  3.859463  0
C  C44  1  0.51848435  0.05944861  0.76237371  1  0  -0.333088  0  3.659839  0  0  -0.364558  0  3.909179  0  0  -0.37024  0  3.914593  0  0  -0.157538  -0.36076  0  3.905627  0
C  C45  1  0.48151318  0.94055080  0.23762592  1  0  -0.332979  0  3.660025  0  0  -0.364329  0  3.909183  0  0  -0.370091  0  3.91473  0  0  -0.157446  -0.360543  0  3.905643  0
C  C46  1  0.64156544  0.93375626  0.74327826  1  0  0.782214  0  3.783437  0  0  0.744729  0  4.066846  0  0  0.778842  0  4.057779  0  0  0.243765  0.721257  0  4.072723  0
C  C47  1  0.35843401  0.06624012  0.25672255  1  0  0.782023  0  3.783695  0  0  0.74453  0  4.067105  0  0  0.778656  0  4.058035  0  0  0.243649  0.721053  0  4.072989  0
C  C48  1  0.79620296  0.30010883  0.99511324  1  0  0.76902  0  3.800955  0  0  0.7285  0  4.092845  0  0  0.762909  0  4.08402  0  0  0.229924  0.705093  0  4.097933  0
C  C49  1  0.20380063  0.69989262  0.00488434  1  0  0.769111  0  3.80085  0  0  0.728544  0  4.09282  0  0  0.762953  0  4.083998  0  0  0.229948  0.705145  0  4.097901  0
C  C50  1  0.92338500  0.53557980  0.66374419  1  0  0.73618  0  3.832991  0  0  0.694445  0  4.130334  0  0  0.727965  0  4.123058  0  0  0.211277  0.671612  0  4.134308  0
C  C51  1  0.07661600  0.46442165  0.33625516  1  0  0.73622  0  3.832833  0  0  0.694411  0  4.130315  0  0  0.727933  0  4.123028  0  0  0.211268  0.67158  0  4.134282  0
C  C52  1  0.41670617  0.63707159  0.65243528  1  0  0.774041  0  3.800789  0  0  0.726781  0  4.101528  0  0  0.761542  0  4.091791  0  0  0.237831  0.703067  0  4.10734  0
C  C53  1  0.58329374  0.36292885  0.34756516  1  0  0.774075  0  3.800651  0  0  0.726685  0  4.101624  0  0  0.761447  0  4.091886  0  0  0.237838  0.702974  0  4.107429  0
C  C54  1  0.87144006  0.39882263  0.68426083  1  0  -0.311823  0  3.618901  0  0  -0.339154  0  3.866524  0  0  -0.3449  0  3.871018  0  0  -0.144562  -0.335321  0  3.86346  0
C  C55  1  0.12856245  0.60117781  0.31573856  1  0  -0.311813  0  3.618915  0  0  -0.339125  0  3.866541  0  0  -0.34487  0  3.871033  0  0  -0.144567  -0.335292  0  3.863464  0
C  C56  1  0.95453131  0.18692124  0.99872972  1  0  -0.312378  0  3.651338  0  0  -0.34818  0  3.914092  0  0  -0.352288  0  3.917893  0  0  -0.154458  -0.345579  0  3.911729  0
C  C57  1  0.04546710  0.81308021  0.00126999  1  0  -0.312437  0  3.651342  0  0  -0.348235  0  3.914126  0  0  -0.352341  0  3.917919  0  0  -0.154502  -0.345625  0  3.911751  0
C  C58  1  0.55000444  0.52178401  0.62226156  1  0  -0.322826  0  3.583243  0  0  -0.357777  0  3.840067  0  0  -0.362714  0  3.844174  0  0  -0.144557  -0.354697  0  3.837331  0
C  C59  1  0.44999568  0.47821542  0.37773911  1  0  -0.322765  0  3.5833  0  0  -0.357719  0  3.840164  0  0  -0.362656  0  3.844271  0  0  -0.144546  -0.354632  0  3.837414  0
S  S60  1  0.63860076  0.40006334  0.72899089  1  0  0.016407  0  2.468579  0  0  0.016199  0  2.818668  0  0  0.014029  0  2.815175  0  0  0.008137  0.018654  0  2.821149  0
S  S61  1  0.36140045  0.59993710  0.27100938  1  0  0.01635  0  2.46859  0  0  0.016129  0  2.818714  0  0  0.013961  0  2.815217  0  0  0.008111  0.018581  0  2.821197  0
S  S62  1  0.41755324  0.16293047  0.65499096  1  0  0.031193  0  2.342045  0  0  0.028925  0  2.686894  0  0  0.028124  0  2.68365  0  0  -0.009225  0.029614  0  2.689405  0
S  S63  1  0.58244559  0.83706895  0.34500918  1  0  0.031166  0  2.342053  0  0  0.028844  0  2.686862  0  0  0.028065  0  2.683642  0  0  -0.009243  0.029541  0  2.689379  0
S  S64  1  0.14218535  0.21769301  0.89748536  1  0  0.019691  0  2.339333  0  0  0.014993  0  2.681285  0  0  0.013956  0  2.677118  0  0  -0.018702  0.015982  0  2.684458  0
S  S65  1  0.85781736  0.78230642  0.10251565  1  0  0.019698  0  2.339419  0  0  0.014975  0  2.681375  0  0  0.01394  0  2.677199  0  0  -0.018705  0.015956  0  2.684551  0
O  O66  1  0.22595335  0.20218722  0.49125764  1  0  -0.656221  0  1.916419  0  0  -0.615008  0  2.145609  0  0  -0.640033  0  2.137717  0  0  -0.346788  -0.597448  0  2.150967  0
O  O67  1  0.77404718  0.79781017  0.50874206  1  0  -0.656142  0  1.916286  0  0  -0.614923  0  2.14551  0  0  -0.639957  0  2.137621  0  0  -0.346739  -0.597372  0  2.150855  0
O  O68  1  0.68980073  0.29310646  0.07821791  1  0  -0.692123  0  2.032808  0  0  -0.647572  0  2.277449  0  0  -0.673648  0  2.267329  0  0  -0.377017  -0.628775  0  2.283858  0
O  O69  1  0.31019549  0.70689295  0.92178190  1  0  -0.692178  0  2.032817  0  0  -0.647611  0  2.277483  0  0  -0.673687  0  2.267361  0  0  -0.37705  -0.628819  0  2.283891  0
O  O70  1  0.31895538  0.70853920  0.59087627  1  0  -0.704297  0  2.063583  0  0  -0.658107  0  2.315712  0  0  -0.685066  0  2.305693  0  0  -0.363848  -0.638961  0  2.322155  0
O  O71  1  0.68104323  0.29146122  0.40912225  1  0  -0.704309  0  2.063592  0  0  -0.658065  0  2.315755  0  0  -0.685014  0  2.305736  0  0  -0.363838  -0.638905  0  2.322198  0
O  O72  1  0.17271491  0.35233992  0.07158329  1  0  -0.671464  0  1.983445  0  0  -0.617933  0  2.21025  0  0  -0.644401  0  2.201904  0  0  -0.332115  -0.599409  0  2.215744  0
O  O73  1  0.82728588  0.64766256  0.92841795  1  0  -0.671546  0  1.98313  0  0  -0.61793  0  2.210044  0  0  -0.644392  0  2.201682  0  0  -0.332083  -0.599401  0  2.215537  0
O  O74  1  0.40656194  0.42337837  0.96205153  1  0  -0.819057  0  2.162294  0  0  -0.771091  0  2.418244  0  0  -0.801102  0  2.409417  0  0  -0.423308  -0.749275  0  2.423771  0
O  O75  1  0.59343559  0.57662107  0.03795090  1  0  -0.819125  0  2.162176  0  0  -0.7711  0  2.418235  0  0  -0.801111  0  2.409402  0  0  -0.423326  -0.74929  0  2.423764  0
O  O76  1  0.12586897  0.00631826  0.54647838  1  0  -0.798355  0  2.121364  0  0  -0.752612  0  2.380904  0  0  -0.781145  0  2.370893  0  0  -0.429885  -0.731834  0  2.387078  0
O  O77  1  0.87413094  0.99368217  0.45352066  1  0  -0.798333  0  2.121377  0  0  -0.752605  0  2.380968  0  0  -0.781137  0  2.370963  0  0  -0.429893  -0.731834  0  2.387146  0
O  O78  1  0.83194671  0.61933981  0.71354940  1  0  -0.813461  0  2.107445  0  0  -0.771678  0  2.366973  0  0  -0.799988  0  2.357245  0  0  -0.420653  -0.750832  0  2.372965  0
O  O79  1  0.16805580  0.38066063  0.28644999  1  0  -0.813463  0  2.107368  0  0  -0.771658  0  2.366911  0  0  -0.799958  0  2.357178  0  0  -0.420634  -0.750811  0  2.372907  0
O  O80  1  0.78255086  0.39047159  0.91147791  1  0  -0.74531  0  2.121379  0  0  -0.6954  0  2.37022  0  0  -0.724553  0  2.363528  0  0  -0.396341  -0.674625  0  2.374418  0
O  O81  1  0.21745077  0.60952682  0.08852280  1  0  -0.745366  0  2.121319  0  0  -0.695418  0  2.370134  0  0  -0.724564  0  2.36343  0  0  -0.396362  -0.674644  0  2.374301  0
O  O82  1  0.05638062  0.56785494  0.59693388  1  0  -0.639601  0  1.918412  0  0  -0.599381  0  2.143226  0  0  -0.624126  0  2.135534  0  0  -0.365052  -0.582018  0  2.148278  0
O  O83  1  0.94362209  0.43214448  0.40306503  1  0  -0.639629  0  1.918379  0  0  -0.599367  0  2.143188  0  0  -0.624129  0  2.135536  0  0  -0.365057  -0.58199  0  2.148235  0
O  O84  1  0.17093859  0.80239704  0.43088887  1  0  -0.884667  0  1.94274  0  0  -0.845972  0  2.139566  0  0  -0.866687  0  2.1098  0  0  -0.642469  -0.830986  0  2.160662  0
O  O85  1  0.82906132  0.19760339  0.56911017  1  0  -0.884663  0  1.942717  0  0  -0.845987  0  2.139541  0  0  -0.866695  0  2.109779  0  0  -0.64246  -0.830999  0  2.160652  0
O  O86  1  0.60251905  0.82095570  0.79907621  1  0  -0.689656  0  2.07377  0  0  -0.649152  0  2.326839  0  0  -0.67546  0  2.316039  0  0  -0.393759  -0.63067  0  2.334333  0
O  O87  1  0.39748174  0.17904677  0.20092292  1  0  -0.689606  0  2.073651  0  0  -0.649134  0  2.326757  0  0  -0.675436  0  2.315952  0  0  -0.393746  -0.630646  0  2.33425  0
O  O88  1  0.40667148  0.65519118  0.73850749  1  0  -0.744996  0  2.111588  0  0  -0.690549  0  2.35876  0  0  -0.719228  0  2.348917  0  0  -0.384436  -0.670167  0  2.365073  0
O  O89  1  0.59332972  0.34480924  0.26148926  1  0  -0.744986  0  2.111452  0  0  -0.690499  0  2.358679  0  0  -0.719179  0  2.348839  0  0  -0.384455  -0.670125  0  2.364994  0
O  O90  1  0.77612298  0.94849993  0.67136412  1  0  -0.731698  0  2.08118  0  0  -0.677119  0  2.314734  0  0  -0.705106  0  2.30475  0  0  -0.375697  -0.657519  0  2.321638  0
O  O91  1  0.22387822  0.05150050  0.32863475  1  0  -0.731629  0  2.081355  0  0  -0.677052  0  2.314901  0  0  -0.705028  0  2.304909  0  0  -0.375641  -0.657435  0  2.321814  0
O  O92  1  0.06534537  0.76717515  0.76193921  1  0  -0.918195  0  1.848095  0  0  -0.881713  0  2.040749  0  0  -0.900972  0  2.007147  0  0  -0.641591  -0.867741  0  2.064375  0
O  O93  1  0.93465454  0.23282529  0.23806054  1  0  -0.918192  0  1.848083  0  0  -0.881714  0  2.040727  0  0  -0.900964  0  2.007126  0  0  -0.641564  -0.867724  0  2.064357  0
