# generated using pymatgen
data_CuH9C9N4O3
_symmetry_space_group_name_H-M   'P 1'
_cell_length_a   7.97803314
_cell_length_b   7.96033069
_cell_length_c   8.62644657
_cell_angle_alpha   102.34758876
_cell_angle_beta   105.89186342
_cell_angle_gamma   96.79010111
_symmetry_Int_Tables_number   1
_chemical_formula_structural   CuH9C9N4O3
_chemical_formula_sum   'Cu2 H18 C18 N8 O6'
_cell_volume   505.52541688
_cell_formula_units_Z   2
loop_
 _symmetry_equiv_pos_site_id
 _symmetry_equiv_pos_as_xyz
  1  'x, y, z'
loop_
 _atom_site_type_symbol
 _atom_site_label
 _atom_site_symmetry_multiplicity
 _atom_site_fract_x
 _atom_site_fract_y
 _atom_site_fract_z
 _atom_site_occupancy
 _atom_site_hle17_bader_spin_density
 _atom_site_hle17_ddec_charge
 _atom_site_hle17_ddec_spin_density
 _atom_site_hle17_ddec_sum_bond_order
 _atom_site_hle17_magmom
 _atom_site_hse06_10hf_bader_spin_density
 _atom_site_hse06_10hf_ddec_charge
 _atom_site_hse06_10hf_ddec_spin_density
 _atom_site_hse06_10hf_ddec_sum_bond_order
 _atom_site_hse06_10hf_magmom
 _atom_site_hse06_bader_spin_density
 _atom_site_hse06_ddec_charge
 _atom_site_hse06_ddec_spin_density
 _atom_site_hse06_ddec_sum_bond_order
 _atom_site_hse06_magmom
 _atom_site_pbe_bader_spin_density
 _atom_site_pbe_cm5_charge
 _atom_site_pbe_ddec_charge
 _atom_site_pbe_ddec_spin_density
 _atom_site_pbe_ddec_sum_bond_order
 _atom_site_pbe_magmom
Cu  Cu0  1  0.01810781  0.20415976  0.13757329  1  0  0.608748  0  1.891735  0  0  0.560046  0  2.333084  0  0  0.561761  0  2.294001  0  0  0.590119  0.559502  0  2.3593  0
Cu  Cu1  1  0.98189216  0.79584262  0.86242560  1  0  0.608748  0  1.891716  0  0  0.560036  0  2.33305  0  0  0.56179  0  2.293978  0  0  0.590106  0.5595  0  2.359304  0
H  H2  1  0.20042303  0.59209723  0.40586693  1  0  0.104969  0  0.97522  0  0  0.117154  0  1.037558  0  0  0.119019  0  1.037002  0  0  0.10586  0.115721  0  1.038146  0
H  H3  1  0.79957276  0.40790383  0.59412719  1  0  0.104991  0  0.975156  0  0  0.117174  0  1.037498  0  0  0.119039  0  1.036945  0  0  0.105853  0.115741  0  1.038089  0
H  H4  1  0.43066476  0.86139535  0.53921613  1  0  0.091518  0  0.951118  0  0  0.104676  0  1.009526  0  0  0.106661  0  1.010058  0  0  0.100651  0.103208  0  1.00934  0
H  H5  1  0.56932949  0.13860441  0.46077967  1  0  0.091545  0  0.951028  0  0  0.104689  0  1.00945  0  0  0.106674  0  1.009983  0  0  0.100647  0.103215  0  1.009263  0
H  H6  1  0.71830036  0.89006545  0.47855936  1  0  0.102493  0  0.969124  0  0  0.108505  0  1.036793  0  0  0.1123  0  1.033731  0  0  0.101777  0.105722  0  1.039135  0
H  H7  1  0.28169709  0.10993041  0.52144343  1  0  0.102517  0  0.969089  0  0  0.108505  0  1.036785  0  0  0.112301  0  1.033719  0  0  0.101782  0.105729  0  1.039128  0
H  H8  1  0.78409996  0.64912242  0.28117239  1  0  0.108902  0  1.012428  0  0  0.112392  0  1.083653  0  0  0.115471  0  1.082522  0  0  0.103594  0.110159  0  1.08465  0
H  H9  1  0.21590059  0.35087606  0.71883169  1  0  0.108826  0  1.012509  0  0  0.112356  0  1.083683  0  0  0.115434  0  1.082552  0  0  0.103586  0.110117  0  1.084693  0
H  H10  1  0.73196867  0.38404699  0.04069556  1  0  0.105745  0  0.917499  0  0  0.11834  0  0.981915  0  0  0.120063  0  0.979281  0  0  0.118932  0.117009  0  0.983202  0
H  H11  1  0.26803256  0.61596196  0.95930840  1  0  0.105738  0  0.917521  0  0  0.118335  0  0.981935  0  0  0.120058  0  0.979303  0  0  0.118933  0.117002  0  0.983225  0
H  H12  1  0.59647997  0.17264884  0.94302115  1  0  0.10051  0  0.911021  0  0  0.110999  0  0.97818  0  0  0.112168  0  0.976634  0  0  0.118424  0.110012  0  0.978789  0
H  H13  1  0.40352410  0.82736140  0.05698029  1  0  0.100533  0  0.910885  0  0  0.111023  0  0.978062  0  0  0.112193  0  0.976514  0  0  0.11843  0.110042  0  0.978662  0
H  H14  1  0.73883245  0.05541852  0.17796483  1  0  0.098603  0  0.952722  0  0  0.10294  0  1.025171  0  0  0.104838  0  1.024308  0  0  0.098667  0.101505  0  1.025947  0
H  H15  1  0.26116646  0.94458517  0.82203290  1  0  0.098626  0  0.952691  0  0  0.102953  0  1.025155  0  0  0.104852  0  1.024291  0  0  0.098678  0.101523  0  1.025938  0
H  H16  1  0.94268297  0.43746724  0.34670170  1  0  0.129735  0  0.983626  0  0  0.142516  0  1.04802  0  0  0.144522  0  1.047102  0  0  0.093213  0.141103  0  1.048719  0
H  H17  1  0.05732198  0.56253385  0.65330166  1  0  0.129819  0  0.983626  0  0  0.142594  0  1.048016  0  0  0.144602  0  1.0471  0  0  0.093251  0.141184  0  1.048715  0
H  H18  1  0.97706756  0.24024762  0.42690556  1  0  0.152851  0  0.97806  0  0  0.158927  0  1.047501  0  0  0.162213  0  1.045145  0  0  0.098017  0.156584  0  1.049224  0
H  H19  1  0.02293143  0.75974954  0.57309554  1  0  0.152843  0  0.978109  0  0  0.158922  0  1.047535  0  0  0.162208  0  1.04518  0  0  0.098021  0.156586  0  1.049262  0
C  C20  1  0.36352169  0.46763933  0.26812584  1  0  0.111886  0  3.827305  0  0  0.111365  0  4.079412  0  0  0.111253  0  4.099408  0  0  0.094067  0.111645  0  4.064077  0
C  C21  1  0.63647518  0.53236044  0.73187293  1  0  0.111827  0  3.827195  0  0  0.11131  0  4.079307  0  0  0.111201  0  4.099302  0  0  0.094047  0.111599  0  4.063958  0
C  C22  1  0.32552023  0.60386768  0.37847402  1  0  -0.111702  0  3.727963  0  0  -0.131819  0  3.975514  0  0  -0.133146  0  3.998101  0  0  -0.085624  -0.13092  0  3.960646  0
C  C23  1  0.67447612  0.39612946  0.62152179  1  0  -0.111684  0  3.727799  0  0  -0.131827  0  3.97541  0  0  -0.133152  0  3.997991  0  0  -0.085601  -0.130932  0  3.960538  0
C  C24  1  0.45485838  0.75403013  0.45104062  1  0  -0.063647  0  3.739469  0  0  -0.083367  0  3.995622  0  0  -0.086973  0  4.019288  0  0  -0.092004  -0.081077  0  3.979955  0
C  C25  1  0.54513719  0.24596965  0.54895898  1  0  -0.063736  0  3.73945  0  0  -0.083439  0  3.99559  0  0  -0.087043  0  4.019257  0  0  -0.092065  -0.081144  0  3.979916  0
C  C26  1  0.61861010  0.77098387  0.41596850  1  0  -0.056021  0  3.736179  0  0  -0.073722  0  3.993493  0  0  -0.074217  0  4.014074  0  0  -0.088314  -0.073326  0  3.979984  0
C  C27  1  0.38138866  0.22901199  0.58403461  1  0  -0.05598  0  3.736134  0  0  -0.073667  0  3.993457  0  0  -0.074164  0  4.014037  0  0  -0.088242  -0.073261  0  3.97992  0
C  C28  1  0.65815451  0.63717444  0.30752386  1  0  -0.14846  0  3.743824  0  0  -0.163694  0  3.997682  0  0  -0.169096  0  4.018554  0  0  -0.097088  -0.160191  0  3.982548  0
C  C29  1  0.34184499  0.36282536  0.69248137  1  0  -0.14834  0  3.743841  0  0  -0.163602  0  3.997655  0  0  -0.169009  0  4.018547  0  0  -0.097079  -0.160101  0  3.982531  0
C  C30  1  0.52757337  0.48513893  0.23525095  1  0  0.091512  0  3.793542  0  0  0.069291  0  4.03136  0  0  0.082019  0  4.057629  0  0  0.102875  0.067316  0  4.014932  0
C  C31  1  0.47242767  0.51486217  0.76475144  1  0  0.091491  0  3.793503  0  0  0.069274  0  4.031321  0  0  0.082001  0  4.057587  0  0  0.102872  0.067294  0  4.014896  0
C  C32  1  0.66064381  0.26935710  0.06299584  1  0  -0.026356  0  3.642002  0  0  -0.09954  0  3.902701  0  0  -0.085939  0  3.91298  0  0  -0.052498  -0.102333  0  3.897067  0
C  C33  1  0.33935902  0.73064660  0.93700518  1  0  -0.026364  0  3.642047  0  0  -0.099571  0  3.902783  0  0  -0.08597  0  3.91307  0  0  -0.052535  -0.102367  0  3.897154  0
C  C34  1  0.78434564  0.19244789  0.18415340  1  0  -0.090895  0  3.730391  0  0  -0.120058  0  4.044994  0  0  -0.116436  0  4.051184  0  0  -0.16488  -0.121848  0  4.038487  0
C  C35  1  0.21565872  0.80755711  0.81584362  1  0  -0.090896  0  3.730136  0  0  -0.120008  0  4.044705  0  0  -0.116401  0  4.050915  0  0  -0.164817  -0.121806  0  4.038236  0
C  C36  1  0.92003607  0.29516647  0.32317482  1  0  -0.334321  0  3.659222  0  0  -0.392268  0  3.960027  0  0  -0.390296  0  3.963057  0  0  -0.246811  -0.39328  0  3.957575  0
C  C37  1  0.07996549  0.70483067  0.67681996  1  0  -0.334438  0  3.659194  0  0  -0.392389  0  3.960008  0  0  -0.39043  0  3.963053  0  0  -0.246904  -0.393414  0  3.957593  0
N  N38  1  0.26846526  0.30306755  0.17766461  1  0  -0.239032  0  3.281111  0  0  -0.203732  0  3.618195  0  0  -0.207344  0  3.616337  0  0  -0.244676  -0.201243  0  3.617365  0
N  N39  1  0.73153160  0.69693222  0.82233300  1  0  -0.238971  0  3.281098  0  0  -0.203664  0  3.618167  0  0  -0.207286  0  3.616329  0  0  -0.244646  -0.201179  0  3.617355  0
N  N40  1  0.36370774  0.22042357  0.09455189  1  0  -0.057413  0  2.836286  0  0  -0.067717  0  3.10825  0  0  -0.051886  0  3.12174  0  0  -0.073437  -0.071921  0  3.102947  0
N  N41  1  0.63629304  0.77957620  0.90544786  1  0  -0.057416  0  2.836289  0  0  -0.067733  0  3.108265  0  0  -0.051899  0  3.121757  0  0  -0.073449  -0.071939  0  3.10297  0
N  N42  1  0.51923637  0.32836331  0.12722991  1  0  0.01352  0  3.496732  0  0  0.127671  0  3.684358  0  0  0.087133  0  3.744318  0  0  -0.118449  0.135473  0  3.667454  0
N  N43  1  0.48076362  0.67163909  0.87277247  1  0  0.013475  0  3.496791  0  0  0.127645  0  3.684419  0  0  0.087102  0  3.74439  0  0  -0.118462  0.135451  0  3.667517  0
N  N44  1  0.97330601  0.18573704  0.79396924  1  0  0.684325  0  4.120007  0  0  0.71102  0  4.414846  0  0  0.738497  0  4.422033  0  0  0.097133  0.694309  0  4.409219  0
N  N45  1  0.02669191  0.81426142  0.20602837  1  0  0.684278  0  4.120201  0  0  0.710806  0  4.415229  0  0  0.738279  0  4.422429  0  0  0.097036  0.694119  0  4.409583  0
O  O46  1  0.01885541  0.34790043  0.85588767  1  0  -0.449616  0  1.793501  0  0  -0.442724  0  2.025769  0  0  -0.45477  0  2.018086  0  0  -0.173333  -0.435384  0  2.031209  0
O  O47  1  0.98112347  0.65210064  0.14410686  1  0  -0.449562  0  1.793591  0  0  -0.442647  0  2.02596  0  0  -0.454698  0  2.018284  0  0  -0.173284  -0.435308  0  2.031387  0
O  O48  1  0.93746059  0.08699807  0.88869754  1  0  -0.50387  0  1.987087  0  0  -0.478971  0  2.277526  0  0  -0.493999  0  2.260556  0  0  -0.229088  -0.469453  0  2.289168  0
O  O49  1  0.06254311  0.91299647  0.11130307  1  0  -0.503838  0  1.987138  0  0  -0.478884  0  2.277625  0  0  -0.493899  0  2.260638  0  0  -0.229066  -0.469368  0  2.289262  0
O  O50  1  0.95990247  0.11310719  0.64655406  1  0  -0.423992  0  1.769412  0  0  -0.398243  0  1.972419  0  0  -0.413833  0  1.969269  0  0  -0.157122  -0.388304  0  1.974532  0
O  O51  1  0.04010954  0.88688997  0.35344798  1  0  -0.424019  0  1.769452  0  0  -0.39818  0  1.972464  0  0  -0.413764  0  1.969313  0  0  -0.1571  -0.388276  0  1.9746  0
