# generated using pymatgen
data_Zn2Cu3H44C36(N11O)2
_symmetry_space_group_name_H-M   'P 1'
_cell_length_a   11.90402037
_cell_length_b   12.99313687
_cell_length_c   17.68038419
_cell_angle_alpha   89.97771218
_cell_angle_beta   96.69221829
_cell_angle_gamma   90.05030910
_symmetry_Int_Tables_number   1
_chemical_formula_structural   Zn2Cu3H44C36(N11O)2
_chemical_formula_sum   'Zn4 Cu6 H88 C72 N44 O4'
_cell_volume   2716.00139617
_cell_formula_units_Z   2
loop_
 _symmetry_equiv_pos_site_id
 _symmetry_equiv_pos_as_xyz
  1  'x, y, z'
loop_
 _atom_site_type_symbol
 _atom_site_label
 _atom_site_symmetry_multiplicity
 _atom_site_fract_x
 _atom_site_fract_y
 _atom_site_fract_z
 _atom_site_occupancy
 _atom_site_pbe_bader_charge
 _atom_site_pbe_bader_spin_density
 _atom_site_pbe_cm5_charge
 _atom_site_pbe_ddec_charge
 _atom_site_pbe_ddec_spin_density
 _atom_site_pbe_ddec_sum_bond_order
 _atom_site_pbe_magmom
Zn  Zn0  1  0.67936439  0.53836779  0.20118757  1  1.179543  0.002715  0.71601  0.623368  0.001938  2.583865  0.003
Zn  Zn1  1  0.82098964  0.03812742  0.29885099  1  1.181518  0.005276  0.716409  0.622734  0.004062  2.587048  0.005
Zn  Zn2  1  0.32063267  0.46163472  0.79881541  1  1.179444  0.002716  0.715976  0.623255  0.001938  2.584003  0.003
Zn  Zn3  1  0.17901177  0.96187278  0.70114671  1  1.181606  0.005276  0.716401  0.622718  0.004062  2.58704  0.005
Cu  Cu4  1  0.03692411  0.67405715  0.44564126  1  1.002427  0.545197  0.773225  0.652884  0.709005  2.394995  0.545
Cu  Cu5  1  0.46220683  0.17429294  0.05489754  1  1.005  0.567004  0.772312  0.653902  0.736707  2.388916  0.567
Cu  Cu6  1  0.96307729  0.32594305  0.55435700  1  1.00225  0.545192  0.773245  0.653029  0.709003  2.394837  0.545
Cu  Cu7  1  0.53779116  0.82570803  0.94510156  1  1.004863  0.566985  0.772319  0.653866  0.736685  2.388908  0.567
Cu  Cu8  1  0.50000190  0.50000433  0.50000263  1  0.970462  -0.509303  0.758199  0.606691  -0.74371  2.348182  -0.512
Cu  Cu9  1  0.99999923  0.00000293  0.99999806  1  0.977944  0.547969  0.766308  0.616968  0.719261  2.347318  0.55
H  H10  1  0.54638141  0.33266596  0.18117788  1  0.095189  0.000413  0.124898  0.085682  0.000112  1.017652  0.0
H  H11  1  0.95332110  0.83220577  0.31910993  1  0.098747  0.000385  0.124585  0.085764  0.000101  1.017293  0.0
H  H12  1  0.45360971  0.66733886  0.81882571  1  0.095379  0.000413  0.124856  0.085689  0.000112  1.0177  0.0
H  H13  1  0.04668110  0.16779443  0.68089011  1  0.09878  0.000385  0.124574  0.085763  0.000101  1.017263  0.0
H  H14  1  0.76110481  0.46675891  0.03536503  1  0.086227  0.001411  0.108837  0.102162  0.0007  1.014005  0.001
H  H15  1  0.73874550  0.96689182  0.46456536  1  0.084107  0.001363  0.108995  0.102574  0.000672  1.014359  0.001
H  H16  1  0.23890484  0.53323436  0.96464358  1  0.086011  0.00141  0.108821  0.102146  0.0007  1.014169  0.001
H  H17  1  0.26126008  0.03311223  0.53543554  1  0.083744  0.001363  0.108994  0.102575  0.000672  1.014458  0.001
H  H18  1  0.65120393  0.29804678  0.96345476  1  0.079552  0.00076  0.11103  0.10835  0.00028  1.011906  0.0
H  H19  1  0.84782478  0.79808175  0.53671375  1  0.07954  0.00077  0.110669  0.107421  0.000285  1.013021  0.0
H  H20  1  0.34879397  0.70195111  0.03654829  1  0.079486  0.000759  0.111075  0.108411  0.00028  1.011975  0.0
H  H21  1  0.15217994  0.20191999  0.46328764  1  0.079507  0.00077  0.110712  0.107497  0.000284  1.013142  0.0
H  H22  1  0.67594449  0.50142380  0.37831633  1  0.121444  -8.7e-05  0.120247  0.077341  2e-06  1.063856  0.0
H  H23  1  0.82443881  0.00223600  0.12187185  1  0.126073  5.2e-05  0.120824  0.078415  -8.8e-05  1.062728  0.0
H  H24  1  0.32405853  0.49859410  0.62168604  1  0.121931  -8.7e-05  0.120213  0.077365  1e-06  1.063834  0.0
H  H25  1  0.17555756  0.99776805  0.87812371  1  0.12618  5.2e-05  0.120805  0.078395  -8.8e-05  1.06279  0.0
H  H26  1  0.40425641  0.51814111  0.20377364  1  0.096454  -0.001255  0.112078  0.106046  -0.000689  1.006176  -0.001
H  H27  1  0.09626415  0.01724514  0.29643236  1  0.093156  0.001377  0.112507  0.106595  0.000677  1.005243  0.001
H  H28  1  0.59573718  0.48186678  0.79623299  1  0.096245  -0.001255  0.112108  0.10613  -0.000689  1.006054  -0.001
H  H29  1  0.90373646  0.98275276  0.70356358  1  0.093075  0.001377  0.11253  0.106595  0.000677  1.005194  0.001
H  H30  1  0.32012923  0.50453095  0.34351865  1  0.067759  -0.000391  0.107503  0.103522  -0.000136  1.047995  0.0
H  H31  1  0.18030423  0.00374326  0.15664916  1  0.063363  0.000404  0.107445  0.1043  0.000103  1.0479  0.0
H  H32  1  0.67987702  0.49548003  0.65649079  1  0.067759  -0.000391  0.107502  0.103528  -0.000136  1.04806  0.0
H  H33  1  0.81969468  0.99626002  0.84334662  1  0.063383  0.000404  0.107459  0.104314  0.000103  1.047835  0.0
H  H34  1  0.79342784  0.63965871  0.35958591  1  0.104667  0.000287  0.122718  0.07979  5.9e-05  1.028667  0.0
H  H35  1  0.70648891  0.14067307  0.14092947  1  0.109373  0.000269  0.122507  0.079494  3.2e-05  1.02742  0.0
H  H36  1  0.20657597  0.36034380  0.64041879  1  0.104745  0.000287  0.122694  0.079741  5.9e-05  1.02868  0.0
H  H37  1  0.29350912  0.85932559  0.85906793  1  0.109352  0.000269  0.122507  0.079525  3.3e-05  1.027437  0.0
H  H38  1  0.93817823  0.48346151  0.18644800  1  0.068687  0.001229  0.104716  0.089803  0.000612  1.050176  0.001
H  H39  1  0.56267317  0.98211184  0.31355792  1  0.066756  0.00127  0.104046  0.089023  0.000625  1.052235  0.001
H  H40  1  0.06181814  0.51655408  0.81354813  1  0.069502  0.001229  0.104656  0.089719  0.000612  1.05033  0.001
H  H41  1  0.43732819  0.01789144  0.68644204  1  0.066896  0.00127  0.104054  0.089021  0.000625  1.052235  0.001
H  H42  1  0.10919719  0.54915702  0.29758955  1  0.041962  0.000725  0.109376  0.103181  0.000288  1.023197  0.0
H  H43  1  0.39115392  0.04864507  0.20308901  1  0.045794  0.000727  0.108903  0.102541  0.000282  1.024373  0.0
H  H44  1  0.89080172  0.45084934  0.70240624  1  0.041837  0.000725  0.109346  0.103117  0.000288  1.023138  0.0
H  H45  1  0.60884574  0.95135667  0.79691137  1  0.045767  0.000727  0.108903  0.102541  0.000282  1.024387  0.0
H  H46  1  0.30082951  0.66886361  0.48372473  1  0.147381  8.7e-05  0.127548  0.091168  6.9e-05  1.005015  0.0
H  H47  1  0.19856460  0.16780502  0.01685537  1  0.113109  0.00069  0.127047  0.090797  0.000115  1.005981  0.001
H  H48  1  0.69917186  0.33114198  0.51627467  1  0.147498  8.7e-05  0.127549  0.091186  6.9e-05  1.004989  0.0
H  H49  1  0.80143685  0.83219980  0.98314064  1  0.113117  0.000689  0.127042  0.09082  0.000114  1.006002  0.001
H  H50  1  0.07129066  0.42318037  0.44116430  1  0.111226  -0.000564  0.105891  0.090328  -0.000554  1.082302  0.0
H  H51  1  0.42808869  0.92258865  0.05932380  1  0.119715  0.001472  0.106364  0.09149  0.000458  1.08096  0.001
H  H52  1  0.92871321  0.57681830  0.55883702  1  0.111125  -0.000566  0.10584  0.090215  -0.000554  1.082366  0.0
H  H53  1  0.57190758  0.07741078  0.94067685  1  0.120265  0.001471  0.106345  0.091459  0.000458  1.080985  0.001
H  H54  1  0.28821929  0.34425569  0.47770819  1  0.099858  0.000791  0.105908  0.094181  0.000522  1.035288  0.0
H  H55  1  0.21183594  0.84328109  0.02176022  1  0.091678  0.002234  0.105782  0.09443  0.001011  1.035587  0.001
H  H56  1  0.71178612  0.65574606  0.52230061  1  0.099615  0.000792  0.105931  0.094224  0.000523  1.035269  0.0
H  H57  1  0.78815697  0.15672065  0.97823900  1  0.091666  0.002234  0.105782  0.094412  0.001011  1.035626  0.001
H  H58  1  0.08433753  0.88617040  0.53272678  1  0.123349  0.000314  0.123568  0.087099  6.1e-05  1.013676  0.0
H  H59  1  0.41446465  0.38629465  0.96742379  1  0.118786  0.00033  0.12358  0.087136  6.4e-05  1.014235  0.0
H  H60  1  0.91567237  0.11382904  0.46726997  1  0.123082  0.000314  0.123585  0.087168  6e-05  1.013701  0.0
H  H61  1  0.58552656  0.61370632  0.03257584  1  0.118765  0.00033  0.123587  0.087121  6.4e-05  1.01419  0.0
H  H62  1  0.11902549  0.58153642  0.61416571  1  0.093535  0.000571  0.10651  0.102956  0.000171  1.050551  0.0
H  H63  1  0.38086893  0.08146330  0.88634262  1  0.090794  0.000609  0.106872  0.103233  0.000191  1.049143  0.0
H  H64  1  0.88097337  0.41846378  0.38583234  1  0.093563  0.000571  0.106494  0.102918  0.000171  1.050521  0.0
H  H65  1  0.61913761  0.91853922  0.11365327  1  0.090445  0.00061  0.10686  0.103218  0.000191  1.049098  0.0
H  H66  1  0.18667919  0.71626559  0.73230493  1  0.087913  0.001283  0.106905  0.10059  0.000613  1.025464  0.001
H  H67  1  0.31365309  0.21584881  0.76787938  1  0.088718  0.001327  0.106502  0.099676  0.000634  1.025059  0.001
H  H68  1  0.81331288  0.28373384  0.26769364  1  0.087884  0.001283  0.106932  0.100627  0.000613  1.025338  0.001
H  H69  1  0.68635766  0.78415448  0.23211745  1  0.080057  0.001327  0.106487  0.099694  0.000634  1.024895  0.001
H  H70  1  0.14205038  0.76532548  0.26991558  1  0.065231  1.8e-05  0.111446  0.030866  7e-06  0.999493  0.0
H  H71  1  0.35801862  0.26553379  0.23016197  1  0.065457  1.3e-05  0.11157  0.031122  7e-06  0.999048  0.0
H  H72  1  0.85794780  0.23468319  0.73007505  1  0.065379  1.8e-05  0.111488  0.030863  7e-06  0.999423  0.0
H  H73  1  0.64198795  0.73447873  0.76983279  1  0.065069  1.3e-05  0.111529  0.030946  7e-06  0.999005  0.0
H  H74  1  0.46231900  0.73961360  0.36614586  1  0.067156  9.6e-05  0.103512  0.118829  7.1e-05  0.993111  0.0
H  H75  1  0.03757741  0.23827432  0.13483329  1  0.059203  -6.6e-05  0.103477  0.119155  -5.7e-05  0.993523  0.0
H  H76  1  0.53768258  0.26037353  0.63384394  1  0.066859  9.6e-05  0.103481  0.118816  7.1e-05  0.993128  0.0
H  H77  1  0.96241667  0.76167046  0.86518923  1  0.059756  -6.6e-05  0.103503  0.119228  -5.7e-05  0.993504  0.0
H  H78  1  0.45314907  0.87441322  0.34658922  1  0.043565  3e-05  0.100999  0.110677  7e-06  1.017462  0.0
H  H79  1  0.04583706  0.37306511  0.15451224  1  0.044312  3e-05  0.100633  0.110409  1.3e-05  1.016317  0.0
H  H80  1  0.54686194  0.12557237  0.65339519  1  0.044724  3e-05  0.100953  0.110561  6e-06  1.017486  0.0
H  H81  1  0.95412740  0.62689197  0.84550823  1  0.044714  3e-05  0.100762  0.110706  1.3e-05  1.016443  0.0
H  H82  1  0.37059748  0.81936535  0.41495911  1  0.114106  1.8e-05  0.110181  0.126966  2.3e-05  1.003771  0.0
H  H83  1  0.12830852  0.31890692  0.08579103  1  0.085074  2.7e-05  0.11073  0.127748  3.6e-05  1.004263  0.0
H  H84  1  0.62941517  0.18064102  0.58502826  1  0.113614  1.8e-05  0.110113  0.126891  2.3e-05  1.003727  0.0
H  H85  1  0.87165273  0.68106402  0.91422181  1  0.084898  2.7e-05  0.110704  0.127653  3.6e-05  1.004558  0.0
H  H86  1  0.37379550  0.84962380  0.20444259  1  0.058888  1.2e-05  0.097615  0.109079  9e-06  1.023992  0.0
H  H87  1  0.12673820  0.34947663  0.29627392  1  0.057322  9e-06  0.097662  0.109171  9e-06  1.023254  0.0
H  H88  1  0.62620270  0.15037718  0.79554691  1  0.058973  1.2e-05  0.097547  0.108998  9e-06  1.024072  0.0
H  H89  1  0.87327309  0.65051664  0.70373710  1  0.056906  9e-06  0.097651  0.109181  9e-06  1.023275  0.0
H  H90  1  0.39886231  0.71558270  0.22021733  1  0.074122  -2.8e-05  0.099573  0.114197  -2.2e-05  1.018322  0.0
H  H91  1  0.10181823  0.21529759  0.28091923  1  0.075438  -7e-06  0.099706  0.114049  -1e-05  1.018089  0.0
H  H92  1  0.60112830  0.28441596  0.77977037  1  0.073997  -2.8e-05  0.099582  0.114162  -2.2e-05  1.018332  0.0
H  H93  1  0.89819625  0.78468953  0.71910112  1  0.07559  -7e-06  0.099647  0.114086  -1e-05  1.018114  0.0
H  H94  1  0.25939319  0.76065958  0.18699856  1  0.0312  1.1e-05  0.104746  0.112415  1.2e-05  1.001865  0.0
H  H95  1  0.24137673  0.26087799  0.31358045  1  0.020738  1e-05  0.105451  0.113434  5e-06  1.002196  0.0
H  H96  1  0.74059906  0.23934755  0.81299155  1  0.031432  1.1e-05  0.104759  0.11245  1.2e-05  1.002008  0.0
H  H97  1  0.75863553  0.73911683  0.68642499  1  0.020979  1e-05  0.105426  0.113343  5e-06  1.002157  0.0
C  C98  1  0.59093496  0.34538738  0.13193658  1  0.982528  -0.001612  0.114461  0.137029  -0.000575  4.000387  0.0
C  C99  1  0.90868239  0.84508247  0.36829019  1  0.983123  -0.001469  0.11449  0.136541  -0.000474  4.000902  0.0
C  C100  1  0.40906037  0.65461513  0.86806850  1  0.982586  -0.001612  0.114542  0.137006  -0.000574  4.000378  0.0
C  C101  1  0.09132151  0.15491851  0.63171000  1  0.982991  -0.001469  0.114468  0.136552  -0.000473  4.000873  0.0
C  C102  1  0.70146790  0.41300134  0.05558245  1  0.345156  0.003271  -0.031037  -0.077254  0.002307  4.060585  0.002
C  C103  1  0.79821855  0.91301708  0.44445737  1  0.329602  0.003217  -0.031418  -0.078672  0.002264  4.060692  0.002
C  C104  1  0.29853165  0.58699040  0.94442300  1  0.34545  0.003272  -0.031003  -0.07719  0.002309  4.060383  0.002
C  C105  1  0.20178791  0.08698312  0.55554191  1  0.329826  0.003217  -0.031352  -0.078595  0.002264  4.060639  0.002
C  C106  1  0.64720431  0.32918176  0.01994647  1  0.339258  0.001959  -0.025124  -0.070861  0.00208  4.061295  0.002
C  C107  1  0.85210626  0.82912560  0.48022294  1  0.35423  0.001941  -0.024631  -0.069068  0.002021  4.061091  0.002
C  C108  1  0.35279855  0.67082152  0.98006267  1  0.339413  0.001959  -0.025096  -0.070883  0.00208  4.061228  0.002
C  C109  1  0.14789600  0.17087845  0.51977483  1  0.354318  0.00194  -0.024719  -0.069163  0.00202  4.061034  0.002
C  C110  1  0.59054749  0.50563867  0.34990560  1  0.961823  0.001218  0.107685  0.130338  -7.5e-05  4.018094  0.0
C  C111  1  0.90985719  0.00598842  0.15028668  1  0.961434  -0.001074  0.107346  0.129584  -9.2e-05  4.016254  0.001
C  C112  1  0.40945718  0.49437462  0.65009861  1  0.961465  0.001219  0.107738  0.130392  -7.5e-05  4.018019  0.0
C  C113  1  0.09014422  0.99401486  0.84971102  1  0.961285  -0.001074  0.107408  0.129629  -9.3e-05  4.016224  0.001
C  C114  1  0.44845547  0.51392831  0.26096530  1  0.273127  -0.00283  -0.025375  -0.067857  -0.002221  4.042386  -0.002
C  C115  1  0.05204283  0.01342831  0.23923653  1  0.271753  0.003254  -0.024611  -0.06645  0.002281  4.039305  0.002
C  C116  1  0.55153899  0.48607574  0.73904028  1  0.273906  -0.002831  -0.025498  -0.068036  -0.002221  4.042573  -0.002
C  C117  1  0.94795773  0.98657113  0.76076110  1  0.271779  0.003255  -0.024608  -0.066475  0.002281  4.039425  0.002
C  C118  1  0.40663907  0.50685179  0.33028999  1  0.412835  -0.001905  -0.02823  -0.06061  -0.002378  4.032573  -0.002
C  C119  1  0.09381844  0.00641199  0.16989109  1  0.406035  0.002277  -0.028051  -0.062023  0.002297  4.031988  0.003
C  C120  1  0.59336214  0.49315534  0.66971731  1  0.412137  -0.001906  -0.028188  -0.060613  -0.002378  4.032827  -0.002
C  C121  1  0.90618302  0.99358976  0.83010436  1  0.406025  0.002278  -0.027984  -0.061908  0.002297  4.03218  0.003
C  C122  1  0.85583558  0.60518473  0.32744117  1  0.952955  -0.001028  0.112677  0.1258  -7.6e-05  4.014982  0.0
C  C123  1  0.64422844  0.10571506  0.17304931  1  0.950676  -0.001155  0.111504  0.125596  -0.000135  4.014291  0.0
C  C124  1  0.14416402  0.39481855  0.67256203  1  0.953053  -0.001028  0.112684  0.125844  -7.6e-05  4.01507  0.0
C  C125  1  0.35577126  0.89428514  0.82694881  1  0.95055  -0.001155  0.111537  0.125574  -0.000134  4.014375  0.0
C  C126  1  0.93376738  0.52536871  0.23900743  1  0.354651  0.002863  -0.026483  -0.070219  0.002014  4.054058  0.002
C  C127  1  0.56679329  0.02469104  0.26121782  1  0.340904  0.002915  -0.026575  -0.069641  0.002053  4.054687  0.002
C  C128  1  0.06622809  0.47464149  0.76099088  1  0.353637  0.002863  -0.026395  -0.070136  0.002014  4.054013  0.002
C  C129  1  0.43320722  0.97530994  0.73878263  1  0.340854  0.002916  -0.026585  -0.069679  0.002054  4.054769  0.002
C  C130  1  0.01824427  0.55828498  0.29375996  1  0.394096  0.001087  -0.025046  -0.066021  0.001388  4.052615  0.001
C  C131  1  0.48209612  0.05797766  0.20678879  1  0.40481  0.001348  -0.025092  -0.066403  0.001626  4.055169  0.002
C  C132  1  0.98175629  0.44172446  0.70623823  1  0.394513  0.001088  -0.024956  -0.065834  0.001388  4.052589  0.001
C  C133  1  0.51790691  0.94202408  0.79321245  1  0.404777  0.001348  -0.025134  -0.066444  0.001626  4.05519  0.002
C  C134  1  0.26877626  0.59090145  0.47690415  1  0.938305  -0.000184  0.114413  0.128402  -0.000341  3.989472  0.0
C  C135  1  0.23074440  0.08994347  0.02347073  1  0.967026  -0.001917  0.113244  0.127133  5.1e-05  3.986209  0.001
C  C136  1  0.73122679  0.40910338  0.52309652  1  0.938053  -0.000181  0.11435  0.128277  -0.000341  3.989352  0.0
C  C137  1  0.76925618  0.91005750  0.97652634  1  0.967047  -0.001917  0.113284  0.127206  5.1e-05  3.986032  0.001
C  C138  1  0.15133431  0.46242235  0.45550514  1  0.276941  -0.002241  -0.023138  -0.069812  -0.001309  4.043572  -0.001
C  C139  1  0.34821069  0.96192210  0.04487568  1  0.394051  0.004708  -0.02387  -0.070911  0.004091  4.044436  0.005
C  C140  1  0.84867211  0.53758171  0.54449583  1  0.276795  -0.002238  -0.023087  -0.069622  -0.001308  4.043353  -0.001
C  C141  1  0.65178477  0.03807810  0.95512263  1  0.39342  0.00471  -0.023902  -0.070902  0.004092  4.044447  0.005
C  C142  1  0.25903304  0.42330699  0.47309504  1  0.345207  0.00224  -0.027777  -0.077388  0.000679  4.041844  0.001
C  C143  1  0.24056810  0.92246924  0.02665290  1  0.310005  0.00536  -0.026855  -0.076577  0.004472  4.041736  0.005
C  C144  1  0.74097411  0.57669706  0.52691165  1  0.345526  0.002237  -0.027883  -0.077502  0.000678  4.0417  0.001
C  C145  1  0.75943076  0.07753404  0.97334515  1  0.310289  0.00536  -0.0269  -0.076608  0.004473  4.041948  0.005
C  C146  1  0.10235072  0.82166565  0.57117759  1  0.966586  -0.001476  0.111163  0.135341  -0.000458  4.000981  0.0
C  C147  1  0.39673200  0.32168439  0.92903591  1  0.936935  -0.001561  0.11084  0.135034  -0.000584  4.003055  0.0
C  C148  1  0.89765153  0.17833225  0.42882019  1  0.966656  -0.001476  0.111063  0.135066  -0.000458  4.00102  0.0
C  C149  1  0.60326261  0.67831581  0.07096289  1  0.936917  -0.001562  0.11079  0.135058  -0.000585  4.002938  0.0
C  C150  1  0.12090145  0.66492335  0.61477510  1  0.370327  0.002553  -0.02731  -0.064283  0.002591  4.031293  0.003
C  C151  1  0.37881403  0.16486825  0.88561489  1  0.361969  0.002626  -0.02708  -0.063836  0.002643  4.032858  0.003
C  C152  1  0.87909995  0.33507531  0.38522317  1  0.370456  0.002553  -0.027251  -0.06424  0.002591  4.031338  0.003
C  C153  1  0.62118994  0.83512965  0.11438191  1  0.362529  0.002624  -0.027004  -0.063835  0.002643  4.032824  0.003
C  C154  1  0.15481844  0.73195060  0.67340809  1  0.31061  0.003178  -0.029122  -0.063486  0.002209  4.033966  0.002
C  C155  1  0.34512984  0.23170259  0.82683054  1  0.311129  0.00345  -0.029125  -0.062753  0.002397  4.03415  0.003
C  C156  1  0.84518124  0.26804883  0.32659116  1  0.310554  0.003178  -0.029174  -0.063527  0.002209  4.033839  0.002
C  C157  1  0.65487671  0.76829916  0.17316478  1  0.319656  0.003451  -0.029152  -0.062728  0.002397  4.033858  0.003
C  C158  1  0.20448610  0.78121779  0.32021318  1  1.381726  -0.000302  0.164526  0.292958  -0.000237  4.164212  0.0
C  C159  1  0.29515566  0.28102322  0.18003426  1  1.383188  -0.000317  0.165151  0.293557  -0.000248  4.160001  0.0
C  C160  1  0.79551735  0.21878550  0.67976830  1  1.382659  -0.000302  0.164472  0.293023  -0.000237  4.164807  0.0
C  C161  1  0.70482414  0.71896928  0.81998304  1  1.383623  -0.000317  0.165388  0.294151  -0.000248  4.161019  0.0
C  C162  1  0.40507442  0.80638967  0.36095061  1  0.229377  5.6e-05  -0.131301  -0.262602  6.2e-05  3.906712  0.0
C  C163  1  0.09433555  0.30549114  0.13991227  1  0.268689  -1.8e-05  -0.131837  -0.263779  -1.9e-05  3.904686  0.0
C  C164  1  0.59493323  0.19361054  0.63903293  1  0.228745  5.6e-05  -0.131257  -0.262482  6.2e-05  3.906823  0.0
C  C165  1  0.90565028  0.69446672  0.86009991  1  0.267731  -1.8e-05  -0.132091  -0.264086  -1.9e-05  3.905267  0.0
C  C166  1  0.33745161  0.77801622  0.22423644  1  0.295131  2e-06  -0.133937  -0.276416  -2e-06  3.933501  0.0
C  C167  1  0.16305441  0.27786471  0.27654620  1  0.30279  2e-06  -0.134209  -0.276925  7e-06  3.935541  0.0
C  C168  1  0.66254909  0.22198399  0.77575498  1  0.295262  2e-06  -0.133907  -0.276358  -2e-06  3.933895  0.0
C  C169  1  0.83695597  0.72212394  0.72346756  1  0.303028  2e-06  -0.134166  -0.276863  7e-06  3.935803  0.0
N  N170  1  0.66509697  0.42288085  0.12674620  1  -1.25936  0.005489  -0.385364  -0.299842  0.003222  3.623916  0.004
N  N171  1  0.83480699  0.92271414  0.37333140  1  -1.258377  0.005807  -0.384966  -0.298366  0.003379  3.624336  0.004
N  N172  1  0.33490594  0.57711936  0.87326069  1  -1.259029  0.00549  -0.385403  -0.299781  0.003222  3.624078  0.004
N  N173  1  0.16519773  0.07728760  0.62666999  1  -1.2583  0.005807  -0.384904  -0.298372  0.003379  3.624333  0.004
N  N174  1  0.57740688  0.28704635  0.06884693  1  -1.208408  0.098063  -0.387217  -0.295986  0.065241  3.648912  0.085
N  N175  1  0.92184310  0.78679328  0.43142121  1  -1.211499  0.09402  -0.387605  -0.297025  0.062611  3.649301  0.081
N  N176  1  0.42258426  0.71295769  0.93115552  1  -1.208865  0.09807  -0.387258  -0.296068  0.065244  3.649071  0.085
N  N177  1  0.07815907  0.21320846  0.56858052  1  -1.211419  0.094015  -0.387638  -0.297116  0.062608  3.649263  0.081
N  N178  1  0.56532440  0.51339742  0.27403521  1  -1.279077  -0.004558  -0.381174  -0.293249  -0.003129  3.618668  -0.003
N  N179  1  0.93517347  0.01337001  0.22616757  1  -1.273778  0.005849  -0.381794  -0.293397  0.003351  3.61857  0.004
N  N180  1  0.43467437  0.48661356  0.72596735  1  -1.279382  -0.004559  -0.381208  -0.293231  -0.003129  3.618868  -0.003
N  N181  1  0.06482629  0.98662942  0.77382829  1  -1.273879  0.005851  -0.381887  -0.293426  0.003352  3.618503  0.004
N  N182  1  0.49759714  0.50186209  0.38666949  1  -1.199519  -0.090824  -0.393481  -0.317681  -0.067363  3.65793  -0.079
N  N183  1  0.00280144  0.00195282  0.11352759  1  -1.192164  0.100784  -0.393157  -0.318798  0.06724  3.653235  0.088
N  N184  1  0.50240746  0.49814811  0.61333811  1  -1.199352  -0.090828  -0.393384  -0.317642  -0.067367  3.657911  -0.079
N  N185  1  0.99719580  0.99805123  0.88646748  1  -1.192085  0.100791  -0.393195  -0.318866  0.067247  3.653352  0.088
N  N186  1  0.83104198  0.55472734  0.26098274  1  -1.269085  0.004687  -0.379562  -0.284916  0.00276  3.615973  0.003
N  N187  1  0.66933997  0.05459749  0.23921071  1  -1.275819  0.005514  -0.380114  -0.285939  0.003209  3.61644  0.004
N  N188  1  0.16895853  0.44527979  0.73901771  1  -1.269061  0.004687  -0.379605  -0.284999  0.002761  3.615953  0.003
N  N189  1  0.33066144  0.94540272  0.76078699  1  -1.275598  0.005515  -0.380109  -0.285846  0.003209  3.616502  0.004
N  N190  1  0.96787420  0.60879323  0.34958653  1  -1.201237  0.085014  -0.391002  -0.305145  0.056758  3.662605  0.074
N  N191  1  0.53215979  0.10923950  0.15111407  1  -1.198388  0.089666  -0.389814  -0.305916  0.059774  3.661369  0.078
N  N192  1  0.03212628  0.39120928  0.65041505  1  -1.201464  0.085023  -0.391028  -0.305236  0.056764  3.66269  0.074
N  N193  1  0.46783819  0.89076302  0.84888559  1  -1.198428  0.089677  -0.389815  -0.305906  0.059779  3.661398  0.078
N  N194  1  0.15872190  0.56831208  0.45803043  1  -1.184111  0.08908  -0.387781  -0.285356  0.05958  3.636452  0.078
N  N195  1  0.34079282  0.06771981  0.04284208  1  -1.256988  0.103815  -0.388316  -0.287076  0.068747  3.636953  0.089
N  N196  1  0.84128287  0.43168581  0.54196870  1  -1.183864  0.089071  -0.387779  -0.285386  0.059576  3.636264  0.078
N  N197  1  0.65920518  0.93228116  0.95715646  1  -1.257023  0.103814  -0.388277  -0.287092  0.068747  3.636968  0.089
N  N198  1  0.33249343  0.50539235  0.48624302  1  -1.219574  -0.086557  -0.396051  -0.293164  -0.064162  3.684013  -0.076
N  N199  1  0.16704518  0.00426776  0.01340516  1  -1.226894  0.102657  -0.39787  -0.294723  0.067923  3.68841  0.088
N  N200  1  0.66750617  0.49461016  0.51376018  1  -1.219527  -0.086551  -0.395991  -0.293103  -0.064158  3.683652  -0.076
N  N201  1  0.83295202  0.99573783  0.98659104  1  -1.227075  0.102658  -0.397805  -0.294701  0.067925  3.688506  0.088
N  N202  1  0.08737116  0.72260055  0.55039999  1  -1.224791  0.094611  -0.393397  -0.300381  0.062828  3.649928  0.082
N  N203  1  0.41179095  0.22271183  0.94998990  1  -1.186458  0.098113  -0.393753  -0.301754  0.065239  3.650271  0.085
N  N204  1  0.91263281  0.27739888  0.44959680  1  -1.224652  0.094615  -0.393402  -0.300299  0.062828  3.649851  0.082
N  N205  1  0.58820957  0.77728915  0.05000999  1  -1.186574  0.098113  -0.393728  -0.301699  0.065238  3.650441  0.085
N  N206  1  0.14309284  0.83108035  0.64519548  1  -1.261597  0.006182  -0.385724  -0.304908  0.00364  3.64888  0.005
N  N207  1  0.35643113  0.33091820  0.85491554  1  -1.257336  0.005663  -0.385694  -0.304851  0.003338  3.648092  0.004
N  N208  1  0.85690774  0.16891908  0.35480158  1  -1.261464  0.006182  -0.385688  -0.304825  0.003641  3.648856  0.005
N  N209  1  0.64357113  0.66908508  0.14508224  1  -1.257204  0.005663  -0.385695  -0.304964  0.003338  3.648141  0.004
N  N210  1  0.31141466  0.78830289  0.30215999  1  -1.203947  -0.000124  -0.289489  0.016055  -7.9e-05  3.719573  0.0
N  N211  1  0.18845007  0.28798168  0.19846251  1  -1.208011  -0.000118  -0.289929  0.016157  -7e-05  3.718418  0.0
N  N212  1  0.68858352  0.21169577  0.69783007  1  -1.204795  -0.000124  -0.289427  0.016008  -7.9e-05  3.719501  0.0
N  N213  1  0.81154528  0.71200313  0.80154089  1  -1.207312  -0.000118  -0.289975  0.015642  -7e-05  3.718153  0.0
O  O214  1  0.17638593  0.79088209  0.38533254  1  -1.167326  -0.000891  -0.314343  -0.48246  -0.000594  2.290372  0.0
O  O215  1  0.32268260  0.29046883  0.11471455  1  -1.164644  -0.000932  -0.3145  -0.482611  -0.000614  2.288412  0.0
O  O216  1  0.82361463  0.20912042  0.61466565  1  -1.167628  -0.000891  -0.314295  -0.482386  -0.000594  2.291476  0.0
O  O217  1  0.67729547  0.70952983  0.88526526  1  -1.165466  -0.000933  -0.314564  -0.482542  -0.000615  2.290291  0.0
