# generated using pymatgen
data_Zn4H24C48O13
_symmetry_space_group_name_H-M   'P 1'
_cell_length_a   27.77869980
_cell_length_b   28.03460422
_cell_length_c   28.41979290
_cell_angle_alpha   120.44859483
_cell_angle_beta   89.99566500
_cell_angle_gamma   119.28231130
_symmetry_Int_Tables_number   1
_chemical_formula_structural   Zn4H24C48O13
_chemical_formula_sum   'Zn8 H48 C96 O26'
_cell_volume   15712.32028030
_cell_formula_units_Z   2
loop_
 _symmetry_equiv_pos_site_id
 _symmetry_equiv_pos_as_xyz
  1  'x, y, z'
loop_
 _atom_site_type_symbol
 _atom_site_label
 _atom_site_symmetry_multiplicity
 _atom_site_fract_x
 _atom_site_fract_y
 _atom_site_fract_z
 _atom_site_occupancy
 _atom_site_pbe_bader_charge
 _atom_site_pbe_bader_spin_density
 _atom_site_pbe_cm5_charge
 _atom_site_pbe_ddec_charge
 _atom_site_pbe_ddec_spin_density
 _atom_site_pbe_ddec_sum_bond_order
 _atom_site_pbe_magmom
Zn  Zn0  1  0.97115455  0.93660402  0.03086828  1  1.317984  0  0.669959  0.961601  0  2.384783  0
Zn  Zn1  1  0.97113861  0.05357721  0.03515805  1  1.308781  0  0.670596  0.965753  0  2.370723  0
Zn  Zn2  1  0.96955661  0.93848697  0.92001580  1  1.303054  0  0.670238  0.963351  0  2.380721  0
Zn  Zn3  1  0.08504936  0.05084421  0.03255421  1  1.320757  0  0.670252  0.96435  0  2.37614  0
Zn  Zn4  1  0.52741248  0.05169115  0.47614984  1  1.308174  0  0.670029  0.963372  0  2.378473  0
Zn  Zn5  1  0.52976365  0.93878284  0.47710904  1  1.304782  0  0.670181  0.964671  0  2.367901  0
Zn  Zn6  1  0.41371005  0.93758760  0.47603595  1  1.304382  0  0.669842  0.963305  0  2.3814  0
Zn  Zn7  1  0.52706861  0.05312689  0.58909310  1  1.303989  0  0.669533  0.961069  0  2.388001  0
H  H8  1  0.85023921  0.05141502  0.12199524  1  0.107426  0  0.109825  0.115443  0  0.991016  0
H  H9  1  0.78618688  0.04972007  0.18379707  1  0.05782  0  0.107415  0.110399  0  0.986684  0
H  H10  1  0.67959010  0.90232416  0.29345241  1  0.078895  0  0.107331  0.110351  0  0.986756  0
H  H11  1  0.61748279  0.90412022  0.35720492  1  0.098997  0  0.109518  0.114775  0  0.992879  0
H  H12  1  0.65077417  0.08750414  0.39235199  1  0.122177  0  0.10984  0.11547  0  0.991058  0
H  H13  1  0.71367332  0.08703838  0.32941250  1  0.075088  0  0.107884  0.110836  0  0.986059  0
H  H14  1  0.82917107  0.94075292  0.22035856  1  0.082996  0  0.107515  0.110715  0  0.986146  0
H  H15  1  0.89215066  0.94180655  0.15750763  1  0.108585  0  0.109767  0.115442  0  0.989913  0
H  H16  1  0.87474903  0.73109773  0.79594573  1  0.099797  0  0.109401  0.115141  0  0.991024  0
H  H17  1  0.81147131  0.60570656  0.73227467  1  0.079959  0  0.10756  0.110869  0  0.987661  0
H  H18  1  0.71486563  0.38494872  0.76955156  1  0.068309  0  0.10762  0.110806  0  0.986526  0
H  H19  1  0.65169320  0.25955799  0.70721679  1  0.079185  0  0.10978  0.115423  0  0.991203  0
H  H20  1  0.60645201  0.25871649  0.56210026  1  0.14637  0  0.109798  0.115571  0  0.990502  0
H  H21  1  0.66835504  0.38413279  0.62404378  1  0.062056  0  0.107345  0.110103  0  0.986869  0
H  H22  1  0.79171378  0.60461633  0.88246196  1  0.077311  0  0.107517  0.11066  0  0.986096  0
H  H23  1  0.85465062  0.72998367  0.94531595  1  0.08779  0  0.109631  0.115287  0  0.990251  0
H  H24  1  0.20466401  0.08544757  0.15576238  1  0.120792  0  0.1096  0.115235  0  0.991229  0
H  H25  1  0.26617479  0.08544863  0.22022480  1  0.092358  0  0.107401  0.110421  0  0.986453  0
H  H26  1  0.22493513  0.91495924  0.30850834  1  0.10369  0  0.107588  0.110718  0  0.986919  0
H  H27  1  0.28915924  0.91602130  0.37143205  1  0.073752  0  0.109778  0.115647  0  0.990767  0
H  H28  1  0.44153759  0.06235545  0.36594046  1  0.090256  0  0.109503  0.115348  0  0.991554  0
H  H29  1  0.37795480  0.06232548  0.30341270  1  0.064522  0  0.107446  0.110205  0  0.987099  0
H  H30  1  0.11874893  0.89309041  0.17125321  1  0.066199  0  0.107371  0.11059  0  0.986833  0
H  H31  1  0.05761597  0.89438457  0.10768887  1  0.121288  0  0.109592  0.11577  0  0.991307  0
H  H32  1  0.84877440  0.90674075  0.80342085  1  0.106646  0  0.109537  0.115716  0  0.992697  0
H  H33  1  0.78490331  0.90665342  0.74113508  1  0.080503  0  0.107476  0.109996  0  0.987869  0
H  H34  1  0.68186904  0.06682610  0.77816170  1  0.08978  0  0.107256  0.109681  0  0.987165  0
H  H35  1  0.62066212  0.06566129  0.71237622  1  0.086023  0  0.10951  0.115545  0  0.992586  0
H  H36  1  0.63725260  0.92403974  0.56513452  1  0.071608  0  0.109892  0.115352  0  0.991605  0
H  H37  1  0.69826081  0.92432139  0.63031270  1  0.052691  0  0.107301  0.110433  0  0.986995  0
H  H38  1  0.81066965  0.08465902  0.89161231  1  0.094428  0  0.10738  0.110194  0  0.987175  0
H  H39  1  0.87426355  0.08386211  0.95331506  1  0.088755  0  0.109553  0.115239  0  0.992574  0
H  H40  1  0.20885901  0.25695730  0.12984272  1  0.10794  0  0.109632  0.115429  0  0.992339  0
H  H41  1  0.27330771  0.38226391  0.19272799  1  0.067356  0  0.107656  0.110664  0  0.987894  0
H  H42  1  0.23077037  0.60547158  0.31368887  1  0.069246  0  0.107453  0.110074  0  0.987452  0
H  H43  1  0.29303933  0.73086173  0.37662961  1  0.110228  0  0.109523  0.115562  0  0.99178  0
H  H44  1  0.44761220  0.73093753  0.37177879  1  0.061357  0  0.109652  0.115059  0  0.991933  0
H  H45  1  0.38613514  0.60554010  0.30854059  1  0.058202  0  0.107304  0.110103  0  0.988285  0
H  H46  1  0.12104882  0.38745643  0.20792588  1  0.070323  0  0.107266  0.110247  0  0.988017  0
H  H47  1  0.05736875  0.26213072  0.14501759  1  0.10813  0  0.109843  0.115326  0  0.991489  0
H  H48  1  0.20509461  0.05095028  0.94463444  1  0.11056  0  0.10957  0.114906  0  0.990688  0
H  H49  1  0.26777840  0.05044088  0.88149277  1  0.068581  0  0.107578  0.110727  0  0.987258  0
H  H50  1  0.22578158  0.91310974  0.62204568  1  0.104356  0  0.107419  0.110118  0  0.987232  0
H  H51  1  0.28930706  0.91496212  0.55976038  1  0.091252  0  0.109406  0.11501  0  0.991651  0
H  H52  1  0.44156296  0.07911007  0.71077796  1  0.063122  0  0.109867  0.115625  0  0.992058  0
H  H53  1  0.37879928  0.07773366  0.77379146  1  0.075593  0  0.107483  0.110483  0  0.986054  0
H  H54  1  0.11645888  0.93659148  0.73485507  1  0.111346  0  0.107549  0.110728  0  0.986793  0
H  H55  1  0.05430991  0.93680093  0.79849824  1  0.104909  0  0.109672  0.115662  0  0.990521  0
C  C56  1  0.91206205  0.99690245  0.09834892  1  1.529049  0  0.226211  0.60449  0  4.169704  0
C  C57  1  0.87487065  0.99672022  0.13615766  1  -0.038685  0  -0.017772  -0.042389  0  3.975168  0
C  C58  1  0.84520642  0.02741120  0.14380633  1  -0.03575  0  -0.079704  -0.085129  0  3.98657  0
C  C59  1  0.80976102  0.02653884  0.17819693  1  0.000601  0  -0.081678  -0.127139  0  3.947272  0
C  C60  1  0.80348966  0.99514420  0.20618506  1  0.117962  0  0.004952  0.146504  0  4.111333  0
C  C61  1  0.76748527  0.99445156  0.24137471  1  -0.263131  0  -0.04152  -0.104732  0  4.115676  0
C  C62  1  0.73640337  0.99429114  0.27176066  1  -0.112999  0  -0.042137  -0.107431  0  4.117204  0
C  C63  1  0.70078893  0.99464330  0.30733681  1  0.08295  0  0.00478  0.146701  0  4.112759  0
C  C64  1  0.67335215  0.94290658  0.31544118  1  -0.034221  0  -0.081335  -0.127652  0  3.948935  0
C  C65  1  0.63881827  0.94382099  0.35074784  1  -0.033632  0  -0.079565  -0.084083  0  3.987483  0
C  C66  1  0.63054549  0.99593115  0.37855539  1  -0.026561  0  -0.018221  -0.042205  0  3.977098  0
C  C67  1  0.65748941  0.04733149  0.37047819  1  0.001246  0  -0.079434  -0.084717  0  3.988685  0
C  C68  1  0.69230321  0.04696176  0.33545557  1  -0.065546  0  -0.081968  -0.127631  0  3.947301  0
C  C69  1  0.59323263  0.99655121  0.41629828  1  1.549548  0  0.225767  0.603062  0  4.168438  0
C  C70  1  0.83371409  0.96464215  0.19852115  1  -0.049143  0  -0.08159  -0.128468  0  3.946509  0
C  C71  1  0.86879898  0.96534203  0.16374842  1  -0.043285  0  -0.079771  -0.084643  0  3.984328  0
C  C72  1  0.90634088  0.81287139  0.91224366  1  1.539316  0  0.225642  0.602305  0  4.16885  0
C  C73  1  0.86843775  0.73796503  0.87437711  1  -0.048445  0  -0.017592  -0.041433  0  3.975609  0
C  C74  1  0.85614114  0.70277319  0.81426868  1  0.060027  0  -0.079195  -0.084225  0  3.985242  0
C  C75  1  0.82097033  0.63304625  0.77893071  1  -0.112869  0  -0.081828  -0.128705  0  3.947642  0
C  C76  1  0.79732476  0.59665258  0.80307520  1  0.036434  0  0.004931  0.14619  0  4.110897  0
C  C77  1  0.76173205  0.52555246  0.76724531  1  -0.209054  0  -0.041474  -0.105021  0  4.113922  0
C  C78  1  0.73116666  0.46417470  0.73642486  1  -0.076686  0  -0.042146  -0.105981  0  4.112405  0
C  C79  1  0.69581651  0.39306178  0.70103359  1  0.035545  0  0.005638  0.146496  0  4.107608  0
C  C80  1  0.69082212  0.35720791  0.72420729  1  -0.014199  0  -0.081775  -0.127613  0  3.947132  0
C  C81  1  0.65584233  0.28748342  0.68957415  1  0.012265  0  -0.079252  -0.084683  0  3.985859  0
C  C82  1  0.62540623  0.25178563  0.63101619  1  -0.092916  0  -0.018669  -0.04218  0  3.976744  0
C  C83  1  0.63036502  0.28700432  0.60758731  1  -0.188204  0  -0.079861  -0.086137  0  3.98627  0
C  C84  1  0.66491220  0.35674567  0.64206478  1  0.098687  0  -0.081046  -0.126248  0  3.945856  0
C  C85  1  0.58814350  0.17692713  0.59402496  1  1.580477  0  0.225963  0.603437  0  4.171211  0
C  C86  1  0.80993864  0.63241941  0.86362301  1  -0.017592  0  -0.081244  -0.127571  0  3.947264  0
C  C87  1  0.84493762  0.70214079  0.89863546  1  0.026886  0  -0.079722  -0.084577  0  3.985626  0
C  C88  1  0.09080851  0.99054294  0.09048093  1  1.566307  0  0.224336  0.600712  0  4.171583  0
C  C89  1  0.12760777  0.98993649  0.12805547  1  0.03365  0  -0.017966  -0.041249  0  3.974494  0
C  C90  1  0.18646921  0.04373881  0.15960088  1  -0.065497  0  -0.079294  -0.084384  0  3.984677  0
C  C91  1  0.22053856  0.04368300  0.19525343  1  -0.086435  0  -0.081527  -0.128306  0  3.946805  0
C  C92  1  0.19638473  0.98924651  0.19984495  1  0.114515  0  0.004714  0.148079  0  4.111226  0
C  C93  1  0.23117004  0.98885969  0.23579089  1  -0.172625  0  -0.04157  -0.106955  0  4.119656  0
C  C94  1  0.26152804  0.98855037  0.26656803  1  -0.22304  0  -0.042196  -0.105989  0  4.118819  0
C  C95  1  0.29737163  0.98864520  0.30197562  1  0.108484  0  0.004623  0.147215  0  4.112529  0
C  C96  1  0.27238455  0.94706811  0.32124086  1  -0.078195  0  -0.081786  -0.129315  0  3.949342  0
C  C97  1  0.30793063  0.94761520  0.35608827  1  0.010963  0  -0.079493  -0.083932  0  3.985237  0
C  C98  1  0.36900063  0.98922276  0.37230373  1  -0.01723  0  -0.018418  -0.042687  0  3.973678  0
C  C99  1  0.39409900  0.03045477  0.35310475  1  -0.008229  0  -0.07869  -0.084397  0  3.985548  0
C  C100  1  0.35887184  0.03043428  0.31847496  1  -0.023432  0  -0.081833  -0.127252  0  3.946555  0
C  C101  1  0.40706360  0.99012339  0.41017796  1  1.54097  0  0.226028  0.603763  0  4.171284  0
C  C102  1  0.13716076  0.93513912  0.16782056  1  -0.019949  0  -0.081623  -0.12843  0  3.947481  0
C  C103  1  0.10331840  0.93577323  0.13252258  1  -0.066778  0  -0.079288  -0.084953  0  3.986672  0
C  C104  1  0.90442808  0.99587090  0.91834577  1  1.531025  0  0.226044  0.603277  0  4.170856  0
C  C105  1  0.86543766  0.99546931  0.88187626  1  0.039013  0  -0.018163  -0.042721  0  3.976017  0
C  C106  1  0.84007685  0.94535685  0.82207007  1  -0.037418  0  -0.080195  -0.086087  0  3.990128  0
C  C107  1  0.80472587  0.94534589  0.78759831  1  -0.066967  0  -0.081215  -0.125607  0  3.949733  0
C  C108  1  0.79397135  0.99590103  0.81235923  1  0.07941  0  0.004546  0.144985  0  4.11432  0
C  C109  1  0.75876871  0.99634800  0.77688513  1  -0.090697  0  -0.041536  -0.104384  0  4.116682  0
C  C110  1  0.72867910  0.99609679  0.74531515  1  -0.303032  0  -0.042214  -0.107224  0  4.117992  0
C  C111  1  0.69403103  0.99564475  0.70844831  1  0.085129  0  0.004717  0.145998  0  4.11333  0
C  C112  1  0.67191267  0.03569108  0.73149664  1  0.004991  0  -0.081006  -0.125286  0  3.947165  0
C  C113  1  0.63802352  0.03509090  0.69507086  1  -0.0564  0  -0.080388  -0.086397  0  3.987203  0
C  C114  1  0.62544640  0.99484427  0.63499173  1  -0.000211  0  -0.018138  -0.042268  0  3.974524  0
C  C115  1  0.64727450  0.95493043  0.61180196  1  0.022132  0  -0.078914  -0.083335  0  3.987154  0
C  C116  1  0.68109097  0.95511467  0.64793892  1  -0.043753  0  -0.081382  -0.127988  0  3.946932  0
C  C117  1  0.58918931  0.99495655  0.59636842  1  1.543932  0  0.225995  0.60245  0  4.170044  0
C  C118  1  0.81914404  0.04581295  0.87264343  1  -0.014332  0  -0.081702  -0.127218  0  3.947389  0
C  C119  1  0.85440440  0.04540547  0.90684401  1  -0.037559  0  -0.079302  -0.084766  0  3.987845  0
C  C120  1  0.09115958  0.17712584  0.09607376  1  1.560154  0  0.225731  0.601651  0  4.174124  0
C  C121  1  0.12929989  0.25205233  0.13368022  1  -0.018087  0  -0.017848  -0.041305  0  3.974686  0
C  C122  1  0.19023426  0.28615552  0.14726051  1  -0.086265  0  -0.079877  -0.085247  0  3.988649  0
C  C123  1  0.22601914  0.35585227  0.18222022  1  0.020552  0  -0.082243  -0.128502  0  3.949115  0
C  C124  1  0.20155984  0.39344322  0.20462999  1  0.146018  0  0.005527  0.147425  0  4.109248  0
C  C125  1  0.23780762  0.46449531  0.24026165  1  -0.303663  0  -0.041894  -0.105939  0  4.114041  0
C  C126  1  0.26891412  0.52588181  0.27107842  1  -0.144523  0  -0.041572  -0.105688  0  4.113112  0
C  C127  1  0.30422995  0.59695587  0.30681683  1  0.11898  0  0.004814  0.146709  0  4.108717  0
C  C128  1  0.27825118  0.63305554  0.32642840  1  -0.036075  0  -0.081652  -0.12751  0  3.945993  0
C  C129  1  0.31279160  0.70275977  0.36144830  1  -0.008529  0  -0.079665  -0.084914  0  3.985147  0
C  C130  1  0.37396229  0.73829746  0.37793084  1  -0.032365  0  -0.01784  -0.040978  0  3.974097  0
C  C131  1  0.40010825  0.70282725  0.35870620  1  -0.018181  0  -0.080017  -0.085017  0  3.985093  0
C  C132  1  0.36584933  0.63308411  0.32355275  1  0.037105  0  -0.081465  -0.127829  0  3.946342  0
C  C133  1  0.41076351  0.81322212  0.41544481  1  1.560083  0  0.22503  0.601209  0  4.174104  0
C  C134  1  0.14017149  0.35876101  0.19077561  1  -0.000545  0  -0.081762  -0.128444  0  3.948933  0
C  C135  1  0.10468434  0.28903399  0.15577612  1  -0.07734  0  -0.079906  -0.084448  0  3.987473  0
C  C136  1  0.08881511  0.99415869  0.91309139  1  1.535076  0  0.22499  0.601871  0  4.171999  0
C  C137  1  0.12605409  0.99391085  0.87527264  1  -0.024847  0  -0.018115  -0.041249  0  3.973681  0
C  C138  1  0.18628295  0.02607438  0.89865362  1  0.004361  0  -0.079361  -0.083943  0  3.985151  0
C  C139  1  0.22106161  0.02585060  0.86357228  1  0.003551  0  -0.081734  -0.128907  0  3.947059  0
C  C140  1  0.19628417  0.99355089  0.80398438  1  0.035297  0  0.004978  0.148063  0  4.106769  0
C  C141  1  0.23173322  0.99372985  0.76824379  1  -0.161438  0  -0.041227  -0.105517  0  4.114644  0
C  C142  1  0.26246334  0.99428346  0.73751924  1  -0.208262  0  -0.04193  -0.105932  0  4.117158  0
C  C143  1  0.29813377  0.99522834  0.70204750  1  0.067907  0  0.005041  0.146202  0  4.112982  0
C  C144  1  0.27305121  0.94934112  0.64124212  1  -0.023357  0  -0.081212  -0.127002  0  3.946873  0
C  C145  1  0.30825775  0.95035800  0.60663485  1  -0.053171  0  -0.07925  -0.083992  0  3.98513  0
C  C146  1  0.36912813  0.99713171  0.63162924  1  0.027349  0  -0.01851  -0.041971  0  3.974559  0
C  C147  1  0.39429753  0.04302915  0.69198239  1  0.001046  0  -0.079655  -0.085947  0  3.989399  0
C  C148  1  0.35942832  0.04219018  0.72691204  1  -0.006759  0  -0.081645  -0.126913  0  3.948269  0
C  C149  1  0.40692374  0.99771074  0.59437395  1  1.536609  0  0.226183  0.603655  0  4.169785  0
C  C150  1  0.13562409  0.96131619  0.78075585  1  -0.103345  0  -0.081923  -0.128822  0  3.946586  0
C  C151  1  0.10109542  0.96149937  0.81607347  1  -0.007973  0  -0.079587  -0.085661  0  3.986074  0
O  O152  1  0.99930465  0.99529523  0.00475898  1  -1.216818  0  -0.572888  -1.0287  0  2.539935  0
O  O153  1  0.92038437  0.03211436  0.07941232  1  -1.162516  0  -0.317318  -0.551181  0  2.337061  0
O  O154  1  0.93239009  0.96158565  0.08775913  1  -1.160941  0  -0.317673  -0.549618  0  2.333278  0
O  O155  1  0.57491545  0.95222164  0.42648696  1  -1.165242  0  -0.316262  -0.548899  0  2.333484  0
O  O156  1  0.58258364  0.04140866  0.43543856  1  -1.166729  0  -0.317745  -0.550915  0  2.332832  0
O  O157  1  0.92651411  0.84235396  0.88739913  1  -1.162691  0  -0.316617  -0.549376  0  2.333187  0
O  O158  1  0.91569898  0.84163269  0.96657082  1  -1.182029  0  -0.317031  -0.548609  0  2.333271  0
O  O159  1  0.58005849  0.14833176  0.61957113  1  -1.160268  0  -0.317317  -0.549776  0  2.33737  0
O  O160  1  0.56729448  0.14732835  0.53978448  1  -1.168822  0  -0.316675  -0.549133  0  2.331851  0
O  O161  1  0.11651839  0.03822150  0.08423432  1  -1.176539  0  -0.316399  -0.548393  0  2.329309  0
O  O162  1  0.03631003  0.94332636  0.06755552  1  -1.1795  0  -0.317648  -0.550723  0  2.336019  0
O  O163  1  0.38144093  0.95255283  0.42720977  1  -1.163711  0  -0.316951  -0.549999  0  2.337528  0
O  O164  1  0.46225238  0.02856585  0.42268651  1  -1.170954  0  -0.317221  -0.550129  0  2.339445  0
O  O165  1  0.91474986  0.95080680  0.89204806  1  -1.171569  0  -0.317955  -0.551448  0  2.339797  0
O  O166  1  0.92458132  0.04124160  0.97278588  1  -1.167121  0  -0.316801  -0.548779  0  2.330042  0
O  O167  1  0.57064378  0.03224763  0.62090301  1  -1.16387  0  -0.317089  -0.548672  0  2.343347  0
O  O168  1  0.57956962  0.95797010  0.54206605  1  -1.16812  0  -0.317055  -0.550137  0  2.328108  0
O  O169  1  0.11670984  0.14696264  0.07725451  1  -1.183183  0  -0.316933  -0.549217  0  2.339333  0
O  O170  1  0.03608025  0.14914533  0.08571062  1  -1.173305  0  -0.316266  -0.548722  0  2.333057  0
O  O171  1  0.38378979  0.84194671  0.42977301  1  -1.190349  0  -0.317209  -0.549578  0  2.340485  0
O  O172  1  0.46615658  0.84256487  0.43016049  1  -1.168266  0  -0.316104  -0.548245  0  2.336327  0
O  O173  1  0.11494635  0.02836996  0.96716739  1  -1.174261  0  -0.316488  -0.549612  0  2.337117  0
O  O174  1  0.03379796  0.96010450  0.88833122  1  -1.173958  0  -0.316329  -0.548336  0  2.336033  0
O  O175  1  0.38127260  0.95428054  0.53979445  1  -1.171638  0  -0.316651  -0.549335  0  2.334737  0
O  O176  1  0.46198922  0.04148782  0.62003242  1  -1.174819  0  -0.31761  -0.550593  0  2.338423  0
O  O177  1  0.49944264  0.99501074  0.50434777  1  -1.189427  0  -0.572157  -1.0275  0  2.536735  0
