# generated using pymatgen
data_CuH4C4IN2
_symmetry_space_group_name_H-M   'P 1'
_cell_length_a   5.79791524
_cell_length_b   7.64464011
_cell_length_c   7.64478788
_cell_angle_alpha   109.00217252
_cell_angle_beta   97.18694290
_cell_angle_gamma   97.18559412
_symmetry_Int_Tables_number   1
_chemical_formula_structural   CuH4C4IN2
_chemical_formula_sum   'Cu2 H8 C8 I2 N4'
_cell_volume   312.85270386
_cell_formula_units_Z   2
loop_
 _symmetry_equiv_pos_site_id
 _symmetry_equiv_pos_as_xyz
  1  'x, y, z'
loop_
 _atom_site_type_symbol
 _atom_site_label
 _atom_site_symmetry_multiplicity
 _atom_site_fract_x
 _atom_site_fract_y
 _atom_site_fract_z
 _atom_site_occupancy
 _atom_site_hle17_bader_spin_density
 _atom_site_hle17_ddec_charge
 _atom_site_hle17_ddec_spin_density
 _atom_site_hle17_ddec_sum_bond_order
 _atom_site_hle17_magmom
 _atom_site_hse06_10hf_bader_spin_density
 _atom_site_hse06_10hf_ddec_charge
 _atom_site_hse06_10hf_ddec_spin_density
 _atom_site_hse06_10hf_ddec_sum_bond_order
 _atom_site_hse06_10hf_magmom
 _atom_site_hse06_bader_spin_density
 _atom_site_hse06_ddec_charge
 _atom_site_hse06_ddec_spin_density
 _atom_site_hse06_ddec_sum_bond_order
 _atom_site_hse06_magmom
 _atom_site_pbe_bader_spin_density
 _atom_site_pbe_cm5_charge
 _atom_site_pbe_ddec_charge
 _atom_site_pbe_ddec_spin_density
 _atom_site_pbe_ddec_sum_bond_order
 _atom_site_pbe_magmom
Cu  Cu0  1  0.26126206  0.46431817  0.46432133  1  0  0.289154  0  2.186688  0  0  0.18221  0  2.692412  0  0  0.185786  0  2.641282  0  0  0.373946  0.18354  0  2.723443  0
Cu  Cu1  1  0.73870151  0.53567969  0.53567942  1  0  0.28915  0  2.185848  0  0  0.18219  0  2.691478  0  0  0.185851  0  2.640325  0  0  0.373532  0.183485  0  2.722615  0
H  H2  1  0.31920666  0.58947446  0.13662357  1  0  0.085439  0  0.944558  0  0  0.09033  0  1.015565  0  0  0.093825  0  1.013187  0  0  0.109892  0.087707  0  1.0174  0
H  H3  1  0.68071214  0.86342396  0.41057968  1  0  0.085871  0  0.943475  0  0  0.090592  0  1.014617  0  0  0.094082  0  1.012259  0  0  0.109984  0.087944  0  1.016502  0
H  H4  1  0.68068996  0.41057852  0.86341535  1  0  0.085754  0  0.943525  0  0  0.090545  0  1.014604  0  0  0.094043  0  1.01224  0  0  0.109951  0.087895  0  1.016489  0
H  H5  1  0.31919064  0.13661515  0.58947359  1  0  0.085413  0  0.944538  0  0  0.090261  0  1.015563  0  0  0.093788  0  1.013157  0  0  0.109867  0.087626  0  1.017431  0
H  H6  1  0.16324842  0.82842849  0.01576826  1  0  0.106309  0  0.973075  0  0  0.114401  0  1.037595  0  0  0.118606  0  1.034198  0  0  0.09306  0.111051  0  1.040653  0
H  H7  1  0.83677880  0.98423614  0.17160041  1  0  0.10628  0  0.973096  0  0  0.11427  0  1.037775  0  0  0.118516  0  1.034321  0  0  0.093018  0.110921  0  1.04082  0
H  H8  1  0.83675625  0.17159375  0.98422309  1  0  0.106346  0  0.973198  0  0  0.114359  0  1.037797  0  0  0.118587  0  1.034359  0  0  0.093029  0.111007  0  1.040847  0
H  H9  1  0.16322162  0.01576233  0.82842210  1  0  0.106368  0  0.973182  0  0  0.114481  0  1.037674  0  0  0.118683  0  1.03428  0  0  0.093117  0.111134  0  1.040727  0
C  C10  1  0.17597281  0.65824917  0.19067183  1  0  0.084004  0  3.675761  0  0  0.054976  0  3.928528  0  0  0.057816  0  3.942576  0  0  0.042408  0.052934  0  3.920022  0
C  C11  1  0.82403645  0.80936342  0.34173916  1  0  0.083567  0  3.674414  0  0  0.054833  0  3.927081  0  0  0.057652  0  3.941143  0  0  0.04233  0.052799  0  3.918579  0
C  C12  1  0.82402612  0.34173249  0.80935425  1  0  0.083681  0  3.674522  0  0  0.054871  0  3.927192  0  0  0.057676  0  3.941251  0  0  0.042287  0.052839  0  3.918686  0
C  C13  1  0.17595494  0.19067121  0.65824719  1  0  0.083935  0  3.676108  0  0  0.054991  0  3.928893  0  0  0.057799  0  3.942934  0  0  0.042416  0.052954  0  3.920388  0
C  C14  1  0.08955099  0.79213581  0.12616660  1  0  -0.055084  0  3.70583  0  0  -0.071467  0  3.952392  0  0  -0.070448  0  3.966832  0  0  -0.071782  -0.072708  0  3.943682  0
C  C15  1  0.91049928  0.87382698  0.20782889  1  0  -0.05513  0  3.705892  0  0  -0.071562  0  3.952552  0  0  -0.070552  0  3.96693  0  0  -0.071939  -0.072801  0  3.943845  0
C  C16  1  0.91046977  0.20782646  0.87382372  1  0  -0.055273  0  3.705942  0  0  -0.071652  0  3.952535  0  0  -0.07063  0  3.966932  0  0  -0.071913  -0.07289  0  3.943832  0
C  C17  1  0.08955123  0.12616505  0.79213184  1  0  -0.055115  0  3.705733  0  0  -0.07156  0  3.952271  0  0  -0.070542  0  3.96672  0  0  -0.071799  -0.072804  0  3.943565  0
I  I18  1  0.49303738  0.24307266  0.24308213  1  0  -0.460472  0  1.414041  0  0  -0.407808  0  1.824121  0  0  -0.431063  0  1.794164  0  0  -0.220721  -0.390271  0  1.84321  0
I  I19  1  0.50694547  0.75692551  0.75692828  1  0  -0.460441  0  1.414099  0  0  -0.407769  0  1.824163  0  0  -0.431036  0  1.794199  0  0  -0.220632  -0.390212  0  1.843238  0
N  N20  1  0.09167930  0.60413801  0.32423665  1  0  -0.134755  0  3.286058  0  0  -0.075145  0  3.577152  0  0  -0.076909  0  3.580746  0  0  -0.250084  -0.075285  0  3.575664  0
N  N21  1  0.90840509  0.67575981  0.39580696  1  0  -0.135172  0  3.285619  0  0  -0.075609  0  3.576723  0  0  -0.077319  0  3.580296  0  0  -0.249917  -0.075788  0  3.575283  0
N  N22  1  0.90840217  0.39579717  0.67575283  1  0  -0.135377  0  3.285222  0  0  -0.075825  0  3.576429  0  0  -0.077529  0  3.579997  0  0  -0.250016  -0.075997  0  3.574995  0
N  N23  1  0.09169042  0.32423282  0.60413175  1  0  -0.134451  0  3.285807  0  0  -0.074913  0  3.576952  0  0  -0.07668  0  3.580557  0  0  -0.250035  -0.07508  0  3.575497  0
