# generated using pymatgen
data_ZnH16C21(NO3)2
_symmetry_space_group_name_H-M   'P 1'
_cell_length_a   12.59222452
_cell_length_b   13.66407441
_cell_length_c   14.13580158
_cell_angle_alpha   94.55539631
_cell_angle_beta   104.88296714
_cell_angle_gamma   102.21307572
_symmetry_Int_Tables_number   1
_chemical_formula_structural   ZnH16C21(NO3)2
_chemical_formula_sum   'Zn4 H64 C84 N8 O24'
_cell_volume   2274.27532816
_cell_formula_units_Z   4
loop_
 _symmetry_equiv_pos_site_id
 _symmetry_equiv_pos_as_xyz
  1  'x, y, z'
loop_
 _atom_site_type_symbol
 _atom_site_label
 _atom_site_symmetry_multiplicity
 _atom_site_fract_x
 _atom_site_fract_y
 _atom_site_fract_z
 _atom_site_occupancy
 _atom_site_pbe_bader_charge
 _atom_site_pbe_bader_spin_density
 _atom_site_pbe_cm5_charge
 _atom_site_pbe_ddec_charge
 _atom_site_pbe_ddec_spin_density
 _atom_site_pbe_ddec_sum_bond_order
 _atom_site_pbe_magmom
Zn  Zn0  1  0.19162484  0.34356916  0.58958591  1  1.246251  0  0.698458  0.758813  0  2.401564  0
Zn  Zn1  1  0.80837637  0.65642594  0.41041182  1  1.246201  0  0.698432  0.758748  0  2.401615  0
Zn  Zn2  1  0.72936545  0.22319898  0.94536149  1  1.237265  0  0.692374  0.742522  0  2.398069  0
Zn  Zn3  1  0.27063533  0.77680373  0.05463869  1  1.237499  0  0.692423  0.742569  0  2.398198  0
H  H4  1  0.01520779  0.18823589  0.27810794  1  0.106248  0  0.106015  0.125903  0  0.986649  0
H  H5  1  0.98479685  0.81175170  0.72189660  1  0.105845  0  0.10603  0.125885  0  0.986615  0
H  H6  1  0.88510913  0.35603387  0.26449274  1  0.075259  0  0.099589  0.110208  0  1.030374  0
H  H7  1  0.11488731  0.64394854  0.73551506  1  0.075115  0  0.099578  0.110198  0  1.030356  0
H  H8  1  0.25230791  0.98601187  0.63837263  1  0.136816  0  0.109521  0.136085  0  0.995586  0
H  H9  1  0.74769457  0.01399553  0.36164030  1  0.136797  0  0.109498  0.136044  0  0.995598  0
H  H10  1  0.59254421  0.96877990  0.63804984  1  0.07496  0  0.109316  0.136536  0  1.007579  0
H  H11  1  0.40745210  0.03122131  0.36194770  1  0.075011  0  0.109306  0.13653  0  1.007594  0
H  H12  1  0.50970248  0.25826660  0.67005580  1  0.075664  0  0.104106  0.125087  0  1.033772  0
H  H13  1  0.49029920  0.74173692  0.32994891  1  0.075733  0  0.104093  0.125078  0  1.033863  0
H  H14  1  0.52487437  0.81880809  0.69064940  1  0.085836  0  0.10808  0.080262  0  0.983014  0
H  H15  1  0.47512340  0.18119454  0.30934152  1  0.085698  0  0.10815  0.080432  0  0.983008  0
H  H16  1  0.48809400  0.80946962  0.55921174  1  0.085395  0  0.110341  0.087296  0  0.969435  0
H  H17  1  0.51188928  0.19053164  0.44077965  1  0.085315  0  0.110343  0.087328  0  0.969463  0
H  H18  1  0.22101471  0.71948059  0.57225307  1  0.119398  0  0.112946  0.125461  0  1.018568  0
H  H19  1  0.77897587  0.28051541  0.42774766  1  0.119501  0  0.112963  0.125521  0  1.018698  0
H  H20  1  0.12346022  0.53832336  0.55596855  1  0.166184  0  0.121001  0.107654  0  1.032754  0
H  H21  1  0.87653591  0.46166881  0.44403196  1  0.166199  0  0.12101  0.107601  0  1.032925  0
H  H22  1  0.42901918  0.45616837  0.64921836  1  0.126037  0  0.123159  0.102029  0  0.99295  0
H  H23  1  0.57098673  0.54383810  0.35078406  1  0.126173  0  0.123156  0.102026  0  0.992898  0
H  H24  1  0.54007214  0.63377963  0.65974184  1  0.077764  0  0.116465  0.13086  0  0.971976  0
H  H25  1  0.45992204  0.36622619  0.34025897  1  0.077705  0  0.116432  0.130693  0  0.971895  0
H  H26  1  0.71325629  0.30391199  0.73915313  1  0.113034  0  0.107273  0.088306  0  1.020664  0
H  H27  1  0.28674715  0.69609366  0.26084224  1  0.112985  0  0.107319  0.088451  0  1.020564  0
H  H28  1  0.65853508  0.29059551  0.60786155  1  0.059688  0  0.108013  0.083999  0  0.973424  0
H  H29  1  0.34146406  0.70940334  0.39213091  1  0.05977  0  0.108048  0.084032  0  0.973358  0
H  H30  1  0.87840426  0.44193843  0.72268760  1  0.104027  0  0.120056  0.13818  0  0.96518  0
H  H31  1  0.12159802  0.55805961  0.27730350  1  0.104455  0  0.120001  0.13812  0  0.965393  0
H  H32  1  0.07124838  0.47046207  0.69916372  1  0.120118  0  0.121967  0.08749  0  1.004866  0
H  H33  1  0.92875368  0.52953521  0.30082728  1  0.120023  0  0.121914  0.087394  0  1.005055  0
H  H34  1  0.01636226  0.17153792  0.57830455  1  0.137137  0  0.125439  0.107117  0  0.986123  0
H  H35  1  0.98363633  0.82845422  0.42169659  1  0.137318  0  0.125401  0.107044  0  0.98601  0
H  H36  1  0.81760229  0.13133767  0.59203166  1  0.128825  0  0.114426  0.127933  0  0.995115  0
H  H37  1  0.18239793  0.86865970  0.40796524  1  0.128957  0  0.11448  0.128017  0  0.995011  0
H  H38  1  0.66409976  0.57963540  0.87445567  1  0.087251  0  0.104654  0.127313  0  1.004826  0
H  H39  1  0.33590424  0.42036732  0.12554746  1  0.087298  0  0.104674  0.127355  0  1.004866  0
H  H40  1  0.32257927  0.59717729  0.87096877  1  0.113829  0  0.109874  0.146727  0  1.029185  0
H  H41  1  0.67742247  0.40282841  0.12902829  1  0.113659  0  0.109897  0.146776  0  1.029198  0
H  H42  1  0.41491542  0.31022185  0.87147088  1  0.059223  0  0.103582  0.122713  0  1.028977  0
H  H43  1  0.58508431  0.68978316  0.12853059  1  0.059159  0  0.103613  0.122752  0  1.028944  0
H  H44  1  0.42788549  0.75004592  0.94532864  1  0.115094  0  0.111308  0.097233  0  1.011166  0
H  H45  1  0.57212247  0.24995986  0.05468063  1  0.115035  0  0.111216  0.097093  0  1.011151  0
H  H46  1  0.38505363  0.74725330  0.81524551  1  0.08661  0  0.106609  0.085727  0  0.983024  0
H  H47  1  0.61494465  0.25275029  0.18476188  1  0.086782  0  0.10661  0.085687  0  0.982917  0
H  H48  1  0.68905964  0.84375992  0.94798870  1  0.122679  0  0.113211  0.125068  0  1.005093  0
H  H49  1  0.31094315  0.15624347  0.05200708  1  0.12237  0  0.113249  0.125148  0  1.005305  0
H  H50  1  0.78849209  0.02799519  0.97749891  1  0.143611  0  0.122216  0.104555  0  1.006197  0
H  H51  1  0.21151393  0.97201041  0.02249358  1  0.143613  0  0.122183  0.104512  0  1.006374  0
H  H52  1  0.48782307  0.11015694  0.86389837  1  0.127439  0  0.12293  0.101847  0  0.994684  0
H  H53  1  0.51217818  0.88984423  0.13609972  1  0.127531  0  0.122861  0.101732  0  0.994335  0
H  H54  1  0.37421419  0.93173811  0.84174149  1  0.130554  0  0.117785  0.136995  0  0.970596  0
H  H55  1  0.62579236  0.06826844  0.15826676  1  0.130559  0  0.117726  0.136975  0  0.970303  0
H  H56  1  0.27400146  0.28832671  0.94236662  1  0.07018  0  0.107743  0.084282  0  0.980222  0
H  H57  1  0.72599794  0.71167979  0.05763273  1  0.070307  0  0.10775  0.084279  0  0.98028  0
H  H58  1  0.21569235  0.25768809  0.81080836  1  0.103457  0  0.106774  0.090311  0  1.026506  0
H  H59  1  0.78430965  0.74231310  0.18919205  1  0.103485  0  0.106771  0.090332  0  1.026506  0
H  H60  1  0.11787054  0.43240000  0.97005652  1  0.117518  0  0.115895  0.136307  0  1.001909  0
H  H61  1  0.88213555  0.56759593  0.02995029  1  0.117602  0  0.115919  0.136353  0  1.001904  0
H  H62  1  0.91762934  0.39203968  0.98208907  1  0.132562  0  0.121994  0.09937  0  0.997258  0
H  H63  1  0.08238073  0.60796235  0.01792407  1  0.132586  0  0.122014  0.099388  0  0.997258  0
H  H64  1  0.85096107  0.10285032  0.83300298  1  0.08572  0  0.120451  0.085036  0  0.988616  0
H  H65  1  0.14903120  0.89715696  0.16699318  1  0.085703  0  0.120405  0.084972  0  0.988628  0
H  H66  1  0.04578823  0.13144751  0.81166118  1  0.114888  0  0.120446  0.139563  0  0.968975  0
H  H67  1  0.95419996  0.86855896  0.18832681  1  0.114421  0  0.120399  0.139512  0  0.968987  0
C  C68  1  0.05174272  0.31153637  0.40253986  1  1.567995  0  0.184537  0.591706  0  4.242946  0
C  C69  1  0.94825560  0.68844897  0.59746152  1  1.567449  0  0.184526  0.591526  0  4.242702  0
C  C70  1  0.99079019  0.25615862  0.30157943  1  -0.057237  0  -0.08435  -0.164999  0  3.900225  0
C  C71  1  0.00920612  0.74382520  0.69841993  1  -0.055965  0  -0.084391  -0.164922  0  3.900309  0
C  C72  1  0.90904419  0.28812546  0.24028258  1  -0.081389  0  -0.094559  -0.186504  0  3.932178  0
C  C73  1  0.09094931  0.71185987  0.75971473  1  -0.081614  0  -0.094553  -0.186584  0  3.932201  0
C  C74  1  0.85088665  0.23732236  0.13756188  1  1.557369  0  0.186231  0.595363  0  4.240005  0
C  C75  1  0.14910739  0.76266224  0.86243766  1  1.553752  0  0.186312  0.595474  0  4.239875  0
C  C76  1  0.28845272  0.18904497  0.65594500  1  1.576336  0  0.199647  0.572882  0  4.201565  0
C  C77  1  0.71154727  0.81095858  0.34406070  1  1.57704  0  0.199632  0.572885  0  4.201643  0
C  C78  1  0.37365033  0.12743791  0.65256480  1  0.034138  0  -0.017029  0.024192  0  4.006627  0
C  C79  1  0.62634822  0.87256422  0.34744682  1  0.033898  0  -0.017009  0.024223  0  4.006764  0
C  C80  1  0.33918120  0.02247287  0.64171861  1  -0.034873  0  -0.10915  -0.250617  0  3.978634  0
C  C81  1  0.66081746  0.97752921  0.35828949  1  -0.03479  0  -0.109219  -0.250638  0  3.97873  0
C  C82  1  0.41769158  0.96493606  0.63575113  1  0.386585  0  0.076916  0.268509  0  4.116334  0
C  C83  1  0.58230420  0.03506452  0.36425615  1  0.386556  0  0.076937  0.268473  0  4.11648  0
C  C84  1  0.52961130  0.01131891  0.64234906  1  0.067866  0  -0.125672  -0.343963  0  3.993445  0
C  C85  1  0.47038550  0.98868462  0.35765299  1  0.067512  0  -0.125655  -0.343896  0  3.99341  0
C  C86  1  0.56293212  0.11747484  0.65538389  1  0.344687  0  0.076317  0.273492  0  4.106015  0
C  C87  1  0.43707000  0.88253019  0.34462031  1  0.344694  0  0.076359  0.273501  0  4.106043  0
C  C88  1  0.48586334  0.17614566  0.65932068  1  0.001929  0  -0.121335  -0.277719  0  4.014721  0
C  C89  1  0.51413316  0.82385716  0.34068409  1  0.001932  0  -0.121318  -0.277732  0  4.014975  0
C  C90  1  0.45285301  0.79922811  0.62291403  1  0.392073  0  -0.05375  -0.017744  0  3.911885  0
C  C91  1  0.54714128  0.20077766  0.37708326  1  0.392102  0  -0.053806  -0.018003  0  3.912059  0
C  C92  1  0.38907540  0.69133731  0.61484061  1  0.026035  0  0.007277  0.12199  0  3.962235  0
C  C93  1  0.61091688  0.30866474  0.38516020  1  0.025904  0  0.007215  0.12185  0  3.962421  0
C  C94  1  0.27072542  0.66351813  0.58752152  1  -0.136405  0  -0.084779  -0.177495  0  3.937579  0
C  C95  1  0.72927335  0.33647175  0.41248024  1  -0.136613  0  -0.084797  -0.177569  0  3.937126  0
C  C96  1  0.21558088  0.56251981  0.58010459  1  0.524784  0  0.054918  0.100982  0  3.914107  0
C  C97  1  0.78442576  0.43748366  0.41989996  1  0.524724  0  0.054938  0.101066  0  3.913502  0
C  C98  1  0.38720616  0.51693253  0.62981508  1  0.471171  0  0.049395  0.097933  0  3.939863  0
C  C99  1  0.61279875  0.48306491  0.37019010  1  0.471507  0  0.049318  0.097797  0  3.940062  0
C  C100  1  0.44780586  0.61574673  0.63563769  1  0.006772  0  -0.080568  -0.181019  0  3.957877  0
C  C101  1  0.55220045  0.38425823  0.36436474  1  0.006781  0  -0.080425  -0.180599  0  3.95797  0
C  C102  1  0.71406091  0.26316741  0.66883445  1  0.414957  0  -0.055963  -0.025873  0  3.891124  0
C  C103  1  0.28593690  0.73682996  0.33116042  1  0.414903  0  -0.055996  -0.025983  0  3.890849  0
C  C104  1  0.83186957  0.28372828  0.65817485  1  -0.029383  0  0.011961  0.131945  0  3.957058  0
C  C105  1  0.16813103  0.71627063  0.34182365  1  -0.029237  0  0.011953  0.132036  0  3.957306  0
C  C106  1  0.90469529  0.37998594  0.68898766  1  0.002865  0  -0.076115  -0.171632  0  3.911453  0
C  C107  1  0.09531238  0.62001052  0.31100259  1  0.002212  0  -0.076056  -0.171705  0  3.911167  0
C  C108  1  0.01277262  0.39622761  0.67675487  1  0.467082  0  0.059231  0.115463  0  3.931415  0
C  C109  1  0.98722138  0.60376224  0.32324071  1  0.467438  0  0.059276  0.115679  0  3.930942  0
C  C110  1  0.98081315  0.22907315  0.60790571  1  0.477092  0  0.05212  0.102317  0  3.931163  0
C  C111  1  0.01919169  0.77091739  0.39209339  1  0.47718  0  0.052103  0.102451  0  3.931456  0
C  C112  1  0.87145183  0.20737740  0.61647126  1  -0.015665  0  -0.083305  -0.179229  0  3.956083  0
C  C113  1  0.12854430  0.79261393  0.38352282  1  -0.0158  0  -0.083366  -0.179374  0  3.956515  0
C  C114  1  0.63561359  0.38009622  0.88326851  1  1.545264  0  0.200049  0.570993  0  4.19459  0
C  C115  1  0.36438958  0.61990651  0.11673441  1  1.545833  0  0.199966  0.570916  0  4.194406  0
C  C116  1  0.54667419  0.43942231  0.87326081  1  -0.057216  0  -0.020246  0.013319  0  4.016005  0
C  C117  1  0.45332805  0.56057963  0.12673899  1  -0.057101  0  -0.020144  0.013573  0  4.016087  0
C  C118  1  0.57741614  0.54324476  0.87182612  1  -0.002114  0  -0.114077  -0.255276  0  3.995281  0
C  C119  1  0.42258588  0.45675643  0.12817359  1  -0.002198  0  -0.114151  -0.255469  0  3.995453  0
C  C120  1  0.49681345  0.60000895  0.87067175  1  0.442281  0  0.075939  0.268322  0  4.107605  0
C  C121  1  0.50319106  0.39999220  0.12932788  1  0.442235  0  0.075993  0.268471  0  4.107488  0
C  C122  1  0.38627189  0.55448089  0.86931739  1  0.023419  0  -0.11983  -0.327406  0  3.935589  0
C  C123  1  0.61373076  0.44552172  0.13067619  1  0.02369  0  -0.119946  -0.327676  0  3.935745  0
C  C124  1  0.35697215  0.44944160  0.86924563  1  0.40412  0  0.08102  0.280563  0  4.073026  0
C  C125  1  0.64302689  0.55056033  0.13075053  1  0.403899  0  0.081033  0.280713  0  4.073046  0
C  C126  1  0.43581815  0.39137229  0.87102237  1  0.06951  0  -0.115024  -0.256882  0  3.991284  0
C  C127  1  0.56418209  0.60863116  0.12897560  1  0.069672  0  -0.115069  -0.257021  0  3.991312  0
C  C128  1  0.45963496  0.76454386  0.88058088  1  0.396842  0  -0.060778  -0.031063  0  3.896822  0
C  C129  1  0.54036634  0.23546117  0.11942311  1  0.396785  0  -0.060642  -0.030705  0  3.896405  0
C  C130  1  0.52316174  0.87278549  0.89333890  1  0.00383  0  0.014681  0.137214  0  3.951394  0
C  C131  1  0.47684272  0.12721872  0.10666302  1  0.003845  0  0.014676  0.137121  0  3.951379  0
C  C132  1  0.64132146  0.90080256  0.93006809  1  -0.088247  0  -0.086314  -0.180487  0  3.947758  0
C  C133  1  0.35867910  0.09920767  0.06992823  1  -0.088021  0  -0.086339  -0.180553  0  3.947404  0
C  C134  1  0.69741771  0.00200970  0.94387104  1  0.485175  0  0.046213  0.091399  0  3.951715  0
C  C135  1  0.30257669  0.99798995  0.05612097  1  0.485281  0  0.046265  0.091514  0  3.951279  0
C  C136  1  0.52830907  0.04870362  0.88363213  1  0.452704  0  0.050322  0.097676  0  3.935361  0
C  C137  1  0.47169037  0.95130591  0.11636670  1  0.452789  0  0.050417  0.097918  0  3.935353  0
C  C138  1  0.46614274  0.94916449  0.87073468  1  -0.029397  0  -0.079855  -0.176945  0  3.933577  0
C  C139  1  0.53384915  0.05083604  0.12926523  1  -0.029652  0  -0.079814  -0.177071  0  3.933945  0
C  C140  1  0.21445830  0.30556448  0.87696266  1  0.429872  0  -0.057739  -0.03483  0  3.891378  0
C  C141  1  0.78554009  0.69443822  0.12303480  1  0.429457  0  -0.057789  -0.034863  0  3.891498  0
C  C142  1  0.09741685  0.28465320  0.88958479  1  -0.023993  0  0.01704  0.145608  0  3.938306  0
C  C143  1  0.90258112  0.71535103  0.11041335  1  -0.023734  0  0.017079  0.145656  0  3.938283  0
C  C144  1  0.06093140  0.35848797  0.93881101  1  0.018337  0  -0.077521  -0.171747  0  3.912615  0
C  C145  1  0.93907068  0.64151099  0.06119282  1  0.018311  0  -0.077603  -0.171884  0  3.912611  0
C  C146  1  0.95104989  0.33668576  0.94645988  1  0.443935  0  0.053553  0.107086  0  3.922163  0
C  C147  1  0.04895643  0.66331700  0.05354809  1  0.444042  0  0.053554  0.107034  0  3.922028  0
C  C148  1  0.91303669  0.17444377  0.86308526  1  0.541368  0  0.050988  0.099599  0  3.962519  0
C  C149  1  0.08696162  0.82556117  0.13690876  1  0.541449  0  0.051089  0.099708  0  3.962247  0
C  C150  1  0.02160552  0.19064406  0.85184322  1  -0.06992  0  -0.076881  -0.178418  0  3.928029  0
C  C151  1  0.97839195  0.80936088  0.14815129  1  -0.069544  0  -0.076865  -0.178415  0  3.927905  0
N  N152  1  0.27294330  0.49052441  0.60158537  1  -1.263957  0  -0.334611  -0.233754  0  3.583197  0
N  N153  1  0.72706080  0.50947827  0.39841425  1  -1.264124  0  -0.334629  -0.233727  0  3.583222  0
N  N154  1  0.05059132  0.32217659  0.63739885  1  -1.268422  0  -0.333042  -0.238853  0  3.600337  0
N  N155  1  0.94940661  0.67782158  0.36259892  1  -1.268862  0  -0.332981  -0.238948  0  3.600577  0
N  N156  1  0.64212297  0.07502607  0.92015459  1  -1.263986  0  -0.333629  -0.239596  0  3.58698  0
N  N157  1  0.35787814  0.92497431  0.07984130  1  -1.26397  0  -0.333668  -0.239676  0  3.586839  0
N  N158  1  0.87764200  0.24626093  0.90878309  1  -1.270836  0  -0.333216  -0.236663  0  3.609436  0
N  N159  1  0.12236410  0.75374327  0.09121924  1  -1.27122  0  -0.333288  -0.236611  0  3.609248  0
O  O160  1  0.12840521  0.27050627  0.45299467  1  -1.157865  0  -0.350239  -0.561568  0  2.237801  0
O  O161  1  0.87159670  0.72948668  0.54701302  1  -1.158159  0  -0.350195  -0.561441  0  2.237522  0
O  O162  1  0.02847715  0.39068228  0.43382435  1  -1.184735  0  -0.326807  -0.56653  0  2.138604  0
O  O163  1  0.97152845  0.60930525  0.56617618  1  -1.184252  0  -0.326789  -0.566443  0  2.138503  0
O  O164  1  0.78351005  0.28676031  0.08574284  1  -1.168622  0  -0.344627  -0.571234  0  2.295644  0
O  O165  1  0.21649140  0.71323723  0.91426713  1  -1.165508  0  -0.344623  -0.571284  0  2.295872  0
O  O166  1  0.86764881  0.15593391  0.10478963  1  -1.181072  0  -0.33962  -0.57097  0  2.095913  0
O  O167  1  0.13235775  0.84405659  0.89520778  1  -1.180806  0  -0.339706  -0.571026  0  2.095644  0
O  O168  1  0.31879897  0.28220315  0.64060485  1  -1.178717  0  -0.343091  -0.563228  0  2.334109  0
O  O169  1  0.68120455  0.71780111  0.35940037  1  -1.179197  0  -0.343102  -0.563236  0  2.334099  0
O  O170  1  0.19669280  0.14986180  0.67185023  1  -1.180237  0  -0.333094  -0.565161  0  2.11096  0
O  O171  1  0.80330845  0.85014021  0.32815428  1  -1.180202  0  -0.333072  -0.56515  0  2.110941  0
O  O172  1  0.60248678  0.28529041  0.89368588  1  -1.181002  0  -0.341364  -0.564181  0  2.339412  0
O  O173  1  0.39750889  0.71471157  0.10631225  1  -1.181049  0  -0.341314  -0.564128  0  2.339296  0
O  O174  1  0.73421886  0.42111353  0.88277050  1  -1.183656  0  -0.332461  -0.56674  0  2.112653  0
O  O175  1  0.26578528  0.57888998  0.11723484  1  -1.184126  0  -0.332456  -0.5668  0  2.112678  0
O  O176  1  0.37650276  0.86213204  0.62520134  1  -1.082152  0  -0.177455  -0.199982  0  2.579409  0
O  O177  1  0.62348985  0.13786852  0.37480159  1  -1.081855  0  -0.177395  -0.199852  0  2.579344  0
O  O178  1  0.67524678  0.15623988  0.66418949  1  -1.098668  0  -0.181331  -0.206626  0  2.571951  0
O  O179  1  0.32475665  0.84376054  0.33581124  1  -1.098585  0  -0.181421  -0.206733  0  2.571793  0
O  O180  1  0.53530693  0.70222371  0.87167528  1  -1.093947  0  -0.184828  -0.217702  0  2.576096  0
O  O181  1  0.46469701  0.29778123  0.12832372  1  -1.094009  0  -0.184855  -0.217797  0  2.576289  0
O  O182  1  0.24703650  0.41073512  0.86862396  1  -1.079164  0  -0.178125  -0.200674  0  2.551243  0
O  O183  1  0.75296342  0.58926374  0.13137012  1  -1.079127  0  -0.178051  -0.200675  0  2.55118  0
