# generated using pymatgen
data_CdH22C24S2(N2O3)2
_symmetry_space_group_name_H-M   'P 1'
_cell_length_a   5.58697587
_cell_length_b   14.16196061
_cell_length_c   15.16900000
_cell_angle_alpha   90.00000000
_cell_angle_beta   90.00000000
_cell_angle_gamma   94.48358107
_symmetry_Int_Tables_number   1
_chemical_formula_structural   CdH22C24S2(N2O3)2
_chemical_formula_sum   'Cd2 H44 C48 S4 N8 O12'
_cell_volume   1196.53678016
_cell_formula_units_Z   2
loop_
 _symmetry_equiv_pos_site_id
 _symmetry_equiv_pos_as_xyz
  1  'x, y, z'
loop_
 _atom_site_type_symbol
 _atom_site_label
 _atom_site_symmetry_multiplicity
 _atom_site_fract_x
 _atom_site_fract_y
 _atom_site_fract_z
 _atom_site_occupancy
 _atom_site_hle17_bader_spin_density
 _atom_site_hle17_ddec_charge
 _atom_site_hle17_ddec_spin_density
 _atom_site_hle17_ddec_sum_bond_order
 _atom_site_hle17_magmom
 _atom_site_hse06_10hf_bader_spin_density
 _atom_site_hse06_10hf_ddec_charge
 _atom_site_hse06_10hf_ddec_spin_density
 _atom_site_hse06_10hf_ddec_sum_bond_order
 _atom_site_hse06_10hf_magmom
 _atom_site_hse06_bader_spin_density
 _atom_site_hse06_ddec_charge
 _atom_site_hse06_ddec_spin_density
 _atom_site_hse06_ddec_sum_bond_order
 _atom_site_hse06_magmom
 _atom_site_pbe_bader_charge
 _atom_site_pbe_bader_spin_density
 _atom_site_pbe_cm5_charge
 _atom_site_pbe_ddec_charge
 _atom_site_pbe_ddec_spin_density
 _atom_site_pbe_ddec_sum_bond_order
 _atom_site_pbe_magmom
Cd  Cd0  1  0.50000844  0.50000064  0.49999802  1  0  1.150476  0  1.633519  0  0  0.963084  0  2.066159  0  0  1.01757  0  2.014097  0  1.284366  0  0.768307  0.924523  0  2.101668  0
Cd  Cd1  1  0.99998821  0.00000000  0.99999670  1  0  1.150522  0  1.633479  0  0  0.963129  0  2.066103  0  0  1.017607  0  2.014047  0  1.284447  0  0.768324  0.924566  0  2.10161  0
H  H2  1  0.89748318  0.40283748  0.63141077  1  0  0.101037  0  0.94925  0  0  0.110105  0  1.011585  0  0  0.113339  0  1.009162  0  0.136478  0  0.117999  0.107696  0  1.013514  0
H  H3  1  0.60251597  0.09716671  0.13140748  1  0  0.101025  0  0.949239  0  0  0.110126  0  1.011541  0  0  0.113372  0  1.009106  0  0.136584  0  0.118025  0.107719  0  1.013472  0
H  H4  1  0.10254873  0.59716735  0.36858198  1  0  0.100914  0  0.949251  0  0  0.11007  0  1.011518  0  0  0.11328  0  1.009126  0  0.136621  0  0.118  0.107664  0  1.013449  0
H  H5  1  0.39745410  0.90283316  0.86857868  1  0  0.100928  0  0.949222  0  0  0.110076  0  1.011498  0  0  0.113288  0  1.009108  0  0.136604  0  0.11799  0.107668  0  1.01343  0
H  H6  1  0.93527272  0.24296706  0.70724899  1  0  0.087435  0  0.987775  0  0  0.088631  0  1.061155  0  0  0.092707  0  1.057288  0  0.13671  0  0.111103  0.085664  0  1.06408  0
H  H7  1  0.56472506  0.25703925  0.20724504  1  0  0.087442  0  0.987749  0  0  0.088641  0  1.061157  0  0  0.092717  0  1.057293  0  0.136731  0  0.111103  0.085674  0  1.064083  0
H  H8  1  0.06475712  0.75703635  0.29274573  1  0  0.087541  0  0.987701  0  0  0.088753  0  1.061054  0  0  0.092829  0  1.057187  0  0.136594  0  0.11119  0.085786  0  1.063983  0
H  H9  1  0.43523785  0.74296062  0.79274441  1  0  0.087584  0  0.987607  0  0  0.088793  0  1.060968  0  0  0.092872  0  1.057098  0  0.136583  0  0.111191  0.085826  0  1.063894  0
H  H10  1  0.23321062  0.30024885  0.53186103  1  0  0.090889  0  0.982597  0  0  0.094951  0  1.05381  0  0  0.097632  0  1.052884  0  0.131226  0  0.114457  0.092994  0  1.054612  0
H  H11  1  0.26678143  0.19975037  0.03185180  1  0  0.090869  0  0.982649  0  0  0.094957  0  1.053825  0  0  0.097645  0  1.052888  0  0.131174  0  0.114446  0.092999  0  1.054627  0
H  H12  1  0.76682044  0.69975173  0.46813699  1  0  0.090962  0  0.982413  0  0  0.094987  0  1.053662  0  0  0.097674  0  1.052729  0  0.131235  0  0.114485  0.093028  0  1.054464  0
H  H13  1  0.73318822  0.80024737  0.96813831  1  0  0.09088  0  0.982473  0  0  0.094902  0  1.053744  0  0  0.097584  0  1.052818  0  0.1312  0  0.114429  0.092944  0  1.054544  0
H  H14  1  0.52614718  0.00226864  0.62275035  1  0  0.104848  0  0.940162  0  0  0.116723  0  1.005646  0  0  0.11836  0  1.004521  0  0.089369  0  0.101383  0.115616  0  1.006374  0
H  H15  1  0.97386365  0.49773130  0.12275035  1  0  0.104815  0  0.940154  0  0  0.116756  0  1.005612  0  0  0.118396  0  1.004464  0  0.089468  0  0.101375  0.115642  0  1.006358  0
H  H16  1  0.47385746  0.99773407  0.37726218  1  0  0.104913  0  0.940007  0  0  0.116793  0  1.005461  0  0  0.118422  0  1.004357  0  0.088922  0  0.101411  0.115682  0  1.006192  0
H  H17  1  0.02612568  0.50226645  0.87725888  1  0  0.104899  0  0.940168  0  0  0.116798  0  1.0056  0  0  0.118433  0  1.004466  0  0.08909  0  0.101404  0.11569  0  1.006326  0
H  H18  1  0.36330875  0.03792580  0.71618630  1  0  0.116241  0  0.92707  0  0  0.128749  0  0.989605  0  0  0.129856  0  0.988773  0  0.115349  0  0.105806  0.127943  0  0.990274  0
H  H19  1  0.13670145  0.46206564  0.21618564  1  0  0.116251  0  0.92707  0  0  0.128833  0  0.989522  0  0  0.129936  0  0.988689  0  0.115057  0  0.105838  0.128026  0  0.990189  0
H  H20  1  0.63668199  0.96207903  0.28382227  1  0  0.116008  0  0.927228  0  0  0.128608  0  0.989637  0  0  0.129712  0  0.98881  0  0.115558  0  0.105715  0.127801  0  0.990306  0
H  H21  1  0.86329943  0.53792715  0.78382227  1  0  0.116215  0  0.927122  0  0  0.128779  0  0.98954  0  0  0.12988  0  0.98871  0  0.115466  0  0.105784  0.12797  0  0.990209  0
H  H22  1  0.42881331  0.85190964  0.55942317  1  0  0.081286  0  0.991983  0  0  0.086631  0  1.065788  0  0  0.089264  0  1.065827  0  0.056282  0  0.090149  0.084792  0  1.065713  0
H  H23  1  0.07120191  0.64809017  0.05943108  1  0  0.081191  0  0.992135  0  0  0.086419  0  1.06606  0  0  0.089036  0  1.066156  0  0.0565  0  0.090099  0.084584  0  1.065995  0
H  H24  1  0.57118778  0.14810227  0.44057486  1  0  0.08121  0  0.99217  0  0  0.086515  0  1.066011  0  0  0.089143  0  1.066062  0  0.056324  0  0.090131  0.084683  0  1.06593  0
H  H25  1  0.92878093  0.35190191  0.94057420  1  0  0.081249  0  0.99216  0  0  0.086416  0  1.066147  0  0  0.089026  0  1.066262  0  0.05626  0  0.090105  0.084583  0  1.066079  0
H  H26  1  0.17471729  0.70016182  0.55422902  1  0  0.079135  0  0.996924  0  0  0.085879  0  1.067968  0  0  0.088151  0  1.067063  0  0.052156  0  0.096312  0.084199  0  1.068736  0
H  H27  1  0.32530108  0.79983586  0.05423429  1  0  0.079131  0  0.99671  0  0  0.085855  0  1.067821  0  0  0.088127  0  1.066914  0  0.051932  0  0.096299  0.084175  0  1.068589  0
H  H28  1  0.82530608  0.29984513  0.44576900  1  0  0.079184  0  0.996812  0  0  0.08593  0  1.067867  0  0  0.088203  0  1.066961  0  0.051845  0  0.096294  0.08425  0  1.068635  0
H  H29  1  0.67467488  0.20015764  0.94576505  1  0  0.079174  0  0.996759  0  0  0.085934  0  1.067814  0  0  0.088206  0  1.066907  0  0.051991  0  0.096304  0.084254  0  1.068582  0
H  H30  1  0.65336411  0.81977123  0.71982662  1  0  0.088065  0  0.979018  0  0  0.100611  0  1.039576  0  0  0.102874  0  1.038744  0  0.053195  0  0.100391  0.098971  0  1.040233  0
H  H31  1  0.84666613  0.68021937  0.21982266  1  0  0.088052  0  0.978902  0  0  0.100619  0  1.039472  0  0  0.102884  0  1.038635  0  0.052979  0  0.100347  0.098976  0  1.040135  0
H  H32  1  0.34666018  0.18022226  0.28018129  1  0  0.088001  0  0.978893  0  0  0.100635  0  1.03938  0  0  0.102905  0  1.038535  0  0.053118  0  0.100338  0.098987  0  1.040054  0
H  H33  1  0.15332928  0.31978192  0.78017272  1  0  0.088155  0  0.978847  0  0  0.100725  0  1.039396  0  0  0.10299  0  1.038562  0  0.052897  0  0.100374  0.099082  0  1.040057  0
H  H34  1  0.90737531  0.97137101  0.72602479  1  0  0.110745  0  0.944356  0  0  0.121708  0  1.003833  0  0  0.125115  0  1.002005  0  0.104296  0  0.103797  0.119207  0  1.005325  0
H  H35  1  0.59265356  0.52862171  0.22602545  1  0  0.110638  0  0.944576  0  0  0.121781  0  1.00385  0  0  0.125186  0  1.002026  0  0.104435  0  0.10386  0.119282  0  1.005346  0
H  H36  1  0.09262792  0.02862461  0.27398510  1  0  0.110651  0  0.944519  0  0  0.121652  0  1.003944  0  0  0.125061  0  1.002116  0  0.104169  0  0.103799  0.119157  0  1.005436  0
H  H37  1  0.40735395  0.47137745  0.77397917  1  0  0.110589  0  0.944504  0  0  0.12173  0  1.003796  0  0  0.125133  0  1.001975  0  0.104187  0  0.103826  0.119227  0  1.005295  0
H  H38  1  0.65781419  0.42735687  0.35176215  1  0  0.414043  0  0.898422  0  0  0.379958  0  0.968213  0  0  0.392359  0  0.950275  0  0.633332  0  0.279588  0.371222  0  0.980812  0
H  H39  1  0.84218411  0.07264307  0.85176149  1  0  0.414078  0  0.898391  0  0  0.380002  0  0.968165  0  0  0.392401  0  0.950229  0  0.633275  0  0.2796  0.371265  0  0.980767  0
H  H40  1  0.34219705  0.57264300  0.64823719  1  0  0.414095  0  0.898329  0  0  0.379966  0  0.968192  0  0  0.392366  0  0.950257  0  0.633312  0  0.27958  0.371231  0  0.980787  0
H  H41  1  0.15780083  0.92735964  0.14823654  1  0  0.414075  0  0.898375  0  0  0.379969  0  0.9682  0  0  0.392369  0  0.950262  0  0.633327  0  0.279575  0.371234  0  0.980794  0
H  H42  1  0.91663380  0.44554774  0.39983123  1  0  0.419212  0  0.887686  0  0  0.387675  0  0.952764  0  0  0.398641  0  0.936983  0  0.650099  0  0.281449  0.379907  0  0.963929  0
H  H43  1  0.58336121  0.05445362  0.89982860  1  0  0.419337  0  0.887537  0  0  0.387763  0  0.95266  0  0  0.39873  0  0.936875  0  0.650093  0  0.281497  0.379996  0  0.963823  0
H  H44  1  0.08337965  0.55445426  0.60016547  1  0  0.419207  0  0.887711  0  0  0.387691  0  0.95276  0  0  0.398662  0  0.936969  0  0.650122  0  0.281488  0.379922  0  0.963926  0
H  H45  1  0.41661753  0.94554484  0.10016547  1  0  0.419219  0  0.887694  0  0  0.387691  0  0.952763  0  0  0.398661  0  0.936975  0  0.650141  0  0.281478  0.379922  0  0.96393  0
C  C46  1  0.76036133  0.34403783  0.62538467  1  0  0.042594  0  3.682493  0  0  0.009735  0  3.942379  0  0  0.012215  0  3.959971  0  0.46076  0  0.034301  0.007925  0  3.930669  0
C  C47  1  0.73963560  0.15596423  0.12538137  1  0  0.04256  0  3.682335  0  0  0.009678  0  3.942263  0  0  0.012147  0  3.959854  0  0.460607  0  0.034244  0.007865  0  3.930557  0
C  C48  1  0.23967387  0.65596558  0.37460940  1  0  0.042698  0  3.682258  0  0  0.009767  0  3.94216  0  0  0.012258  0  3.959769  0  0.460529  0  0.034347  0.007953  0  3.930457  0
C  C49  1  0.26033047  0.84403351  0.87460742  1  0  0.042691  0  3.682217  0  0  0.009777  0  3.942115  0  0  0.012263  0  3.959725  0  0.460046  0  0.034376  0.007962  0  3.930413  0
C  C50  1  0.78281731  0.25667449  0.66546839  1  0  0.084238  0  3.718021  0  0  0.059477  0  3.986099  0  0  0.061915  0  4.002351  0  0.463368  0  0.050908  0.05775  0  3.975227  0
C  C51  1  0.71718555  0.24333041  0.16546509  1  0  0.084376  0  3.717806  0  0  0.059597  0  3.985916  0  0  0.062034  0  4.00217  0  0.463529  0  0.05104  0.057868  0  3.975046  0
C  C52  1  0.21719834  0.74332963  0.33452634  1  0  0.084312  0  3.71736  0  0  0.059515  0  3.985506  0  0  0.061957  0  4.00174  0  0.46395  0  0.050993  0.057784  0  3.974647  0
C  C53  1  0.28279154  0.75666875  0.83452700  1  0  0.084303  0  3.717415  0  0  0.059513  0  3.985564  0  0  0.061953  0  4.001801  0  0.464436  0  0.050974  0.057783  0  3.9747  0
C  C54  1  0.39379841  0.28679924  0.56907443  1  0  0.035343  0  3.663592  0  0  0.002941  0  3.912809  0  0  0.004437  0  3.930403  0  0.463941  0  0.045761  0.001878  0  3.901089  0
C  C55  1  0.10620715  0.21320495  0.06906784  1  0  0.035213  0  3.663699  0  0  0.002826  0  3.912844  0  0  0.004317  0  3.930439  0  0.463788  0  0.045718  0.001765  0  3.901122  0
C  C56  1  0.60621545  0.71320488  0.43092359  1  0  0.035027  0  3.663982  0  0  0.00268  0  3.913171  0  0  0.004173  0  3.930768  0  0.463894  0  0.045699  0.00162  0  3.901449  0
C  C57  1  0.89378288  0.78679634  0.93092491  1  0  0.03515  0  3.663848  0  0  0.002784  0  3.913069  0  0  0.00428  0  3.930661  0  0.463944  0  0.04571  0.001723  0  3.901344  0
C  C58  1  0.42640313  0.19727775  0.60601490  1  0  0.137088  0  3.809517  0  0  0.144447  0  4.076711  0  0  0.152025  0  4.093056  0  0.46065  0  0.123868  0.138971  0  4.065714  0
C  C59  1  0.07359693  0.30272572  0.10601028  1  0  0.137288  0  3.809452  0  0  0.144637  0  4.076643  0  0  0.152216  0  4.092987  0  0.460209  0  0.12394  0.139161  0  4.065645  0
C  C60  1  0.57361748  0.80272424  0.39398642  1  0  0.137459  0  3.809419  0  0  0.144796  0  4.076592  0  0  0.152372  0  4.09294  0  0.460896  0  0.123991  0.139318  0  4.065599  0
C  C61  1  0.92638016  0.69727344  0.89398642  1  0  0.137434  0  3.809369  0  0  0.144803  0  4.076522  0  0  0.152382  0  4.092866  0  0.46097  0  0.124054  0.139326  0  4.065525  0
C  C62  1  0.34574341  0.01122772  0.64834201  1  0  -0.185323  0  3.673345  0  0  -0.22548  0  3.925909  0  0  -0.223927  0  3.934475  0  -0.122861  0  -0.13834  -0.226493  0  3.919895  0
C  C63  1  0.15426626  0.48877009  0.14834465  1  0  -0.185354  0  3.673165  0  0  -0.225666  0  3.925834  0  0  -0.224087  0  3.934371  0  -0.122941  0  -0.138402  -0.226672  0  3.919802  0
C  C64  1  0.65425779  0.98877569  0.35166590  1  0  -0.185213  0  3.673122  0  0  -0.22537  0  3.925624  0  0  -0.223816  0  3.934182  0  -0.1229  0  -0.138267  -0.226375  0  3.919601  0
C  C65  1  0.84572444  0.51122553  0.85166392  1  0  -0.185489  0  3.67356  0  0  -0.225628  0  3.926014  0  0  -0.224046  0  3.934538  0  -0.122943  0  -0.138341  -0.226631  0  3.919984  0
C  C66  1  0.18630852  0.92126414  0.64321181  1  0  0.106765  0  3.764627  0  0  0.126435  0  4.000824  0  0  0.128305  0  4.023415  0  -0.013123  0  -0.011847  0.125298  0  3.985401  0
C  C67  1  0.31371151  0.57873283  0.14321709  1  0  0.10693  0  3.764457  0  0  0.126634  0  4.000657  0  0  0.128497  0  4.023246  0  -0.01298  0  -0.011884  0.125498  0  3.985231  0
C  C68  1  0.81369998  0.07873998  0.35679412  1  0  0.106844  0  3.764561  0  0  0.126479  0  4.000794  0  0  0.128347  0  4.023386  0  -0.012669  0  -0.01188  0.12534  0  3.985374  0
C  C69  1  0.68627590  0.42126420  0.85678819  1  0  0.106962  0  3.764631  0  0  0.126613  0  4.000819  0  0  0.128477  0  4.023401  0  -0.012599  0  -0.011864  0.125476  0  3.985395  0
C  C70  1  0.25804347  0.84452365  0.59451249  1  0  -0.117794  0  3.733417  0  0  -0.136272  0  3.981535  0  0  -0.140517  0  4.002845  0  -0.042468  0  -0.095389  -0.133451  0  3.967127  0
C  C71  1  0.24197297  0.65547332  0.09451974  1  0  -0.117766  0  3.733639  0  0  -0.136166  0  3.981789  0  0  -0.140414  0  4.003089  0  -0.042319  0  -0.095303  -0.133357  0  3.967367  0
C  C72  1  0.74195801  0.15548118  0.40548685  1  0  -0.117618  0  3.733521  0  0  -0.136054  0  3.98161  0  0  -0.140295  0  4.002916  0  -0.042484  0  -0.09532  -0.133241  0  3.967192  0
C  C73  1  0.75802282  0.34452088  0.90548487  1  0  -0.117735  0  3.733397  0  0  -0.136068  0  3.981511  0  0  -0.140318  0  4.002807  0  -0.042202  0  -0.095298  -0.133262  0  3.967093  0
C  C74  1  0.11584642  0.75930782  0.59196190  1  0  -0.059377  0  3.750343  0  0  -0.08348  0  4.000561  0  0  -0.082361  0  4.021482  0  -0.01  0  -0.090989  -0.084015  0  3.986419  0
C  C75  1  0.38417167  0.74068844  0.09196651  1  0  -0.059278  0  3.749947  0  0  -0.083348  0  4.000091  0  0  -0.082226  0  4.021009  0  -0.010029  0  -0.090974  -0.083879  0  3.985943  0
C  C76  1  0.88417102  0.24069630  0.40803876  1  0  -0.059461  0  3.749823  0  0  -0.083561  0  4.000014  0  0  -0.08244  0  4.02093  0  -0.009582  0  -0.090947  -0.084092  0  3.985869  0
C  C77  1  0.61581475  0.25930364  0.90803349  1  0  -0.059441  0  3.749745  0  0  -0.083545  0  3.999894  0  0  -0.082424  0  4.020809  0  -0.01009  0  -0.09099  -0.084077  0  3.985752  0
C  C78  1  0.89816303  0.74886063  0.63807304  1  0  -0.08934  0  3.766913  0  0  -0.066742  0  4.00423  0  0  -0.076246  0  4.028401  0  0.014235  0  -0.027552  -0.060611  0  3.98799  0
C  C79  1  0.60186061  0.75113280  0.13807173  1  0  -0.089303  0  3.76673  0  0  -0.066742  0  4.004095  0  0  -0.076247  0  4.028264  0  0.014195  0  -0.027546  -0.060609  0  3.987851  0
C  C80  1  0.10186196  0.25113641  0.36193421  1  0  -0.089274  0  3.766605  0  0  -0.0667  0  4.003981  0  0  -0.076204  0  4.028155  0  0.014503  0  -0.027563  -0.060566  0  3.987732  0
C  C81  1  0.39811964  0.24886423  0.86192893  1  0  -0.08919  0  3.766502  0  0  -0.066605  0  4.003867  0  0  -0.076108  0  4.028034  0  0.014373  0  -0.02744  -0.060473  0  3.987625  0
C  C82  1  0.82468866  0.82667771  0.68556991  1  0  -0.060208  0  3.750871  0  0  -0.086011  0  4.002212  0  0  -0.085441  0  4.024246  0  -0.085207  0  -0.087503  -0.086147  0  3.987205  0
C  C83  1  0.67534902  0.67331430  0.18556596  1  0  -0.060009  0  3.750576  0  0  -0.085847  0  4.001989  0  0  -0.085273  0  4.024019  0  -0.085316  0  -0.087354  -0.085984  0  3.986983  0
C  C84  1  0.17533441  0.17331862  0.31444261  1  0  -0.059957  0  3.750751  0  0  -0.085822  0  4.002053  0  0  -0.085252  0  4.024087  0  -0.085871  0  -0.087402  -0.085958  0  3.987046  0
C  C85  1  0.32464087  0.32668628  0.81443734  1  0  -0.060151  0  3.750788  0  0  -0.086009  0  4.002227  0  0  -0.085438  0  4.024254  0  -0.085372  0  -0.087391  -0.086145  0  3.987221  0
C  C86  1  0.96617951  0.91181633  0.68826159  1  0  -0.126684  0  3.722035  0  0  -0.145388  0  3.972276  0  0  -0.149639  0  3.993137  0  -0.042282  0  -0.09409  -0.142558  0  3.958134  0
C  C87  1  0.53384371  0.58817497  0.18826159  1  0  -0.126862  0  3.722091  0  0  -0.145714  0  3.972387  0  0  -0.149964  0  3.993253  0  -0.042108  0  -0.094212  -0.142889  0  3.958248  0
C  C88  1  0.03383653  0.08818070  0.31174764  1  0  -0.126896  0  3.722155  0  0  -0.14563  0  3.972444  0  0  -0.149881  0  3.993301  0  -0.041928  0  -0.094176  -0.14281  0  3.958312  0
C  C89  1  0.46614879  0.41182065  0.81174632  1  0  -0.126853  0  3.722335  0  0  -0.145697  0  3.97263  0  0  -0.149943  0  3.993492  0  -0.042153  0  -0.094255  -0.142869  0  3.958488  0
C  C90  1  0.74104377  0.65771929  0.63509658  1  0  0.641586  0  3.898785  0  0  0.586786  0  4.198068  0  0  0.621293  0  4.190152  0  1.530947  0  0.205788  0.563423  0  4.20271  0
C  C91  1  0.75897149  0.84227697  0.13509724  1  0  0.641215  0  3.898932  0  0  0.586437  0  4.198189  0  0  0.620941  0  4.190279  0  1.530622  0  0.205587  0.563075  0  4.202826  0
C  C92  1  0.25896954  0.34228199  0.36490804  1  0  0.641296  0  3.898843  0  0  0.586477  0  4.198164  0  0  0.62098  0  4.190256  0  1.529928  0  0.205638  0.563116  0  4.202799  0
C  C93  1  0.24101606  0.15772078  0.86490276  1  0  0.641342  0  3.898496  0  0  0.586548  0  4.197785  0  0  0.62105  0  4.189875  0  1.529413  0  0.205599  0.563188  0  4.202423  0
S  S94  1  0.21565481  0.10268212  0.58336014  1  0  0.029978  0  2.340257  0  0  0.032304  0  2.665441  0  0  0.022628  0  2.670711  0  0.129839  0  0.047816  0.039175  0  2.662048  0
S  S95  1  0.28435570  0.39731994  0.08335685  1  0  0.029922  0  2.34012  0  0  0.032283  0  2.665376  0  0  0.022601  0  2.67064  0  0.129761  0  0.047808  0.039159  0  2.661976  0
S  S96  1  0.78436428  0.89732129  0.41664184  1  0  0.029829  0  2.34012  0  0  0.032125  0  2.665331  0  0  0.022449  0  2.6706  0  0.129633  0  0.047732  0.039015  0  2.661907  0
S  S97  1  0.71562854  0.60267922  0.91664447  1  0  0.029896  0  2.340306  0  0  0.032207  0  2.665465  0  0  0.022523  0  2.670726  0  0.129717  0  0.047745  0.039084  0  2.662058  0
N  N98  1  0.56291707  0.35814119  0.57722394  1  0  -0.28122  0  3.269421  0  0  -0.204644  0  3.529914  0  0  -0.219915  0  3.548892  0  -1.203107  0  -0.314753  -0.193943  0  3.51678  0
N  N99  1  0.93707807  0.14186087  0.07722197  1  0  -0.281131  0  3.269388  0  0  -0.204561  0  3.529886  0  0  -0.219836  0  3.548876  0  -1.202393  0  -0.314695  -0.193858  0  3.51675  0
N  N100  1  0.43710932  0.64186293  0.42277012  1  0  -0.281132  0  3.269846  0  0  -0.204557  0  3.530339  0  0  -0.219826  0  3.549313  0  -1.203261  0  -0.314836  -0.193854  0  3.517204  0
N  N101  1  0.06289350  0.85813758  0.92277144  1  0  -0.281183  0  3.269813  0  0  -0.204597  0  3.5303  0  0  -0.219867  0  3.549277  0  -1.203204  0  -0.314824  -0.193896  0  3.517165  0
N  N102  1  0.61921803  0.18323389  0.65531545  1  0  -0.283913  0  3.06325  0  0  -0.254899  0  3.330198  0  0  -0.262558  0  3.34365  0  -1.162982  0  -0.299102  -0.249382  0  3.32102  0
N  N103  1  0.88078785  0.31676817  0.15531149  1  0  -0.284093  0  3.063218  0  0  -0.255096  0  3.330212  0  0  -0.262758  0  3.343662  0  -1.163106  0  -0.299265  -0.249578  0  3.321037  0
N  N104  1  0.38081251  0.81677306  0.34468521  1  0  -0.284152  0  3.062841  0  0  -0.255134  0  3.329822  0  0  -0.26279  0  3.343268  0  -1.163265  0  -0.299287  -0.249619  0  3.320653  0
N  N105  1  0.11918688  0.68322816  0.84468389  1  0  -0.284196  0  3.062985  0  0  -0.255205  0  3.329984  0  0  -0.262864  0  3.343431  0  -1.163348  0  -0.299347  -0.24969  0  3.320812  0
O  O106  1  0.80441374  0.59196713  0.58219856  1  0  -0.698083  0  2.01781  0  0  -0.619617  0  2.260236  0  0  -0.648165  0  2.246922  0  -1.202202  0  -0.340425  -0.599493  0  2.268573  0
O  O107  1  0.69558870  0.90802772  0.08220186  1  0  -0.697995  0  2.01798  0  0  -0.619506  0  2.260368  0  0  -0.648029  0  2.24702  0  -1.202024  0  -0.340387  -0.59938  0  2.268702  0
O  O108  1  0.19559391  0.40803274  0.41779946  1  0  -0.697946  0  2.017928  0  0  -0.619452  0  2.260346  0  0  -0.647986  0  2.247028  0  -1.202237  0  -0.340383  -0.59933  0  2.268683  0
O  O109  1  0.30439663  0.09196790  0.91779616  1  0  -0.698048  0  2.017898  0  0  -0.619558  0  2.260318  0  0  -0.648077  0  2.246965  0  -1.202072  0  -0.340409  -0.599434  0  2.268652  0
O  O110  1  0.76573098  0.47561724  0.38531611  1  0  -0.846352  0  1.855199  0  0  -0.78231  0  2.050791  0  0  -0.806312  0  2.016257  0  -1.269517  0  -0.59279  -0.765239  0  2.074631  0
O  O111  1  0.73426374  0.02438269  0.88531545  1  0  -0.846531  0  1.8551  0  0  -0.782446  0  2.050747  0  0  -0.806451  0  2.016216  0  -1.269412  0  -0.592849  -0.765377  0  2.074586  0
O  O112  1  0.23428067  0.52438475  0.61467796  1  0  -0.846351  0  1.855142  0  0  -0.782286  0  2.050748  0  0  -0.806295  0  2.01621  0  -1.26954  0  -0.592798  -0.765213  0  2.074586  0
O  O113  1  0.26571678  0.97561576  0.11467598  1  0  -0.846387  0  1.855157  0  0  -0.782336  0  2.050753  0  0  -0.806348  0  2.01622  0  -1.269628  0  -0.592799  -0.765262  0  2.074591  0
O  O114  1  0.55378694  0.65054791  0.68178390  1  0  -0.597519  0  1.987721  0  0  -0.540523  0  2.213312  0  0  -0.564897  0  2.204856  0  -1.170601  0  -0.302246  -0.523639  0  2.218684  0
O  O115  1  0.94622694  0.84945047  0.18178324  1  0  -0.59728  0  1.987562  0  0  -0.5403  0  2.213156  0  0  -0.564677  0  2.204705  0  -1.170436  0  -0.302116  -0.523418  0  2.218527  0
O  O116  1  0.44622759  0.34945054  0.31821874  1  0  -0.597346  0  1.987659  0  0  -0.540378  0  2.213284  0  0  -0.564755  0  2.20484  0  -1.169617  0  -0.302123  -0.523491  0  2.218648  0
O  O117  1  0.05375909  0.15054869  0.81821544  1  0  -0.597326  0  1.987351  0  0  -0.540352  0  2.212941  0  0  -0.564729  0  2.204491  0  -1.169407  0  -0.302128  -0.523469  0  2.218307  0
