# generated using pymatgen
data_CuH8C6(SN2)2
_symmetry_space_group_name_H-M   'P 1'
_cell_length_a   9.33447359
_cell_length_b   9.59987718
_cell_length_c   11.85845301
_cell_angle_alpha   96.78985471
_cell_angle_beta   96.18406132
_cell_angle_gamma   107.35593793
_symmetry_Int_Tables_number   1
_chemical_formula_structural   CuH8C6(SN2)2
_chemical_formula_sum   'Cu4 H32 C24 S8 N16'
_cell_volume   995.61029648
_cell_formula_units_Z   4
loop_
 _symmetry_equiv_pos_site_id
 _symmetry_equiv_pos_as_xyz
  1  'x, y, z'
loop_
 _atom_site_type_symbol
 _atom_site_label
 _atom_site_symmetry_multiplicity
 _atom_site_fract_x
 _atom_site_fract_y
 _atom_site_fract_z
 _atom_site_occupancy
 _atom_site_hle17_ddec_charge
 _atom_site_hle17_ddec_spin_density
 _atom_site_hle17_ddec_sum_bond_order
 _atom_site_hle17_magmom
 _atom_site_hse06_10hf_ddec_charge
 _atom_site_hse06_10hf_ddec_spin_density
 _atom_site_hse06_10hf_ddec_sum_bond_order
 _atom_site_hse06_10hf_magmom
 _atom_site_hse06_ddec_charge
 _atom_site_hse06_ddec_spin_density
 _atom_site_hse06_ddec_sum_bond_order
 _atom_site_hse06_magmom
 _atom_site_pbe_cm5_charge
 _atom_site_pbe_ddec_charge
 _atom_site_pbe_ddec_spin_density
 _atom_site_pbe_ddec_sum_bond_order
 _atom_site_pbe_magmom
Cu  Cu0  1  0.22898349  0.87067312  0.87148811  1  0.334238  -0.380169  2.499642  -0.255  0.306113  -0.473293  2.97505  -0.341  0.353145  -0.543076  2.923232  -0.407  0.411739  0.287172  -0.437826  3.004728  -0.309
Cu  Cu1  1  0.77102704  0.12932372  0.12850513  1  0.334109  -0.38016  2.499617  -0.255  0.306001  -0.473309  2.975036  -0.341  0.352964  -0.543045  2.923217  -0.407  0.411694  0.287058  -0.437838  3.004706  -0.309
Cu  Cu2  1  0.99999755  0.99999914  0.50000176  1  0.776939  -0.719933  1.848133  -0.486  0.753545  -0.817323  2.230549  -0.592  0.822489  -0.875646  2.179839  -0.663  0.741392  0.712232  -0.776824  2.264752  -0.548
Cu  Cu3  1  0.49999801  0.49999850  0.00000033  1  0.768283  -0.693427  1.825766  -0.468  0.745873  -0.802354  2.203474  -0.58  0.816534  -0.863201  2.151829  -0.652  0.735129  0.707268  -0.762003  2.236714  -0.537
H  H4  1  0.18381455  0.84777878  0.48703263  1  0.297454  0.000671  0.93938  0.001  0.285248  -0.000375  1.002476  0.0  0.291874  -3.3e-05  0.998287  0.0  0.28377  0.28099  -0.000718  1.005075  0.0
H  H5  1  0.81617771  0.15221807  0.51296756  1  0.297538  0.000668  0.939262  0.001  0.285242  -0.000375  1.00247  0.0  0.29187  -3.3e-05  0.998278  0.0  0.283754  0.280986  -0.000718  1.005071  0.0
H  H6  1  0.15619927  0.88122772  0.62235990  1  0.266269  0.002173  0.957943  0.002  0.250278  0.00051  1.036042  0.001  0.255329  0.000918  1.035193  0.001  0.271114  0.24668  0.00013  1.036844  0.0
H  H7  1  0.84379766  0.11877024  0.37763993  1  0.266348  0.002171  0.95785  0.002  0.250337  0.00051  1.035925  0.001  0.255386  0.000917  1.035082  0.001  0.271131  0.24674  0.00013  1.036728  0.0
H  H8  1  0.77483986  0.83262312  0.34651190  1  0.273654  -0.00036  0.950067  0.002  0.262735  -0.00194  1.0169  0.0  0.268376  -0.001404  1.015329  0.0  0.270804  0.258943  -0.002412  1.018107  0.0
H  H9  1  0.22516244  0.16737483  0.65348584  1  0.273646  -0.000347  0.950075  0.002  0.262731  -0.00194  1.016915  0.0  0.268369  -0.001404  1.015342  0.0  0.270802  0.258935  -0.002411  1.018119  0.0
H  H10  1  0.73862111  0.80311976  0.47703801  1  0.295205  0.000942  0.926654  0.001  0.284877  -0.000339  0.987365  0.0  0.290659  1.5e-05  0.984534  0.0  0.287935  0.280831  -0.000681  0.989657  0.0
H  H11  1  0.26137113  0.19688041  0.52295828  1  0.295182  0.000949  0.92667  0.001  0.284864  -0.00034  0.987374  0.0  0.290645  1.4e-05  0.984536  0.0  0.287919  0.280812  -0.000681  0.989663  0.0
H  H12  1  0.48871856  0.75596016  0.07282296  1  0.267837  0.00172  0.960641  0.001  0.257381  5.8e-05  1.027348  0.0  0.263695  0.000418  1.024729  0.0  0.262975  0.253534  -0.000244  1.028766  0.0
H  H13  1  0.51127660  0.24403891  0.92718273  1  0.267855  0.001717  0.960662  0.001  0.257405  5.8e-05  1.027308  0.0  0.263717  0.000417  1.024698  0.0  0.262976  0.253558  -0.000244  1.028724  0.0
H  H14  1  0.34454174  0.67850569  0.96790259  1  0.266928  0.002218  0.948723  0.002  0.252083  0.000421  1.025971  0.0  0.258735  0.000815  1.021717  0.001  0.268933  0.246844  -6.5e-05  1.030479  0.0
H  H15  1  0.65545377  0.32149448  0.03210240  1  0.266904  0.002217  0.948685  0.002  0.25208  0.00042  1.025869  0.0  0.258735  0.000815  1.02161  0.001  0.268912  0.246839  -6.6e-05  1.030375  0.0
H  H16  1  0.51081716  0.39885421  0.18910025  1  0.273299  -0.000206  0.955018  0.002  0.263508  -0.001997  1.019658  0.0  0.269251  -0.001406  1.017716  0.0  0.270989  0.259626  -0.002963  1.021096  0.0
H  H17  1  0.48918232  0.60115148  0.81090728  1  0.273279  -0.000206  0.955044  0.002  0.263456  -0.001997  1.019675  0.0  0.269215  -0.001406  1.017728  0.0  0.270999  0.259572  -0.002963  1.021116  0.0
H  H18  1  0.33458428  0.32975120  0.12120786  1  0.281101  0.000667  0.912891  0.001  0.271652  -0.001271  0.977539  0.0  0.277233  -0.000786  0.97564  0.0  0.28362  0.268067  -0.00248  0.978605  -0.001
H  H19  1  0.66541843  0.67025117  0.87879962  1  0.281072  0.000657  0.912895  0.001  0.271574  -0.001272  0.977586  0.0  0.277156  -0.000787  0.975688  0.0  0.283605  0.267986  -0.002481  0.978653  -0.001
H  H20  1  0.03687358  0.61503495  0.52041909  1  0.056419  -0.003584  0.940215  -0.003  0.074052  -0.002804  0.999211  -0.002  0.073788  -0.00208  0.999986  -0.002  0.098142  0.073295  -0.002856  1.000739  -0.003
H  H21  1  0.96311801  0.38496301  0.47958874  1  0.056438  -0.003572  0.94011  -0.003  0.0741  -0.002804  0.99911  -0.002  0.073834  -0.002079  0.999881  -0.002  0.098155  0.073334  -0.002856  1.000645  -0.003
H  H22  1  0.92655106  0.70105925  0.60015921  1  0.073606  7.2e-05  0.91534  0.0  0.090728  6e-05  0.975811  0.0  0.09087  9.2e-05  0.97601  0.0  0.10589  0.09057  2.4e-05  0.975754  0.0
H  H23  1  0.07344410  0.29894313  0.39984596  1  0.073605  9e-05  0.915203  0.0  0.090757  6.2e-05  0.975668  0.0  0.090896  9.1e-05  0.975864  0.0  0.105886  0.090593  2.4e-05  0.975604  0.0
H  H24  1  0.93066519  0.68473372  0.33990504  1  0.067856  0.000244  0.914489  0.0  0.087127  0.000242  0.968687  0.0  0.086324  0.000207  0.970318  0.0  0.10383  0.087451  0.000254  0.967901  0.0
H  H25  1  0.06932745  0.31525760  0.66009717  1  0.06784  0.000227  0.914405  0.0  0.087162  0.000242  0.968542  0.0  0.086363  0.000207  0.970169  0.0  0.103861  0.087489  0.000253  0.967758  0.0
H  H26  1  0.77904339  0.58476921  0.40621566  1  0.064448  -0.003642  0.934151  -0.004  0.076063  -0.002797  1.000871  -0.003  0.076152  -0.002097  1.000888  -0.002  0.09572  0.075751  -0.003396  1.001545  -0.003
H  H27  1  0.22094783  0.41523096  0.59379151  1  0.064435  -0.003651  0.934368  -0.004  0.076032  -0.002797  1.001099  -0.003  0.076119  -0.002096  1.001113  -0.002  0.095676  0.075717  -0.003395  1.001775  -0.003
H  H28  1  0.19565785  0.53802688  0.08401636  1  0.057598  -0.000349  0.972148  0.0  0.073295  -0.000593  1.036434  0.0  0.073332  -0.000545  1.037578  0.0  0.090042  0.073758  -0.000665  1.034711  0.0
H  H29  1  0.80433839  0.46197218  0.91598858  1  0.057581  -0.000342  0.972039  0.0  0.073249  -0.000592  1.036403  0.0  0.073288  -0.000545  1.037541  0.0  0.089993  0.073712  -0.000665  1.034685  0.0
H  H30  1  0.28265647  0.71251946  0.17223092  1  0.06459  -0.002888  0.942913  -0.004  0.079275  -0.00222  1.006602  -0.003  0.077915  -0.00159  1.008972  -0.002  0.09688  0.080103  -0.002788  1.005484  -0.003
H  H31  1  0.71733258  0.28747739  0.82777238  1  0.064533  -0.002888  0.942962  -0.004  0.079247  -0.002219  1.006652  -0.003  0.077886  -0.001589  1.009021  -0.002  0.096879  0.080076  -0.002788  1.005536  -0.003
H  H32  1  0.30965800  0.49968084  0.27363807  1  0.071063  -0.003196  0.911373  -0.004  0.088827  -0.002617  0.967143  -0.003  0.088588  -0.001944  0.967621  -0.002  0.10513  0.088912  -0.003065  0.966903  -0.003
H  H33  1  0.69033462  0.50031712  0.72636225  1  0.071052  -0.003214  0.911396  -0.004  0.08883  -0.002617  0.967212  -0.003  0.088593  -0.001943  0.967684  -0.002  0.105154  0.088909  -0.003065  0.966969  -0.003
H  H34  1  0.48792992  0.62381094  0.25839764  1  0.072625  -0.000666  0.918231  0.0  0.089353  -0.000868  0.977662  0.0  0.08926  -0.000753  0.978428  0.0  0.104624  0.089151  -0.000984  0.977683  0.0
H  H35  1  0.51206454  0.37619255  0.74161180  1  0.072544  -0.00068  0.918325  0.0  0.089327  -0.000869  0.977767  0.0  0.089217  -0.000752  0.978551  0.0  0.104586  0.089125  -0.000984  0.977773  0.0
C  C36  1  0.56583475  0.06192015  0.64762113  1  0.295007  -0.000502  3.780944  -0.001  0.277259  -0.00107  4.056602  0.0  0.288849  -0.000602  4.072209  -0.001  0.184458  0.269506  -0.001484  4.046086  -0.001
C  C37  1  0.43417616  0.93808443  0.35237710  1  0.295018  -0.000458  3.780741  0.0  0.277277  -0.001079  4.056391  0.0  0.288867  -0.0006  4.072007  -0.001  0.184365  0.269524  -0.001483  4.045879  -0.001
C  C38  1  0.45519211  0.96990784  0.70168698  1  -0.02714  0.012205  3.907782  0.011  -0.017001  0.003947  4.166793  0.005  -0.014186  0.008176  4.183022  0.008  -0.018221  -0.018664  0.001015  4.155627  0.004
C  C39  1  0.54480949  0.03008791  0.29831386  1  -0.027191  0.012145  3.907578  0.011  -0.017028  0.00396  4.166537  0.005  -0.014225  0.008173  4.182771  0.008  -0.018263  -0.018693  0.001013  4.155381  0.004
C  C40  1  0.42681391  0.81804510  0.68671337  1  -0.013724  -0.013629  3.915471  -0.01  -0.005578  -0.011069  4.175279  -0.008  -0.000452  -0.010084  4.190001  -0.007  -0.014719  -0.008467  -0.012643  4.165003  -0.009
C  C41  1  0.57319947  0.18195727  0.31327558  1  -0.013689  -0.013624  3.915349  -0.01  -0.005544  -0.011069  4.175156  -0.008  -0.00041  -0.010084  4.189877  -0.007  -0.014663  -0.008436  -0.012641  4.164884  -0.009
C  C42  1  0.50918187  0.75098655  0.61684596  1  0.28245  0.004917  3.785715  0.005  0.265601  7.7e-05  4.061147  0.001  0.276425  0.001973  4.074823  0.002  0.178585  0.258215  -0.001472  4.051514  0.001
C  C43  1  0.49082363  0.24900809  0.38314581  1  0.282412  0.004875  3.785314  0.005  0.265567  6.9e-05  4.060759  0.001  0.276386  0.001973  4.074438  0.002  0.17852  0.258182  -0.001472  4.051126  0.001
C  C44  1  0.87151732  0.72333433  0.08886616  1  0.282529  0.005886  3.782224  0.005  0.273792  0.001457  4.056642  0.002  0.288709  0.00259  4.06823  0.002  0.174817  0.263275  0.000444  4.049924  0.002
C  C45  1  0.12849785  0.27668021  0.91112664  1  0.282825  0.005975  3.782701  0.005  0.274079  0.001452  4.057157  0.002  0.288993  0.002593  4.068746  0.002  0.174995  0.263556  0.000443  4.050433  0.002
C  C46  1  0.00071856  0.79509179  0.04095946  1  -0.02396  -0.008052  3.92045  -0.006  -0.014987  -0.005491  4.180721  -0.004  -0.012651  -0.002677  4.198844  -0.002  -0.018688  -0.016175  -0.00769  4.167373  -0.005
C  C47  1  0.99929696  0.20491722  0.95902946  1  -0.023974  -0.008064  3.920543  -0.006  -0.015002  -0.005496  4.180867  -0.004  -0.012665  -0.002671  4.198988  -0.002  -0.018584  -0.01617  -0.00769  4.167484  -0.005
C  C48  1  0.11312704  0.91968026  0.10226221  1  -0.017292  0.005474  3.90919  0.006  -0.00563  0.001293  4.169889  0.003  -0.003103  0.005396  4.188616  0.005  -0.015909  -0.00677  -0.001721  4.156324  0.001
C  C49  1  0.88688206  0.08032875  0.89773378  1  -0.017298  0.005486  3.909318  0.006  -0.00569  0.001299  4.17007  0.003  -0.003163  0.005384  4.188795  0.005  -0.015955  -0.006836  -0.00172  4.156502  0.001
C  C50  1  0.09749898  0.97980672  0.21306148  1  0.281474  0.002117  3.80276  0.002  0.267796  0.000138  4.087768  0.001  0.282687  0.000722  4.100839  0.001  0.173376  0.258035  -0.000314  4.078389  0.001
C  C51  1  0.90250653  0.02019787  0.78693463  1  0.281519  0.002259  3.802679  0.002  0.267882  0.000134  4.087667  0.001  0.282773  0.000735  4.100736  0.001  0.173404  0.258121  -0.000313  4.078297  0.001
C  C52  1  0.98547106  0.70439327  0.52466962  1  0.048746  0.001404  3.638826  0.003  -0.006546  -0.001439  3.909247  0.0  -0.001892  -0.000407  3.922042  0.001  -0.075645  -0.009334  -0.002419  3.901022  0.0
C  C53  1  0.01452338  0.29560359  0.47533496  1  0.048699  0.001312  3.638791  0.003  -0.00667  -0.001439  3.909283  0.0  -0.002002  -0.000406  3.922054  0.001  -0.075723  -0.009438  -0.002419  3.901035  0.0
C  C54  1  0.87453340  0.68785887  0.41651214  1  0.04791  0.001376  3.633224  0.002  -0.003608  -0.001587  3.902351  0.0  0.001331  -0.00055  3.915289  0.001  -0.076558  -0.007005  -0.002601  3.894235  -0.001
C  C55  1  0.12546284  0.31214019  0.58349280  1  0.04794  0.00147  3.633219  0.003  -0.00357  -0.001585  3.902365  0.0  0.00137  -0.000551  3.915281  0.001  -0.076502  -0.006975  -0.002601  3.894237  -0.001
C  C56  1  0.30486039  0.61613096  0.12713483  1  0.037736  9.7e-05  3.635154  0.002  -0.014063  -0.00259  3.895028  -0.001  -0.009606  -0.001423  3.908957  0.0  -0.083481  -0.016808  -0.003637  3.885755  -0.001
C  C57  1  0.69513296  0.38386921  0.87286661  1  0.038026  7e-05  3.634842  0.002  -0.013808  -0.002587  3.894828  -0.001  -0.009351  -0.001423  3.908758  0.0  -0.083393  -0.016574  -0.003635  3.885566  -0.001
C  C58  1  0.38267656  0.54319231  0.21076030  1  0.052959  0.00116  3.618251  0.003  -0.000244  -0.002163  3.885108  0.0  0.004471  -0.00105  3.897918  0.001  -0.074291  -0.003245  -0.003389  3.876297  -0.001
C  C59  1  0.61732039  0.45680565  0.78924375  1  0.053017  0.001258  3.618183  0.003  -0.000335  -0.002163  3.885264  0.0  0.004393  -0.00105  3.898075  0.001  -0.074252  -0.003299  -0.003388  3.876401  -0.001
S  S60  1  0.35561982  0.05631794  0.78557573  1  -0.291615  -0.10293  2.38786  -0.103  -0.266828  -0.082686  2.767568  -0.086  -0.286965  -0.073085  2.757977  -0.083  -0.154645  -0.256769  -0.086297  2.775245  -0.085
S  S61  1  0.64438640  0.94367891  0.21441716  1  -0.291595  -0.102932  2.387669  -0.103  -0.266795  -0.082698  2.767324  -0.086  -0.28692  -0.073097  2.757728  -0.083  -0.154624  -0.256739  -0.086306  2.775002  -0.085
S  S62  1  0.29270761  0.70159404  0.75218991  1  -0.29575  -0.107995  2.257962  -0.106  -0.269199  -0.088677  2.611105  -0.09  -0.289829  -0.079105  2.601147  -0.087  -0.159346  -0.258758  -0.09188  2.619663  -0.088
S  S63  1  0.70729970  0.29839949  0.24780359  1  -0.295604  -0.107959  2.258118  -0.106  -0.269073  -0.088672  2.611294  -0.09  -0.289671  -0.079102  2.601284  -0.087  -0.159278  -0.258635  -0.091874  2.619846  -0.088
S  S64  1  0.00798066  0.71991093  0.90280711  1  -0.262264  -0.138205  2.232072  -0.134  -0.256515  -0.100006  2.592659  -0.102  -0.279477  -0.088521  2.586126  -0.098  -0.1789  -0.243774  -0.104601  2.595865  -0.101
S  S65  1  0.99202626  0.28009477  0.09718248  1  -0.2623  -0.138217  2.231812  -0.134  -0.256546  -0.100007  2.592445  -0.102  -0.279493  -0.088522  2.5859  -0.098  -0.17892  -0.243811  -0.104604  2.595635  -0.101
S  S66  1  0.27615350  0.00586416  0.04875236  1  -0.252659  -0.160865  2.210683  -0.159  -0.263394  -0.114223  2.5941  -0.119  -0.288514  -0.099796  2.591187  -0.113  -0.177602  -0.249387  -0.12106  2.595718  -0.119
S  S67  1  0.72385882  0.99413821  0.95124072  1  -0.252596  -0.160852  2.210769  -0.159  -0.263365  -0.114214  2.594244  -0.119  -0.288463  -0.099797  2.591314  -0.113  -0.177619  -0.249364  -0.121052  2.595866  -0.119
N  N68  1  0.65708015  0.14317037  0.60540383  1  -0.411914  0.000299  2.613031  -0.001  -0.377513  -0.001665  2.833735  -0.003  -0.387043  0.000157  2.84466  -0.001  -0.303995  -0.371844  -0.002952  2.826937  -0.004
N  N69  1  0.34291819  0.85683533  0.39459349  1  -0.41191  0.000258  2.612566  -0.001  -0.377562  -0.00166  2.833279  -0.003  -0.387088  0.000161  2.844192  -0.001  -0.303945  -0.371895  -0.002954  2.826488  -0.004
N  N70  1  0.57787676  0.69287659  0.56133728  1  -0.394685  -0.012547  2.582699  -0.014  -0.363705  -0.009701  2.79966  -0.011  -0.371006  -0.008856  2.809079  -0.01  -0.301387  -0.358621  -0.011113  2.793433  -0.012
N  N71  1  0.42211728  0.30711253  0.43865640  1  -0.394748  -0.012508  2.582466  -0.014  -0.363761  -0.009696  2.799413  -0.011  -0.37106  -0.008858  2.808833  -0.01  -0.301397  -0.358678  -0.011113  2.793186  -0.012
N  N72  1  0.76126010  0.65910643  0.12351005  1  -0.424162  -0.008708  2.632209  -0.012  -0.40326  -0.005693  2.87982  -0.008  -0.412604  -0.004109  2.884496  -0.007  -0.32185  -0.398275  -0.007267  2.878511  -0.009
N  N73  1  0.23875369  0.34090700  0.87649181  1  -0.424338  -0.008777  2.632567  -0.012  -0.403406  -0.005689  2.880188  -0.008  -0.412744  -0.004109  2.884859  -0.007  -0.321971  -0.398439  -0.007266  2.87892  -0.009
N  N74  1  0.08739497  0.03112883  0.30542105  1  -0.426022  -0.001964  2.684309  -0.005  -0.411024  -0.001984  2.95259  -0.005  -0.423001  0.0  2.95939  -0.003  -0.315936  -0.404397  -0.003684  2.948931  -0.006
N  N75  1  0.91261412  0.96887355  0.69457261  1  -0.426102  -0.002085  2.684335  -0.005  -0.411137  -0.001979  2.952608  -0.005  -0.423118  -1.6e-05  2.959409  -0.003  -0.316003  -0.404514  -0.003686  2.948956  -0.006
N  N76  1  0.10247468  0.85048829  0.53901637  1  -0.593338  -0.094375  3.176248  -0.111  -0.570904  -0.065202  3.450417  -0.078  -0.600137  -0.052975  3.454287  -0.069  -0.649228  -0.550563  -0.073416  3.446885  -0.084
N  N77  1  0.89752119  0.14950636  0.46098643  1  -0.593441  -0.094351  3.1762  -0.111  -0.570978  -0.065201  3.450666  -0.078  -0.600219  -0.052974  3.454534  -0.069  -0.649192  -0.550642  -0.073413  3.447134  -0.084
N  N78  1  0.82194298  0.81894365  0.42521484  1  -0.585894  -0.100375  3.147223  -0.117  -0.563231  -0.070908  3.414166  -0.085  -0.592965  -0.057557  3.41833  -0.074  -0.640126  -0.544446  -0.077965  3.412158  -0.089
N  N79  1  0.17805360  0.18105321  0.57478570  1  -0.585838  -0.100418  3.14706  -0.117  -0.563209  -0.070907  3.41404  -0.085  -0.592967  -0.057556  3.418262  -0.074  -0.640129  -0.544405  -0.077963  3.412011  -0.089
N  N80  1  0.40364375  0.65849916  0.03903167  1  -0.581607  -0.094509  3.18889  -0.111  -0.556235  -0.067995  3.45372  -0.082  -0.586268  -0.055367  3.457195  -0.072  -0.645333  -0.538326  -0.07391  3.453131  -0.085
N  N81  1  0.59634854  0.34150101  0.96097390  1  -0.581728  -0.094506  3.188695  -0.111  -0.556316  -0.067995  3.453644  -0.082  -0.586352  -0.055368  3.457112  -0.072  -0.645335  -0.538406  -0.07391  3.453058  -0.085
N  N82  1  0.42487677  0.42516872  0.14351689  1  -0.583659  -0.097274  3.164575  -0.113  -0.557293  -0.073098  3.424925  -0.087  -0.58681  -0.060183  3.429357  -0.077  -0.635764  -0.53882  -0.079789  3.422403  -0.091
N  N83  1  0.57512558  0.57483587  0.85649077  1  -0.583607  -0.097281  3.164396  -0.114  -0.557103  -0.073101  3.424857  -0.087  -0.586639  -0.060188  3.429244  -0.077  -0.63579  -0.538637  -0.079792  3.422323  -0.091
