# generated using pymatgen
data_NdH6C6(NO4)2
_symmetry_space_group_name_H-M   'P 1'
_cell_length_a   7.68012664
_cell_length_b   8.09943487
_cell_length_c   17.23692875
_cell_angle_alpha   89.99988309
_cell_angle_beta   89.99997887
_cell_angle_gamma   108.89303216
_symmetry_Int_Tables_number   1
_chemical_formula_structural   NdH6C6(NO4)2
_chemical_formula_sum   'Nd4 H24 C24 N8 O32'
_cell_volume   1014.45172734
_cell_formula_units_Z   4
loop_
 _symmetry_equiv_pos_site_id
 _symmetry_equiv_pos_as_xyz
  1  'x, y, z'
loop_
 _atom_site_type_symbol
 _atom_site_label
 _atom_site_symmetry_multiplicity
 _atom_site_fract_x
 _atom_site_fract_y
 _atom_site_fract_z
 _atom_site_occupancy
 _atom_site_hle17_bader_spin_density
 _atom_site_hle17_ddec_charge
 _atom_site_hle17_ddec_spin_density
 _atom_site_hle17_ddec_sum_bond_order
 _atom_site_hle17_magmom
 _atom_site_hse06_10hf_bader_charge
 _atom_site_hse06_10hf_bader_spin_density
 _atom_site_hse06_10hf_ddec_charge
 _atom_site_hse06_10hf_ddec_spin_density
 _atom_site_hse06_10hf_ddec_sum_bond_order
 _atom_site_hse06_10hf_magmom
 _atom_site_hse06_bader_spin_density
 _atom_site_hse06_ddec_charge
 _atom_site_hse06_ddec_spin_density
 _atom_site_hse06_ddec_sum_bond_order
 _atom_site_hse06_magmom
 _atom_site_pbe_bader_spin_density
 _atom_site_pbe_cm5_charge
 _atom_site_pbe_ddec_charge
 _atom_site_pbe_ddec_spin_density
 _atom_site_pbe_ddec_sum_bond_order
 _atom_site_pbe_magmom
Nd  Nd0  1  0.18520950  0.23731794  0.91671306  1  0  2.273686  0  1.630059  0  2.279704  0  2.099003  0  2.104734  0  0  2.199814  0  1.949583  0  0  1.471945  2.065253  0  2.139701  0
Nd  Nd1  1  0.81479540  0.26268834  0.41671094  1  0  2.273715  0  1.63003  0  2.279724  0  2.099082  0  2.104641  0  0  2.199856  0  1.949562  0  0  1.471972  2.065363  0  2.139557  0
Nd  Nd2  1  0.81479167  0.76267738  0.08328761  1  0  2.273631  0  1.630092  0  2.279718  0  2.098968  0  2.104765  0  0  2.199765  0  1.949632  0  0  1.471961  2.06525  0  2.139685  0
Nd  Nd3  1  0.18520668  0.73732013  0.58328741  1  0  2.273668  0  1.630099  0  2.279718  0  2.098999  0  2.104772  0  0  2.199804  0  1.949629  0  0  1.471958  2.065242  0  2.139746  0
H  H4  1  0.55228972  0.09554974  0.71702266  1  0  0.141763  0  0.964156  0  0.212981  0  0.14778  0  1.02657  0  0  0.152945  0  1.021011  0  0  0.136012  0.144079  0  1.030393  0
H  H5  1  0.44770830  0.40445512  0.21702335  1  0  0.141781  0  0.964149  0  0.213017  0  0.147805  0  1.026557  0  0  0.152969  0  1.020997  0  0  0.136024  0.144104  0  1.030378  0
H  H6  1  0.44771126  0.90445217  0.28297453  1  0  0.141765  0  0.964147  0  0.21303  0  0.147781  0  1.026553  0  0  0.152951  0  1.020995  0  0  0.136011  0.144081  0  1.030375  0
H  H7  1  0.55228494  0.59554700  0.78297442  1  0  0.141756  0  0.964122  0  0.212923  0  0.147781  0  1.026533  0  0  0.152945  0  1.020974  0  0  0.136004  0.14408  0  1.030355  0
H  H8  1  0.67935322  0.10541633  0.85415322  1  0  0.309007  0  0.830164  0  0.508003  0  0.296782  0  0.875301  0  0  0.303556  0  0.870689  0  0  0.363306  0.292043  0  0.878479  0
H  H9  1  0.32063961  0.39458532  0.35415336  1  0  0.308952  0  0.830307  0  0.508031  0  0.296803  0  0.875322  0  0  0.303588  0  0.870706  0  0  0.363304  0.292066  0  0.878501  0
H  H10  1  0.32064452  0.89459094  0.14584455  1  0  0.309037  0  0.830134  0  0.50839  0  0.296799  0  0.875285  0  0  0.303587  0  0.870671  0  0  0.3633  0.292059  0  0.878463  0
H  H11  1  0.67935864  0.60541271  0.64584499  1  0  0.309027  0  0.830141  0  0.507987  0  0.296816  0  0.875251  0  0  0.3036  0  0.870637  0  0  0.363312  0.292079  0  0.878433  0
H  H12  1  0.57239888  0.33847216  0.97238242  1  0  0.439999  0  0.833535  0  0.641986  0  0.414563  0  0.897718  0  0  0.424398  0  0.88331  0  0  0.31552  0.407513  0  0.90821  0
H  H13  1  0.42760124  0.16152474  0.47238219  1  0  0.440013  0  0.833532  0  0.641909  0  0.414582  0  0.897693  0  0  0.424418  0  0.883284  0  0  0.315528  0.407532  0  0.908185  0
H  H14  1  0.42759775  0.66152855  0.02761884  1  0  0.440035  0  0.833503  0  0.641972  0  0.414592  0  0.897687  0  0  0.424428  0  0.883277  0  0  0.315524  0.40754  0  0.908181  0
H  H15  1  0.57240394  0.83847443  0.52761907  1  0  0.44003  0  0.833487  0  0.641979  0  0.414603  0  0.897658  0  0  0.424437  0  0.883252  0  0  0.315551  0.407553  0  0.908149  0
H  H16  1  0.59298208  0.49735801  0.91866569  1  0  0.443117  0  0.854481  0  0.655604  0  0.411719  0  0.918385  0  0  0.423132  0  0.901992  0  0  0.300936  0.403701  0  0.930022  0
H  H17  1  0.40701785  0.00264180  0.41866446  1  0  0.443115  0  0.854488  0  0.655596  0  0.411714  0  0.918398  0  0  0.423127  0  0.902004  0  0  0.300954  0.403697  0  0.930035  0
H  H18  1  0.40701699  0.50263868  0.08133150  1  0  0.443103  0  0.854505  0  0.655588  0  0.411709  0  0.918403  0  0  0.423121  0  0.902013  0  0  0.300917  0.403693  0  0.930038  0
H  H19  1  0.59298667  0.99736266  0.58133273  1  0  0.443111  0  0.85449  0  0.655577  0  0.411759  0  0.918317  0  0  0.423169  0  0.901927  0  0  0.300991  0.403741  0  0.929953  0
H  H20  1  0.33482495  0.97470980  0.89930820  1  0  0.415913  0  0.867112  0  0.646333  0  0.394774  0  0.923392  0  0  0.403937  0  0.91002  0  0  0.305575  0.388032  0  0.933349  0
H  H21  1  0.66517286  0.52529400  0.39931155  1  0  0.415945  0  0.86705  0  0.646372  0  0.394817  0  0.92333  0  0  0.403979  0  0.909958  0  0  0.305607  0.388074  0  0.933288  0
H  H22  1  0.66517330  0.02528824  0.10069479  1  0  0.415835  0  0.867166  0  0.646292  0  0.394729  0  0.923466  0  0  0.403879  0  0.910108  0  0  0.305552  0.387986  0  0.933425  0
H  H23  1  0.33482568  0.47471193  0.60069434  1  0  0.415856  0  0.867148  0  0.646301  0  0.394753  0  0.923434  0  0  0.403902  0  0.910077  0  0  0.305568  0.388011  0  0.933392  0
H  H24  1  0.25240707  0.90915862  0.98080072  1  0  0.438231  0  0.859519  0  0.662234  0  0.407892  0  0.921887  0  0  0.419645  0  0.904767  0  0  0.299329  0.399614  0  0.934045  0
H  H25  1  0.74759765  0.59083931  0.48080283  1  0  0.438255  0  0.859484  0  0.662227  0  0.407943  0  0.921826  0  0  0.419679  0  0.904723  0  0  0.299339  0.399664  0  0.933989  0
H  H26  1  0.74758378  0.09083697  0.01920054  1  0  0.438233  0  0.859526  0  0.661827  0  0.407905  0  0.921902  0  0  0.419639  0  0.9048  0  0  0.299313  0.399623  0  0.934066  0
H  H27  1  0.25241542  0.40916361  0.51919958  1  0  0.438221  0  0.859546  0  0.661819  0  0.407894  0  0.921919  0  0  0.419628  0  0.904818  0  0  0.299306  0.399611  0  0.934084  0
C  C28  1  0.69312390  0.16874984  0.73392295  1  0  0.074461  0  3.561857  0  0.389523  0  0.015213  0  3.829962  0  0  0.026532  0  3.838482  0  0  0.048528  0.00836  0  3.823188  0
C  C29  1  0.30687488  0.33125359  0.23392084  1  0  0.074584  0  3.561709  0  0.389542  0  0.01529  0  3.829834  0  0  0.026627  0  3.838354  0  0  0.048588  0.008442  0  3.823069  0
C  C30  1  0.30687951  0.83124806  0.26607598  1  0  0.07442  0  3.561764  0  0.389443  0  0.015168  0  3.829856  0  0  0.026505  0  3.838391  0  0  0.048486  0.008313  0  3.823076  0
C  C31  1  0.69311965  0.66874849  0.76607577  1  0  0.074451  0  3.561789  0  0.389537  0  0.015172  0  3.829913  0  0  0.026511  0  3.838438  0  0  0.048515  0.008324  0  3.823137  0
C  C32  1  0.84115722  0.27985655  0.69232731  1  0  -0.183507  0  3.721526  0  0.02298  0  -0.174478  0  3.983653  0  0  -0.187157  0  4.00368  0  0  -0.025005  -0.16602  0  3.969367  0
C  C33  1  0.15883943  0.22014452  0.19232533  1  0  -0.183486  0  3.721692  0  0.02295  0  -0.174505  0  3.983823  0  0  -0.187178  0  4.00384  0  0  -0.02506  -0.166058  0  3.969533  0
C  C34  1  0.15884586  0.72014399  0.30767220  1  0  -0.183509  0  3.721505  0  0.023025  0  -0.174458  0  3.983633  0  0  -0.187138  0  4.003645  0  0  -0.024967  -0.165998  0  3.969329  0
C  C35  1  0.84115367  0.77985365  0.80767360  1  0  -0.183479  0  3.721536  0  0.023022  0  -0.174454  0  3.983668  0  0  -0.187133  0  4.003684  0  0  -0.025006  -0.165998  0  3.969365  0
C  C36  1  0.83596010  0.31895088  0.60854207  1  0  0.722748  0  3.898629  0  1.63948  0  0.672707  0  4.194176  0  0  0.708599  0  4.18706  0  0  0.227531  0.648353  0  4.201123  0
C  C37  1  0.16403533  0.18104671  0.10854418  1  0  0.722751  0  3.898759  0  1.639515  0  0.672715  0  4.194307  0  0  0.708601  0  4.187201  0  0  0.227583  0.648361  0  4.201251  0
C  C38  1  0.16404475  0.68105094  0.39145629  1  0  0.722756  0  3.898503  0  1.639431  0  0.672655  0  4.194151  0  0  0.708562  0  4.187016  0  0  0.227467  0.648299  0  4.201095  0
C  C39  1  0.83595245  0.81894765  0.89145707  1  0  0.722781  0  3.898635  0  1.639441  0  0.672687  0  4.194276  0  0  0.70859  0  4.18715  0  0  0.227478  0.648333  0  4.201222  0
C  C40  1  0.98699224  0.33652441  0.74767008  1  0  0.03538  0  3.714278  0  0.466242  0  0.027517  0  3.977377  0  0  0.02949  0  3.996387  0  0  0.105318  0.026053  0  3.966231  0
C  C41  1  0.01300875  0.16348152  0.24766817  1  0  0.035369  0  3.71432  0  0.466193  0  0.027622  0  3.977316  0  0  0.029594  0  3.996318  0  0  0.105391  0.026194  0  3.96612  0
C  C42  1  0.01301471  0.66347603  0.25232827  1  0  0.035438  0  3.714285  0  0.466255  0  0.027598  0  3.977389  0  0  0.029566  0  3.996387  0  0  0.105398  0.026156  0  3.966207  0
C  C43  1  0.98698577  0.83652056  0.75233076  1  0  0.035358  0  3.71428  0  0.466227  0  0.027573  0  3.977317  0  0  0.029542  0  3.996318  0  0  0.10537  0.026135  0  3.966133  0
C  C44  1  0.18520841  0.44871655  0.74588148  1  0  0.695758  0  3.880465  0  1.671158  0  0.646632  0  4.179194  0  0  0.681834  0  4.168922  0  0  0.237785  0.622999  0  4.187106  0
C  C45  1  0.81478939  0.05128421  0.24588130  1  0  0.695768  0  3.880526  0  1.671166  0  0.646574  0  4.179306  0  0  0.681784  0  4.169024  0  0  0.237783  0.622933  0  4.187214  0
C  C46  1  0.81479353  0.55128797  0.25411745  1  0  0.695672  0  3.880557  0  1.671193  0  0.646488  0  4.179383  0  0  0.681713  0  4.169075  0  0  0.237704  0.622849  0  4.187291  0
C  C47  1  0.18520451  0.94871262  0.75411821  1  0  0.695743  0  3.880474  0  1.671768  0  0.646544  0  4.179299  0  0  0.681763  0  4.168999  0  0  0.237735  0.622901  0  4.187209  0
C  C48  1  0.08691388  0.57817716  0.99028808  1  0  0.567903  0  3.906523  0  1.615229  0  0.521205  0  4.207332  0  0  0.550885  0  4.202719  0  0  0.223455  0.500896  0  4.213128  0
C  C49  1  0.91308646  0.92181952  0.49028810  1  0  0.56797  0  3.906088  0  1.615279  0  0.52114  0  4.207088  0  0  0.550821  0  4.202473  0  0  0.223409  0.500833  0  4.212884  0
C  C50  1  0.91308404  0.42182352  0.00971085  1  0  0.567858  0  3.906658  0  1.645216  0  0.521129  0  4.207509  0  0  0.550809  0  4.2029  0  0  0.223467  0.500821  0  4.213305  0
C  C51  1  0.08691920  0.07818096  0.50970909  1  0  0.567755  0  3.906308  0  1.6453  0  0.521081  0  4.207125  0  0  0.550762  0  4.202511  0  0  0.223483  0.500771  0  4.212921  0
N  N52  1  0.93005942  0.26152951  0.81674681  1  0  -0.321824  0  3.129843  0  -0.72521  0  -0.305207  0  3.416145  0  0  -0.318414  0  3.434024  0  0  -0.283036  -0.30007  0  3.404642  0
N  N53  1  0.06993528  0.23847360  0.31674714  1  0  -0.321921  0  3.12979  0  -0.725227  0  -0.305386  0  3.416104  0  0  -0.318576  0  3.43399  0  0  -0.283132  -0.300253  0  3.404596  0
N  N54  1  0.06993994  0.73847508  0.18325154  1  0  -0.321877  0  3.129846  0  -0.725297  0  -0.305259  0  3.41613  0  0  -0.318442  0  3.434026  0  0  -0.283117  -0.300132  0  3.404622  0
N  N55  1  0.93005862  0.76152323  0.68325353  1  0  -0.321877  0  3.129819  0  -0.725193  0  -0.305294  0  3.41611  0  0  -0.318482  0  3.433998  0  0  -0.283107  -0.300158  0  3.404602  0
N  N56  1  0.75309369  0.16489000  0.80715294  1  0  -0.098121  0  3.505477  0  -0.806755  0  -0.037645  0  3.754106  0  0  -0.048795  0  3.771529  0  0  -0.253461  -0.030282  0  3.743316  0
N  N57  1  0.24690538  0.33511437  0.30715082  1  0  -0.098198  0  3.505514  0  -0.80675  0  -0.037706  0  3.754053  0  0  -0.048896  0  3.77151  0  0  -0.253492  -0.030362  0  3.743288  0
N  N58  1  0.24690906  0.83511319  0.19284600  1  0  -0.098093  0  3.505337  0  -0.807196  0  -0.037589  0  3.753936  0  0  -0.048806  0  3.771427  0  0  -0.253405  -0.030225  0  3.743152  0
N  N59  1  0.75309077  0.66488504  0.69284695  1  0  -0.098134  0  3.505496  0  -0.806815  0  -0.037635  0  3.754089  0  0  -0.048835  0  3.771557  0  0  -0.253451  -0.03029  0  3.743321  0
O  O60  1  0.28333442  0.43009377  0.80247916  1  0  -0.674218  0  2.008302  0  -1.199411  0  -0.623261  0  2.249919  0  0  -0.654073  0  2.237277  0  0  -0.369572  -0.605959  0  2.256539  0
O  O61  1  0.71666452  0.06990667  0.30247897  1  0  -0.674204  0  2.008321  0  -1.199418  0  -0.623238  0  2.249967  0  0  -0.65405  0  2.237327  0  0  -0.36956  -0.60594  0  2.256588  0
O  O62  1  0.71666594  0.56990289  0.19751978  1  0  -0.674105  0  2.008392  0  -1.199409  0  -0.623155  0  2.250053  0  0  -0.653972  0  2.237402  0  0  -0.369506  -0.605857  0  2.256675  0
O  O63  1  0.28333469  0.93009397  0.69752112  1  0  -0.674171  0  2.008308  0  -1.200021  0  -0.623204  0  2.249959  0  0  -0.654021  0  2.237311  0  0  -0.369549  -0.605901  0  2.25658  0
O  O64  1  0.24675678  0.55478670  0.69045566  1  0  -0.728707  0  2.054779  0  -1.244537  0  -0.673891  0  2.300178  0  0  -0.70416  0  2.284183  0  0  -0.379512  -0.656996  0  2.308532  0
O  O65  1  0.75324353  0.94521285  0.19045511  1  0  -0.728696  0  2.054762  0  -1.24453  0  -0.673861  0  2.300183  0  0  -0.704134  0  2.284187  0  0  -0.37953  -0.656972  0  2.308538  0
O  O66  1  0.75324936  0.44521508  0.30954385  1  0  -0.72872  0  2.054787  0  -1.244491  0  -0.673881  0  2.300204  0  0  -0.704157  0  2.284205  0  0  -0.379527  -0.65699  0  2.308556  0
O  O67  1  0.24674989  0.05478268  0.80954498  1  0  -0.728695  0  2.054803  0  -1.244454  0  -0.673862  0  2.300229  0  0  -0.704139  0  2.28423  0  0  -0.37948  -0.656968  0  2.308586  0
O  O68  1  0.93682394  0.46424007  0.58196881  1  0  -0.755812  0  2.126245  0  -1.238648  0  -0.707338  0  2.396176  0  0  -0.740513  0  2.383733  0  0  -0.397896  -0.690678  0  2.404416  0
O  O69  1  0.06317462  0.03575888  0.08197108  1  0  -0.755765  0  2.126217  0  -1.23863  0  -0.707315  0  2.396204  0  0  -0.74049  0  2.383765  0  0  -0.39791  -0.690659  0  2.404439  0
O  O70  1  0.06318430  0.53576034  0.41802896  1  0  -0.755802  0  2.126237  0  -1.238584  0  -0.707279  0  2.396133  0  0  -0.740457  0  2.383685  0  0  -0.397832  -0.690625  0  2.404368  0
O  O71  1  0.93681637  0.96424065  0.91802959  1  0  -0.755815  0  2.126242  0  -1.238557  0  -0.707249  0  2.396058  0  0  -0.740431  0  2.383609  0  0  -0.397811  -0.69059  0  2.404298  0
O  O72  1  0.72757501  0.20380976  0.56432950  1  0  -0.714031  0  2.013415  0  -1.224322  0  -0.650148  0  2.241712  0  0  -0.681917  0  2.229795  0  0  -0.344945  -0.631522  0  2.248387  0
O  O73  1  0.27243506  0.29618504  0.06433264  1  0  -0.714065  0  2.013396  0  -1.224382  0  -0.65016  0  2.241691  0  0  -0.681934  0  2.22978  0  0  -0.344944  -0.631529  0  2.248365  0
O  O74  1  0.27242726  0.79619212  0.43566827  1  0  -0.714091  0  2.01335  0  -1.224303  0  -0.650171  0  2.241681  0  0  -0.681953  0  2.229762  0  0  -0.344977  -0.631536  0  2.248344  0
O  O75  1  0.72757079  0.70380885  0.93567035  1  0  -0.714072  0  2.013444  0  -1.224388  0  -0.650165  0  2.241779  0  0  -0.681942  0  2.229856  0  0  -0.344949  -0.631539  0  2.248454  0
O  O76  1  0.21476377  0.54826980  0.95299606  1  0  -0.649815  0  2.050468  0  -1.204285  0  -0.599834  0  2.286643  0  0  -0.627568  0  2.274759  0  0  -0.35096  -0.584467  0  2.293171  0
O  O77  1  0.78523505  0.95172974  0.45299607  1  0  -0.649848  0  2.050287  0  -1.204239  0  -0.599833  0  2.286527  0  0  -0.627561  0  2.274647  0  0  -0.350971  -0.584471  0  2.293058  0
O  O78  1  0.78523869  0.45172549  0.04700636  1  0  -0.649774  0  2.050515  0  -1.20429  0  -0.599789  0  2.286703  0  0  -0.627522  0  2.274825  0  0  -0.350991  -0.584427  0  2.293234  0
O  O79  1  0.21476077  0.04827230  0.54700576  1  0  -0.649782  0  2.050466  0  -1.204319  0  -0.5998  0  2.286615  0  0  -0.627532  0  2.274735  0  0  -0.351017  -0.584432  0  2.293145  0
O  O80  1  0.08773395  0.72674917  0.01434442  1  0  -0.67236  0  2.152599  0  -1.203873  0  -0.615189  0  2.392601  0  0  -0.645705  0  2.383039  0  0  -0.350521  -0.59763  0  2.397833  0
O  O81  1  0.91226941  0.77325120  0.51434699  1  0  -0.672372  0  2.152533  0  -1.203921  0  -0.615143  0  2.392556  0  0  -0.645666  0  2.38302  0  0  -0.350472  -0.597575  0  2.397785  0
O  O82  1  0.91227300  0.27325127  0.98565683  1  0  -0.672352  0  2.1526  0  -1.203874  0  -0.61517  0  2.392601  0  0  -0.645688  0  2.383045  0  0  -0.350498  -0.597603  0  2.397831  0
O  O83  1  0.08773301  0.22675463  0.48565485  1  0  -0.672268  0  2.1525  0  -1.203976  0  -0.61509  0  2.392463  0  0  -0.645608  0  2.38292  0  0  -0.350464  -0.597527  0  2.397693  0
O  O84  1  0.52454804  0.36942758  0.92369392  1  0  -0.893056  0  1.817593  0  -1.2813  0  -0.847867  0  2.017719  0  0  -0.872299  0  1.980823  0  0  -0.644259  -0.835202  0  2.040479  0
O  O85  1  0.47545187  0.13057221  0.42369429  1  0  -0.893066  0  1.817565  0  -1.281216  0  -0.847889  0  2.017684  0  0  -0.872315  0  1.980791  0  0  -0.644286  -0.835228  0  2.040443  0
O  O86  1  0.47544716  0.63056921  0.07630618  1  0  -0.893107  0  1.817634  0  -1.28124  0  -0.847911  0  2.017743  0  0  -0.872342  0  1.980851  0  0  -0.644231  -0.835248  0  2.040502  0
O  O87  1  0.52455312  0.86943356  0.57630638  1  0  -0.893119  0  1.817579  0  -1.281227  0  -0.847965  0  2.01768  0  0  -0.872393  0  1.980785  0  0  -0.644346  -0.8353  0  2.040442  0
O  O88  1  0.33602727  0.01327006  0.95328812  1  0  -0.866486  0  1.845696  0  -1.298119  0  -0.820928  0  2.029675  0  0  -0.844161  0  1.993547  0  0  -0.636102  -0.808082  0  2.052309  0
O  O89  1  0.66397385  0.48672954  0.45328986  1  0  -0.866522  0  1.845654  0  -1.29817  0  -0.821024  0  2.029596  0  0  -0.844237  0  1.993517  0  0  -0.636127  -0.80818  0  2.052233  0
O  O90  1  0.66396405  0.98672684  0.04671429  1  0  -0.8664  0  1.845701  0  -1.297687  0  -0.820909  0  2.029572  0  0  -0.84409  0  1.993501  0  0  -0.636048  -0.808061  0  2.052206  0
O  O91  1  0.33603664  0.51327344  0.54671371  1  0  -0.866409  0  1.845686  0  -1.297687  0  -0.82092  0  2.029544  0  0  -0.844104  0  1.993484  0  0  -0.636061  -0.808069  0  2.052178  0
