# generated using pymatgen
data_CoH20C19(NO)4
_symmetry_space_group_name_H-M   'P 1'
_cell_length_a   11.73858208
_cell_length_b   11.72635544
_cell_length_c   18.07278923
_cell_angle_alpha   98.55296189
_cell_angle_beta   106.38300123
_cell_angle_gamma   109.64214160
_symmetry_Int_Tables_number   1
_chemical_formula_structural   CoH20C19(NO)4
_chemical_formula_sum   'Co4 H80 C76 N16 O16'
_cell_volume   2164.65809454
_cell_formula_units_Z   4
loop_
 _symmetry_equiv_pos_site_id
 _symmetry_equiv_pos_as_xyz
  1  'x, y, z'
loop_
 _atom_site_type_symbol
 _atom_site_label
 _atom_site_symmetry_multiplicity
 _atom_site_fract_x
 _atom_site_fract_y
 _atom_site_fract_z
 _atom_site_occupancy
 _atom_site_pbe_bader_charge
 _atom_site_pbe_bader_spin_density
 _atom_site_pbe_cm5_charge
 _atom_site_pbe_ddec_charge
 _atom_site_pbe_ddec_spin_density
 _atom_site_pbe_ddec_sum_bond_order
 _atom_site_pbe_magmom
Co  Co0  1  0.71638126  0.66293158  0.94299115  1  1.205291  2.540317  0.706889  0.813318  2.768018  2.687767  2.475
Co  Co1  1  0.21973711  0.77312924  0.55701420  1  1.20186  2.541099  0.706178  0.812277  2.766322  2.686417  2.476
Co  Co2  1  0.28361688  0.33706795  0.05700770  1  1.20518  2.540326  0.706894  0.813318  2.768021  2.687822  2.475
Co  Co3  1  0.78026805  0.22686653  0.44298696  1  1.201982  2.541093  0.706235  0.812387  2.766325  2.68622  2.476
H  H4  1  0.56061695  0.41094895  0.94207392  1  0.559412  0.000317  0.3129  0.271072  0.000174  1.017525  0.0
H  H5  1  0.96874816  0.61846577  0.55792754  1  0.560622  0.000317  0.313311  0.271629  0.000175  1.016573  0.0
H  H6  1  0.43938263  0.58905022  0.05792636  1  0.559399  0.000317  0.31288  0.271076  0.000174  1.017535  0.0
H  H7  1  0.03125197  0.38153162  0.44207235  1  0.560621  0.000317  0.313325  0.271651  0.000175  1.016577  0.0
H  H8  1  0.29976260  0.12380481  0.76384256  1  0.070655  0.00031  0.096447  0.141356  6.1e-05  1.01842  0.0
H  H9  1  0.85977538  0.53622784  0.73621252  1  0.063236  0.000308  0.09603  0.14076  6e-05  1.019335  0.0
H  H10  1  0.70023460  0.87619288  0.23615535  1  0.070694  0.00031  0.096443  0.141322  6.1e-05  1.018478  0.0
H  H11  1  0.14022354  0.46377424  0.26378711  1  0.063237  0.000308  0.09603  0.140751  6e-05  1.019389  0.0
H  H12  1  0.29820496  0.20320384  0.85539569  1  0.074478  0.000319  0.098925  0.144154  -6.3e-05  1.006145  0.0
H  H13  1  0.84745036  0.44289424  0.64468981  1  0.088885  0.000309  0.099064  0.144125  -6.5e-05  1.006936  0.0
H  H14  1  0.70179279  0.79679440  0.14460276  1  0.074473  0.000319  0.098958  0.144218  -6.3e-05  1.006118  0.0
H  H15  1  0.15255005  0.55710790  0.35531038  1  0.088853  0.000309  0.099048  0.144101  -6.5e-05  1.006936  0.0
H  H16  1  0.41936318  0.14460334  0.85669538  1  0.056812  0.000327  0.093972  0.132283  9.1e-05  1.023661  0.0
H  H17  1  0.78783007  0.56305810  0.64334010  1  0.062401  0.000323  0.094303  0.133271  9e-05  1.022245  0.0
H  H18  1  0.58063468  0.85539377  0.14330412  1  0.056815  0.000327  0.093967  0.132286  9.1e-05  1.023655  0.0
H  H19  1  0.21216924  0.43694293  0.35665898  1  0.062434  0.000323  0.094298  0.133286  9e-05  1.022257  0.0
H  H20  1  0.65680808  0.66579409  0.77659166  1  0.069021  0.001759  0.098627  0.135445  0.000872  1.014238  0.0
H  H21  1  0.38870956  0.88005000  0.72346022  1  0.054274  0.001765  0.098218  0.134685  0.000868  1.015218  0.0
H  H22  1  0.34319049  0.33420285  0.22340855  1  0.068981  0.001759  0.098645  0.135445  0.000872  1.014211  0.0
H  H23  1  0.61129073  0.11994900  0.27654077  1  0.054191  0.001766  0.098164  0.134604  0.000868  1.015279  0.0
H  H24  1  0.49761543  0.59775051  0.70362995  1  0.034799  8e-06  0.098254  0.143955  -0.000122  0.987424  0.0
H  H25  1  0.39354494  0.79365158  0.79639923  1  0.058244  -4e-06  0.098992  0.145048  -0.000126  0.986476  0.0
H  H26  1  0.50238298  0.40224716  0.29637010  1  0.034904  8e-06  0.098257  0.143943  -0.000122  0.987432  0.0
H  H27  1  0.60645297  0.20634827  0.20360033  1  0.058207  -4e-06  0.098982  0.145028  -0.000126  0.986461  0.0
H  H28  1  0.61603028  0.54485319  0.68970216  1  0.044692  -2.6e-05  0.094571  0.133605  -0.0001  1.015477  0.0
H  H29  1  0.35472875  0.92618140  0.81034370  1  0.045801  -2.9e-05  0.094619  0.1336  -0.000103  1.016224  0.0
H  H30  1  0.38396757  0.45514393  0.31029733  1  0.044694  -2.6e-05  0.094588  0.133623  -0.0001  1.015519  0.0
H  H31  1  0.64527010  0.07381795  0.18965587  1  0.045805  -2.9e-05  0.094627  0.133604  -0.000103  1.016192  0.0
H  H32  1  0.48755985  0.95553449  0.59003588  1  0.552847  0.000333  0.313077  0.273069  0.000126  1.004073  0.0
H  H33  1  0.86581480  0.89784898  0.90982340  1  0.558071  0.000336  0.313149  0.272626  0.00013  1.003423  0.0
H  H34  1  0.51244023  0.04446444  0.40996209  1  0.552943  0.000333  0.313105  0.27308  0.000126  1.00406  0.0
H  H35  1  0.13418390  0.10215342  0.09017695  1  0.558094  0.000336  0.313146  0.272636  0.00013  1.003429  0.0
H  H36  1  0.45068906  0.77217352  0.98405120  1  0.107846  0.000522  0.103874  0.119141  0.000125  1.036775  0.0
H  H37  1  0.28848847  0.46609672  0.51631165  1  0.135874  0.000512  0.104238  0.119824  0.000125  1.034397  0.0
H  H38  1  0.54930508  0.22782367  0.01594648  1  0.107896  0.000522  0.103905  0.119155  0.000125  1.036771  0.0
H  H39  1  0.71152114  0.53390773  0.48369209  1  0.135742  0.000512  0.104251  0.119866  0.000125  1.034361  0.0
H  H40  1  0.11554062  0.09731144  0.61795772  1  0.0653  0.000285  0.095849  0.136926  2e-06  1.011452  0.0
H  H41  1  0.97840080  0.49688507  0.88163697  1  0.057447  0.000288  0.095217  0.136441  2e-06  1.011765  0.0
H  H42  1  0.88445979  0.90268836  0.38204152  1  0.065305  0.000286  0.095854  0.136938  2e-06  1.011434  0.0
H  H43  1  0.02159944  0.50311779  0.11836306  1  0.057418  0.000287  0.095219  0.136417  2e-06  1.011756  0.0
H  H44  1  0.10644787  0.95124486  0.63829815  1  0.035646  0.000244  0.095318  0.132144  6e-05  1.010156  0.0
H  H45  1  0.81225786  0.46785171  0.86133099  1  0.056021  0.000211  0.095521  0.132768  5.5e-05  1.00965  0.0
H  H46  1  0.89354965  0.04875371  0.36170102  1  0.035634  0.000244  0.095321  0.132158  6e-05  1.010148  0.0
H  H47  1  0.18774200  0.53214987  0.13866864  1  0.056331  0.000211  0.095508  0.13274  5.5e-05  1.009671  0.0
H  H48  1  0.06758011  0.96184127  0.53833424  1  0.062141  0.000174  0.099041  0.141679  1.4e-05  0.999209  0.0
H  H49  1  0.92271130  0.52850342  0.96131129  1  0.049002  0.000187  0.099104  0.142252  1e-05  0.999244  0.0
H  H50  1  0.93241936  0.03815904  0.46166500  1  0.062238  0.000174  0.099091  0.141761  1.4e-05  0.999231  0.0
H  H51  1  0.07728873  0.47149743  0.03868851  1  0.048872  0.000187  0.099111  0.142248  1e-05  0.999232  0.0
H  H52  1  0.27108630  0.27936675  0.64820292  1  0.045659  0.00053  0.095565  0.095719  0.000172  1.007979  0.0
H  H53  1  0.13041876  0.62219683  0.85164958  1  0.055668  0.000529  0.095433  0.095296  0.000173  1.007741  0.0
H  H54  1  0.72891276  0.72063035  0.35179872  1  0.045507  0.00053  0.095583  0.095735  0.000172  1.008005  0.0
H  H55  1  0.86958172  0.37780803  0.14835068  1  0.055577  0.000529  0.095425  0.095258  0.000173  1.007755  0.0
H  H56  1  0.40861149  0.35243563  0.62570783  1  0.056961  0.000461  0.097746  0.101257  0.000153  1.009516  0.0
H  H57  1  0.22628183  0.78229980  0.87435567  1  0.079875  0.000456  0.09738  0.099982  0.000155  1.00922  0.0
H  H58  1  0.59138581  0.64756326  0.37429205  1  0.056923  0.000461  0.097739  0.101231  0.000153  1.009557  0.0
H  H59  1  0.77371865  0.21770273  0.12564364  1  0.079893  0.000456  0.0974  0.100013  0.000155  1.009255  0.0
H  H60  1  0.64394486  0.42218991  0.17472456  1  0.110418  0.000182  0.10793  0.112379  -8.9e-05  1.004066  0.0
H  H61  1  0.74722082  0.46902070  0.32516581  1  0.097232  0.000183  0.107685  0.111692  -8.9e-05  1.002535  0.0
H  H62  1  0.35605578  0.57781656  0.82527680  1  0.11039  0.000182  0.107945  0.112405  -8.9e-05  1.00399  0.0
H  H63  1  0.25277832  0.53098105  0.67483311  1  0.09724  0.000183  0.107686  0.111693  -8.9e-05  1.002562  0.0
H  H64  1  0.31051421  0.86747075  0.02885869  1  0.109635  7e-06  0.105365  0.111468  -4.1e-05  0.994135  0.0
H  H65  1  0.33929457  0.28127673  0.47129168  1  0.100668  8e-06  0.105981  0.112877  -4.1e-05  0.99452  0.0
H  H66  1  0.68947799  0.13252471  0.97113891  1  0.10943  7e-06  0.105301  0.111358  -4.1e-05  0.994126  0.0
H  H67  1  0.66071597  0.71872723  0.52871205  1  0.100872  8e-06  0.10596  0.112832  -4.1e-05  0.994535  0.0
H  H68  1  0.96006257  0.74184603  0.17568155  1  0.093694  0.00035  0.104323  0.109493  5.3e-05  1.004036  0.0
H  H69  1  0.06629759  0.78400506  0.32435042  1  0.099583  0.000346  0.10385  0.108395  5.1e-05  1.005303  0.0
H  H70  1  0.03993917  0.25815455  0.82431808  1  0.09374  0.00035  0.104314  0.109458  5.3e-05  1.004063  0.0
H  H71  1  0.93371019  0.21599380  0.67564960  1  0.099606  0.000345  0.103835  0.108382  5.1e-05  1.005333  0.0
H  H72  1  0.67740192  0.18048268  0.63358902  1  0.064899  0.000137  0.104741  0.148503  -4e-06  0.980006  0.0
H  H73  1  0.04755857  0.04419941  0.86650373  1  0.062033  0.000138  0.104504  0.148439  -3e-06  0.979605  0.0
H  H74  1  0.32259853  0.81951559  0.36641213  1  0.064932  0.000137  0.104739  0.148499  -4e-06  0.980029  0.0
H  H75  1  0.95244013  0.95580532  0.13349756  1  0.062081  0.000138  0.10456  0.148471  -3e-06  0.979574  0.0
H  H76  1  0.66344025  0.27823549  0.71339330  1  0.06443  0.00048  0.096519  0.134722  0.000176  0.996249  0.0
H  H77  1  0.06531246  0.95025765  0.78670017  1  0.066651  0.000471  0.096697  0.13493  0.000173  0.995817  0.0
H  H78  1  0.33655810  0.72176178  0.28660763  1  0.064439  0.00048  0.096515  0.134728  0.000176  0.996252  0.0
H  H79  1  0.93468452  0.04974503  0.21330034  1  0.066617  0.000471  0.09668  0.134898  0.000173  0.995833  0.0
H  H80  1  0.62185459  0.30086771  0.61624428  1  0.053766  0.000369  0.09881  0.140736  0.000103  1.009754  0.0
H  H81  1  0.18488294  0.00549866  0.88388413  1  0.058732  0.000366  0.098972  0.14144  0.0001  1.009575  0.0
H  H82  1  0.37814525  0.69912961  0.38375720  1  0.053704  0.00037  0.098826  0.140766  0.000103  1.009697  0.0
H  H83  1  0.81511542  0.99450520  0.11611590  1  0.058704  0.000366  0.098965  0.141443  0.0001  1.009606  0.0
C  C84  1  0.54154399  0.48166413  0.77908011  1  0.453432  0.002209  0.092571  0.193236  0.000949  4.036733  0.003
C  C85  1  0.20220403  0.76232129  0.72095243  1  0.43518  0.001893  0.093006  0.194579  0.000863  4.0341  0.003
C  C86  1  0.45845458  0.51833282  0.22092011  1  0.453349  0.00221  0.092582  0.193258  0.00095  4.036613  0.003
C  C87  1  0.79779571  0.23767716  0.27904801  1  0.435034  0.001893  0.092982  0.194509  0.000863  4.034028  0.003
C  C88  1  0.44965084  0.35626093  0.74828985  1  -0.033256  0.008683  -0.035046  -0.122657  0.004375  3.975949  0.006
C  C89  1  0.10761416  0.70124355  0.75173250  1  -0.001889  0.008623  -0.035353  -0.12489  0.004353  3.979745  0.006
C  C90  1  0.55035062  0.64373724  0.25171043  1  -0.033252  0.008683  -0.03506  -0.122657  0.004375  3.975897  0.006
C  C91  1  0.89238582  0.29876116  0.24826633  1  -0.001738  0.008624  -0.035383  -0.124944  0.004353  3.979675  0.006
C  C92  1  0.37496799  0.16475769  0.63363450  1  0.058957  0.008962  -0.033508  -0.118382  0.004516  3.972792  0.006
C  C93  1  0.03089422  0.74111649  0.86632254  1  0.059585  0.008936  -0.033588  -0.119122  0.004496  3.97383  0.006
C  C94  1  0.62503025  0.83523838  0.36636444  1  0.058847  0.008962  -0.033613  -0.118565  0.004516  3.972856  0.006
C  C95  1  0.96910769  0.25888570  0.13367820  1  0.05982  0.008935  -0.033566  -0.119036  0.004495  3.973812  0.006
C  C96  1  0.36088067  0.18882130  0.82301346  1  -0.067631  0.000803  -0.232534  -0.423751  0.000401  3.945321  0.0
C  C97  1  0.86557497  0.53810176  0.67702411  1  -0.082883  0.000807  -0.233331  -0.42523  0.000399  3.946991  0.0
C  C98  1  0.63911896  0.81117828  0.17698595  1  -0.067797  0.000804  -0.232533  -0.423766  0.000401  3.945293  0.0
C  C99  1  0.13442467  0.46190015  0.32297624  1  -0.082726  0.000807  -0.233296  -0.425194  0.000399  3.947076  0.0
C  C100  1  0.58038979  0.57744556  0.73525407  1  -0.036205  0.002329  -0.231576  -0.419044  0.001167  3.95456  0.002
C  C101  1  0.34172192  0.84492817  0.76478809  1  -0.024445  0.002309  -0.23187  -0.419349  0.001161  3.954842  0.002
C  C102  1  0.41960784  0.42255188  0.26474614  1  -0.036223  0.002329  -0.231608  -0.41905  0.001167  3.954623  0.002
C  C103  1  0.65827943  0.15507346  0.23521210  1  -0.024309  0.002308  -0.231807  -0.419216  0.001161  3.95483  0.002
C  C104  1  0.47222334  0.87211857  0.99193281  1  -0.02161  0.001185  -0.08773  -0.110543  0.000504  3.975927  0.001
C  C105  1  0.38040334  0.47995718  0.50827933  1  -0.11069  0.001204  -0.087356  -0.110262  0.000498  3.972307  0.001
C  C106  1  0.52776902  0.12787616  0.00806496  1  -0.02191  0.001185  -0.087786  -0.110563  0.000504  3.97617  0.001
C  C107  1  0.61960692  0.52004437  0.49172505  1  -0.110575  0.001203  -0.087355  -0.110277  0.000498  3.972145  0.001
C  C108  1  0.57900191  0.94748655  0.97570347  1  -0.061808  0.005327  -0.018729  -0.038869  0.002669  3.983397  0.004
C  C109  1  0.47160364  0.60319324  0.52441689  1  -0.085179  0.00532  -0.018632  -0.037268  0.002659  3.981896  0.004
C  C110  1  0.42099036  0.05251163  0.02429420  1  -0.061663  0.005327  -0.018673  -0.038864  0.002669  3.983441  0.004
C  C111  1  0.52840418  0.39680875  0.47558694  1  -0.085308  0.00532  -0.018625  -0.037042  0.00266  3.98167  0.004
C  C112  1  0.44399199  0.31074153  0.81527561  1  0.429137  0.008158  0.10309  0.207144  0.004468  3.968292  0.006
C  C113  1  0.99516722  0.62881886  0.68474091  1  0.430776  0.008055  0.103455  0.208503  0.00441  3.969112  0.006
C  C114  1  0.55600774  0.68925459  0.18472389  1  0.429356  0.008159  0.103111  0.207176  0.004469  3.968231  0.006
C  C115  1  0.00483270  0.37118312  0.31525785  1  0.430593  0.008056  0.103416  0.208466  0.00441  3.969146  0.006
C  C116  1  0.27095553  0.04648226  0.60759121  1  0.402657  0.000629  0.091736  0.195332  -0.000505  4.034777  0.001
C  C117  1  0.93849094  0.66310582  0.89222227  1  0.431621  0.00053  0.092035  0.196602  -0.000587  4.033869  0.001
C  C118  1  0.72904310  0.95351742  0.39240907  1  0.402632  0.000629  0.091773  0.195458  -0.000505  4.03457  0.001
C  C119  1  0.06150892  0.33689809  0.10777831  1  0.431501  0.00053  0.091936  0.196392  -0.000587  4.034043  0.001
C  C120  1  0.48244140  0.14029652  0.62913551  1  0.410729  0.00681  0.10672  0.214168  0.003717  3.961108  0.005
C  C121  1  0.01126034  0.85334495  0.87084476  1  0.410581  0.006732  0.106396  0.21206  0.003694  3.96363  0.005
C  C122  1  0.51755895  0.85970288  0.37086461  1  0.410736  0.00681  0.106727  0.214192  0.003717  3.961085  0.005
C  C123  1  0.98873852  0.14665907  0.12915669  1  0.410717  0.006731  0.106433  0.212072  0.003693  3.96351  0.005
C  C124  1  0.73224490  0.55221008  0.07826443  1  1.565658  0.001277  0.210591  0.565018  0.001174  4.214934  0.002
C  C125  1  0.97405307  0.65334042  0.42165434  1  1.564434  0.001254  0.210055  0.563713  0.001154  4.215854  0.002
C  C126  1  0.26775308  0.44779017  0.92173426  1  1.565636  0.001277  0.210532  0.564918  0.001174  4.215064  0.002
C  C127  1  0.02595199  0.34665881  0.57834672  1  1.564406  0.001254  0.210039  0.563689  0.001154  4.21575  0.002
C  C128  1  0.79619808  0.57901559  0.16697385  1  -0.021377  0.004924  -0.017321  -0.037648  0.002492  3.978264  0.004
C  C129  1  0.91203986  0.62887957  0.33300261  1  -0.01105  0.004888  -0.018392  -0.039912  0.002476  3.981384  0.004
C  C130  1  0.20380201  0.42098800  0.83302601  1  -0.021405  0.004924  -0.017309  -0.037626  0.002492  3.978388  0.004
C  C131  1  0.08796437  0.37112096  0.66699670  1  -0.011033  0.004887  -0.018396  -0.040012  0.002476  3.981382  0.004
C  C132  1  0.13312707  0.01297473  0.60025419  1  -0.05707  0.00224  -0.23172  -0.426416  0.001236  3.971214  0.001
C  C133  1  0.91199364  0.53235956  0.89942788  1  -0.07647  0.002229  -0.231484  -0.427822  0.001236  3.971173  0.001
C  C134  1  0.86687406  0.98702723  0.39974671  1  -0.056964  0.00224  -0.23176  -0.426517  0.001237  3.971106  0.001
C  C135  1  0.08800600  0.46764235  0.10057247  1  -0.076746  0.002229  -0.231448  -0.427691  0.001235  3.971222  0.001
C  C136  1  0.37227729  0.29047311  0.66134431  1  0.034137  0.001697  -0.150141  -0.156836  0.000993  4.003822  0.001
C  C137  1  0.12869407  0.71051368  0.83863496  1  0.000308  0.001698  -0.149238  -0.153242  0.00099  4.002376  0.001
C  C138  1  0.62772145  0.70952311  0.33865606  1  0.034369  0.001696  -0.150108  -0.156799  0.000993  4.003954  0.001
C  C139  1  0.87130436  0.28948825  0.16136325  1  0.000425  0.001698  -0.149207  -0.153164  0.00099  4.002333  0.001
C  C140  1  0.73598341  0.50151134  0.20866095  1  -0.044716  0.001332  -0.078567  -0.093086  0.000528  3.96454  0.001
C  C141  1  0.79278602  0.52720076  0.29130767  1  -0.067125  0.00133  -0.07803  -0.089849  0.000528  3.961965  0.001
C  C142  1  0.26401567  0.49849001  0.79133884  1  -0.044706  0.001332  -0.078555  -0.093088  0.000527  3.964529  0.001
C  C143  1  0.20721689  0.47280132  0.70869219  1  -0.067211  0.001331  -0.078029  -0.089819  0.000528  3.961915  0.001
C  C144  1  0.39402936  0.92453837  0.01629108  1  -0.08045  0.000601  -0.086083  -0.104595  2.2e-05  3.990774  0.001
C  C145  1  0.40862961  0.37752464  0.48378458  1  0.01499  0.00057  -0.08706  -0.108161  1.4e-05  3.993328  0.001
C  C146  1  0.60596190  0.07545758  0.98370653  1  -0.080066  0.000601  -0.086019  -0.104457  2.2e-05  3.990818  0.001
C  C147  1  0.59137955  0.62247813  0.51621965  1  0.014993  0.00057  -0.087079  -0.108112  1.4e-05  3.993324  0.001
C  C148  1  0.66526736  0.89140075  0.95176786  1  1.563417  0.001634  0.206402  0.562217  0.001614  4.233346  0.002
C  C149  1  0.43932969  0.71333649  0.54840972  1  1.552244  0.001658  0.206354  0.562302  0.001584  4.228481  0.002
C  C150  1  0.33472906  0.10859905  0.04823115  1  1.563446  0.001634  0.206431  0.562345  0.001614  4.233188  0.002
C  C151  1  0.56067775  0.28666656  0.45159467  1  1.552342  0.001658  0.206275  0.562138  0.001584  4.228519  0.002
C  C152  1  0.91484784  0.68196363  0.20884712  1  0.018311  0.000202  -0.089138  -0.106209  -0.00016  3.988446  0.0
C  C153  1  0.97324427  0.70570005  0.29117916  1  -0.154054  0.000194  -0.08864  -0.10384  -0.000158  3.990368  0.0
C  C154  1  0.08515170  0.31803940  0.79115219  1  0.018641  0.000202  -0.089133  -0.106183  -0.00016  3.98846  0.0
C  C155  1  0.02675575  0.29429847  0.70881969  1  -0.154381  0.000194  -0.088606  -0.103755  -0.000158  3.99034  0.0
C  C156  1  0.61860443  0.22889892  0.64911396  1  -0.060127  0.001001  -0.226604  -0.419509  0.000559  3.956844  0.001
C  C157  1  0.08017919  0.96963069  0.85096497  1  -0.06552  0.001006  -0.226509  -0.419691  0.000558  3.956676  0.001
C  C158  1  0.38139453  0.77109930  0.35088665  1  -0.060141  0.001001  -0.226617  -0.419566  0.000559  3.956802  0.001
C  C159  1  0.91981867  0.03037109  0.14903642  1  -0.065482  0.001006  -0.226531  -0.419685  0.000558  3.9566  0.001
N  N160  1  0.52970891  0.40545198  0.88046897  1  -0.85623  0.00696  -0.279743  -0.141763  0.00292  3.6812  0.004
N  N161  1  0.02471085  0.64936052  0.61955794  1  -0.851268  0.006912  -0.280775  -0.142942  0.002918  3.678605  0.004
N  N162  1  0.47029089  0.59454453  0.11952965  1  -0.856238  0.00696  -0.279713  -0.141753  0.00292  3.681211  0.004
N  N163  1  0.97528989  0.35064016  0.38044257  1  -0.851244  0.006912  -0.280792  -0.142952  0.002918  3.67857  0.004
N  N164  1  0.59002204  0.50957801  0.85982999  1  -0.762203  0.073716  -0.281667  -0.281721  0.039195  3.626892  0.048
N  N165  1  0.14943377  0.73015975  0.64019770  1  -0.807523  0.073749  -0.281248  -0.281637  0.039151  3.625796  0.048
N  N166  1  0.40997665  0.49041974  0.14016847  1  -0.762218  0.073715  -0.281725  -0.28181  0.039196  3.626937  0.048
N  N167  1  0.85056730  0.26983948  0.35980313  1  -0.807651  0.073753  -0.281244  -0.281645  0.03915  3.625805  0.048
N  N168  1  0.31271426  0.95590005  0.58840975  1  -0.756795  0.073823  -0.285187  -0.281784  0.03927  3.62146  0.048
N  N169  1  0.86733465  0.72429923  0.91138063  1  -0.763757  0.074212  -0.285333  -0.281905  0.039236  3.619704  0.049
N  N170  1  0.68728382  0.04409674  0.41158903  1  -0.756908  0.073823  -0.285254  -0.28193  0.039271  3.62162  0.048
N  N171  1  0.13266420  0.27570245  0.08861988  1  -0.763665  0.074208  -0.285271  -0.28181  0.039235  3.619642  0.049
N  N172  1  0.44067042  0.01435646  0.60175452  1  -0.847975  0.007517  -0.273769  -0.137031  0.003227  3.678157  0.005
N  N173  1  0.91273715  0.83908154  0.89814855  1  -0.850168  0.007549  -0.273372  -0.134838  0.003237  3.677831  0.005
N  N174  1  0.55932811  0.98564202  0.39824377  1  -0.847942  0.007518  -0.273757  -0.136939  0.003227  3.678135  0.005
N  N175  1  0.08726248  0.16092036  0.10185180  1  -0.850571  0.00755  -0.273401  -0.134862  0.003237  3.677682  0.005
O  O176  1  0.63967877  0.44833191  0.03967135  1  -1.186483  0.004874  -0.303697  -0.528732  0.001934  2.20018  0.004
O  O177  1  0.90887566  0.59942259  0.46030891  1  -1.181876  0.004814  -0.30334  -0.527685  0.001894  2.198995  0.003
O  O178  1  0.36031837  0.55166772  0.96032837  1  -1.186452  0.004873  -0.303672  -0.528715  0.001934  2.200229  0.004
O  O179  1  0.09112602  0.40057759  0.53969160  1  -1.18191  0.004814  -0.303345  -0.527686  0.001893  2.198931  0.003
O  O180  1  0.78028326  0.64275920  0.04823724  1  -1.154337  0.105247  -0.332468  -0.563033  0.053518  2.413916  0.08
O  O181  1  0.09460863  0.73119611  0.45161648  1  -1.157903  0.105209  -0.332162  -0.562392  0.053422  2.414941  0.08
O  O182  1  0.21971238  0.35724037  0.95176194  1  -1.154264  0.105246  -0.332465  -0.562992  0.05352  2.413926  0.08
O  O183  1  0.90539808  0.26880012  0.54838435  1  -1.157876  0.105213  -0.332203  -0.562412  0.053423  2.414854  0.08
O  O184  1  0.75893563  0.95594467  0.93467712  1  -1.181312  0.005599  -0.322795  -0.548056  0.002353  2.131109  0.004
O  O185  1  0.52072222  0.82420418  0.56520072  1  -1.174952  0.005602  -0.321836  -0.547368  0.002356  2.129627  0.004
O  O186  1  0.24106489  0.04406100  0.06532600  1  -1.181314  0.005597  -0.32284  -0.548135  0.002352  2.131125  0.004
O  O187  1  0.47928104  0.17579838  0.43479667  1  -1.175  0.0056  -0.321805  -0.54733  0.002355  2.129626  0.004
O  O188  1  0.63277429  0.77431827  0.95204829  1  -1.146294  0.114906  -0.331899  -0.551416  0.058318  2.450075  0.088
O  O189  1  0.32228618  0.68048070  0.54847064  1  -1.14413  0.114542  -0.332137  -0.551257  0.058155  2.447108  0.087
O  O190  1  0.36721899  0.22567708  0.04794383  1  -1.146394  0.114907  -0.331914  -0.551469  0.058317  2.45005  0.088
O  O191  1  0.67772498  0.31951882  0.45154028  1  -1.144137  0.11454  -0.332051  -0.551246  0.058156  2.447095  0.087
