# generated using pymatgen
data_CuH4C3IN
_symmetry_space_group_name_H-M   'P 1'
_cell_length_a   6.73449614
_cell_length_b   9.81922509
_cell_length_c   14.96444807
_cell_angle_alpha   90.00069054
_cell_angle_beta   89.99972258
_cell_angle_gamma   89.99933739
_symmetry_Int_Tables_number   1
_chemical_formula_structural   CuH4C3IN
_chemical_formula_sum   'Cu8 H32 C24 I8 N8'
_cell_volume   989.56203932
_cell_formula_units_Z   8
loop_
 _symmetry_equiv_pos_site_id
 _symmetry_equiv_pos_as_xyz
  1  'x, y, z'
loop_
 _atom_site_type_symbol
 _atom_site_label
 _atom_site_symmetry_multiplicity
 _atom_site_fract_x
 _atom_site_fract_y
 _atom_site_fract_z
 _atom_site_occupancy
 _atom_site_pbe_bader_spin_density
 _atom_site_pbe_cm5_charge
 _atom_site_pbe_ddec_charge
 _atom_site_pbe_ddec_spin_density
 _atom_site_pbe_ddec_sum_bond_order
 _atom_site_pbe_magmom
Cu  Cu0  1  0.56890704  0.59755489  0.67809167  1  0  0.246514  0.206729  0  2.57496  0
Cu  Cu1  1  0.56890640  0.40246540  0.82190238  1  0  0.24647  0.206745  0  2.574904  0
Cu  Cu2  1  0.93107354  0.40244300  0.17809942  1  0  0.246571  0.206852  0  2.575088  0
Cu  Cu3  1  0.93108155  0.59752381  0.32189437  1  0  0.246428  0.206676  0  2.574759  0
Cu  Cu4  1  0.43108288  0.40244323  0.32189879  1  0  0.246547  0.206823  0  2.574858  0
Cu  Cu5  1  0.43107461  0.59752966  0.17809610  1  0  0.24649  0.206753  0  2.574779  0
Cu  Cu6  1  0.06891489  0.59754697  0.82190440  1  0  0.246485  0.206707  0  2.574983  0
Cu  Cu7  1  0.06892024  0.40247227  0.67809943  1  0  0.246491  0.206756  0  2.574864  0
H  H8  1  0.75002080  0.53458734  0.50000312  1  0  0.102391  0.061442  0  1.046222  0
H  H9  1  0.74994684  0.46540844  0.00001446  1  0  0.102358  0.061364  0  1.046444  0
H  H10  1  0.25000772  0.46541791  0.49999804  1  0  0.102314  0.061198  0  1.046581  0
H  H11  1  0.24997568  0.53457987  0.00000394  1  0  0.102372  0.061422  0  1.046201  0
H  H12  1  0.75002499  0.02855250  0.49999101  1  0  0.106626  0.135819  0  0.996887  0
H  H13  1  0.75000560  0.97147040  0.99998594  1  0  0.106738  0.136194  0  0.996875  0
H  H14  1  0.25000651  0.97146803  0.50001015  1  0  0.106764  0.136184  0  0.996914  0
H  H15  1  0.25002441  0.02853994  0.00000452  1  0  0.106778  0.136105  0  0.996774  0
H  H16  1  0.62413504  0.02828749  0.64851984  1  0  0.084489  0.135499  0  1.030815  0
H  H17  1  0.62408903  0.97173337  0.85146473  1  0  0.084372  0.135403  0  1.03118  0
H  H18  1  0.87590376  0.97171803  0.14851771  1  0  0.084427  0.135528  0  1.031028  0
H  H19  1  0.87590009  0.02827877  0.35146685  1  0  0.084438  0.135477  0  1.030834  0
H  H20  1  0.37586527  0.97171572  0.35148265  1  0  0.084507  0.135562  0  1.030928  0
H  H21  1  0.37590534  0.02825762  0.14853910  1  0  0.084425  0.135561  0  1.031081  0
H  H22  1  0.12410843  0.02827500  0.85148611  1  0  0.084423  0.135445  0  1.03095  0
H  H23  1  0.12411953  0.97174176  0.64853698  1  0  0.084496  0.135574  0  1.031166  0
H  H24  1  0.48209195  0.88103792  0.68096641  1  0  0.084736  0.138836  0  1.039347  0
H  H25  1  0.48205445  0.11900140  0.81902115  1  0  0.084868  0.139082  0  1.039119  0
H  H26  1  0.01793851  0.11897526  0.18096137  1  0  0.084781  0.138923  0  1.039177  0
H  H27  1  0.01793593  0.88100504  0.31901772  1  0  0.084799  0.138984  0  1.039126  0
H  H28  1  0.51791876  0.11897242  0.31902673  1  0  0.08476  0.138949  0  1.039306  0
H  H29  1  0.51792062  0.88100690  0.18097733  1  0  0.084811  0.138996  0  1.039185  0
H  H30  1  0.98207962  0.88101776  0.81903711  1  0  0.084776  0.138894  0  1.039267  0
H  H31  1  0.98208369  0.11900020  0.68098544  1  0  0.084782  0.138945  0  1.03924  0
H  H32  1  0.73306964  0.89196879  0.71166628  1  0  0.090894  0.144438  0  1.027892  0
H  H33  1  0.73302077  0.10805832  0.78832407  1  0  0.090874  0.144318  0  1.028082  0
H  H34  1  0.76697443  0.10803682  0.21166662  1  0  0.090837  0.144358  0  1.02794  0
H  H35  1  0.76695566  0.89194966  0.28832487  1  0  0.090885  0.144341  0  1.02816  0
H  H36  1  0.26693364  0.10803849  0.28833020  1  0  0.090847  0.144358  0  1.028  0
H  H37  1  0.26696618  0.89193980  0.21167775  1  0  0.090866  0.144234  0  1.027956  0
H  H38  1  0.23304518  0.89195926  0.78833253  1  0  0.090899  0.144419  0  1.028023  0
H  H39  1  0.23305802  0.10806170  0.71167161  1  0  0.090867  0.144337  0  1.02814  0
C  C40  1  0.75002285  0.64588940  0.49999756  1  0  0.163923  0.242353  0  3.932281  0
C  C41  1  0.74996112  0.35412369  0.00001334  1  0  0.163988  0.242495  0  3.932203  0
C  C42  1  0.25000567  0.35413520  0.50000159  1  0  0.163933  0.242552  0  3.932042  0
C  C43  1  0.24998663  0.64588499  0.00001108  1  0  0.164023  0.24251  0  3.932043  0
C  C44  1  0.68855220  0.84625541  0.57539115  1  0  0.125835  0.35381  0  3.935585  0
C  C45  1  0.68853378  0.15374151  0.92460999  1  0  0.125734  0.353546  0  3.934446  0
C  C46  1  0.81144879  0.15372947  0.07537506  1  0  0.125747  0.353505  0  3.934804  0
C  C47  1  0.81146792  0.84625257  0.42460096  1  0  0.125824  0.353489  0  3.93592  0
C  C48  1  0.31144514  0.15372031  0.42461268  1  0  0.125718  0.353645  0  3.934613  0
C  C49  1  0.31146653  0.84625457  0.07539317  1  0  0.125669  0.353346  0  3.934831  0
C  C50  1  0.18854707  0.84625439  0.92461206  1  0  0.125706  0.353568  0  3.935041  0
C  C51  1  0.18855467  0.15375064  0.57538617  1  0  0.125689  0.353473  0  3.934552  0
C  C52  1  0.74999685  0.91750961  0.49998933  1  0  -0.091126  -0.287084  0  3.87753  0
C  C53  1  0.75000256  0.08246338  0.99999430  1  0  -0.09114  -0.287349  0  3.877845  0
C  C54  1  0.24999753  0.08246407  0.50000447  1  0  -0.091211  -0.287416  0  3.877796  0
C  C55  1  0.25001557  0.91752862  0.00000618  1  0  -0.091166  -0.287204  0  3.877097  0
C  C56  1  0.62779680  0.91764287  0.65818574  1  0  -0.249534  -0.459725  0  3.924481  0
C  C57  1  0.62774779  0.08235657  0.84179682  1  0  -0.249557  -0.459698  0  3.924331  0
C  C58  1  0.87223151  0.08233736  0.15818965  1  0  -0.249479  -0.459585  0  3.92408  0
C  C59  1  0.87222807  0.91763503  0.34179960  1  0  -0.24954  -0.459724  0  3.924492  0
C  C60  1  0.37222430  0.08234201  0.34180272  1  0  -0.249461  -0.459674  0  3.924481  0
C  C61  1  0.37224361  0.91764155  0.15819498  1  0  -0.249532  -0.459666  0  3.924419  0
C  C62  1  0.12778662  0.91764549  0.84180883  1  0  -0.249482  -0.459549  0  3.92434  0
C  C63  1  0.12778115  0.08235800  0.65820623  1  0  -0.249636  -0.459821  0  3.924442  0
I  I64  1  0.18845654  0.65532861  0.65642965  1  0  -0.169799  -0.316852  0  2.358011  0
I  I65  1  0.18844028  0.34470493  0.84357927  1  0  -0.169766  -0.316809  0  2.358058  0
I  I66  1  0.31152667  0.34467599  0.15642516  1  0  -0.169809  -0.316915  0  2.357982  0
I  I67  1  0.31154834  0.65529583  0.34358202  1  0  -0.169805  -0.316869  0  2.35775  0
I  I68  1  0.81153932  0.34467358  0.34357218  1  0  -0.169819  -0.316883  0  2.357964  0
I  I69  1  0.81154815  0.65528504  0.15641854  1  0  -0.169776  -0.316864  0  2.358021  0
I  I70  1  0.68843949  0.65532213  0.84357199  1  0  -0.169801  -0.316874  0  2.357869  0
I  I71  1  0.68844603  0.34470432  0.65642247  1  0  -0.169784  -0.316858  0  2.35795  0
N  N72  1  0.68741592  0.70778216  0.57480519  1  0  -0.353981  -0.278919  0  3.542598  0
N  N73  1  0.68738629  0.29224226  0.92519462  1  0  -0.354011  -0.278982  0  3.541622  0
N  N74  1  0.81257171  0.29224141  0.07481297  1  0  -0.353977  -0.278866  0  3.541827  0
N  N75  1  0.81259758  0.70777728  0.42519245  1  0  -0.353985  -0.278794  0  3.542515  0
N  N76  1  0.31258736  0.29224142  0.42519129  1  0  -0.353933  -0.278973  0  3.541257  0
N  N77  1  0.31258729  0.70775178  0.07481389  1  0  -0.354044  -0.278867  0  3.542022  0
N  N78  1  0.18739891  0.70777096  0.92519554  1  0  -0.353944  -0.278973  0  3.542135  0
N  N79  1  0.18741313  0.29225241  0.57481538  1  0  -0.353886  -0.27873  0  3.541745  0
