# generated using pymatgen
data_Zn4H24C48O13
_symmetry_space_group_name_H-M   'P 1'
_cell_length_a   18.26867860
_cell_length_b   18.52079412
_cell_length_c   18.37024344
_cell_angle_alpha   120.32241736
_cell_angle_beta   119.40702823
_cell_angle_gamma   90.05500753
_symmetry_Int_Tables_number   1
_chemical_formula_structural   Zn4H24C48O13
_chemical_formula_sum   'Zn8 H48 C96 O26'
_cell_volume   4410.62117990
_cell_formula_units_Z   2
loop_
 _symmetry_equiv_pos_site_id
 _symmetry_equiv_pos_as_xyz
  1  'x, y, z'
loop_
 _atom_site_type_symbol
 _atom_site_label
 _atom_site_symmetry_multiplicity
 _atom_site_fract_x
 _atom_site_fract_y
 _atom_site_fract_z
 _atom_site_occupancy
 _atom_site_pbe_bader_charge
 _atom_site_pbe_bader_spin_density
 _atom_site_pbe_cm5_charge
 _atom_site_pbe_ddec_charge
 _atom_site_pbe_ddec_spin_density
 _atom_site_pbe_ddec_sum_bond_order
 _atom_site_pbe_magmom
Zn  Zn0  1  0.94077841  0.84975084  0.89600534  1  1.310521  0  0.668741  0.955706  0  2.389857  0
Zn  Zn1  1  0.94093153  0.02068168  0.07655666  1  1.301131  0  0.669604  0.960824  0  2.370847  0
Zn  Zn2  1  0.93874220  0.02518016  0.90299912  1  1.308631  0  0.669292  0.956871  0  2.386729  0
Zn  Zn3  1  0.11515823  0.02299115  0.07309512  1  1.301525  0  0.66973  0.960116  0  2.374787  0
Zn  Zn4  1  0.52814038  0.60999743  0.07212905  1  1.296669  0  0.669355  0.958971  0  2.379084  0
Zn  Zn5  1  0.52915080  0.43192031  0.89999726  1  1.314233  0  0.669559  0.960223  0  2.370264  0
Zn  Zn6  1  0.35331509  0.43638812  0.89911514  1  1.309732  0  0.668625  0.956762  0  2.384  0
Zn  Zn7  1  0.52551525  0.44031559  0.07779629  1  1.300421  0  0.669036  0.957585  0  2.383721  0
H  H8  1  0.69001748  0.80896202  0.83367147  1  0.044895  0  0.099947  0.099214  0  1.011934  0
H  H9  1  0.52697598  0.75267026  0.71317050  1  0.07432  0  0.097535  0.089451  0  1.009852  0
H  H10  1  0.43250145  0.65623868  0.71469281  1  0.047163  0  0.097625  0.09017  0  1.011408  0
H  H11  1  0.50156904  0.61604129  0.83628120  1  0.041634  0  0.099618  0.098263  0  1.013108  0
H  H12  1  0.77490391  0.63046637  0.11667340  1  0.045436  0  0.099653  0.098579  0  1.011228  0
H  H13  1  0.93810607  0.68568275  0.23613863  1  0.024993  0  0.097333  0.089191  0  1.011525  0
H  H14  1  0.03223373  0.78516556  0.23756742  1  0.059751  0  0.097584  0.089534  0  1.012129  0
H  H15  1  0.96302010  0.82827412  0.11884516  1  0.045927  0  0.099827  0.098234  0  1.0124  0
H  H16  1  0.96467505  0.82138963  0.67641608  1  0.119879  0  0.099512  0.099204  0  1.013148  0
H  H17  1  0.03171908  0.76560388  0.57875921  1  0.029456  0  0.097276  0.089495  0  1.008953  0
H  H18  1  0.93515037  0.67035548  0.38690744  1  0.037099  0  0.096833  0.088803  0  1.010607  0
H  H19  1  0.77195323  0.63157129  0.29345538  1  0.052514  0  0.099356  0.098166  0  1.012455  0
H  H20  1  0.50220985  0.64861565  0.29820673  1  -0.025088  0  0.099907  0.099535  0  1.011662  0
H  H21  1  0.43502389  0.70508022  0.39564637  1  0.061058  0  0.097473  0.089465  0  1.007333  0
H  H22  1  0.53162952  0.80361666  0.58756468  1  0.0548  0  0.097711  0.090518  0  1.007475  0
H  H23  1  0.69488668  0.84471885  0.68112606  1  0.067672  0  0.099754  0.100204  0  1.013079  0
H  H24  1  0.12631986  0.81819703  0.10834118  1  0.054257  0  0.099466  0.097656  0  1.013888  0
H  H25  1  0.16270486  0.76292501  0.21469282  1  0.047415  0  0.096913  0.088507  0  1.014852  0
H  H26  1  0.25802191  0.66606077  0.21519217  1  0.032592  0  0.097421  0.089486  0  1.010968  0
H  H27  1  0.31671976  0.62509713  0.10947034  1  0.055953  0  0.099615  0.098901  0  1.012804  0
H  H28  1  0.34047223  0.63948628  0.85764376  1  0.03244  0  0.09995  0.099273  0  1.011843  0
H  H29  1  0.29942053  0.69011755  0.74638336  1  0.040208  0  0.09722  0.089069  0  1.013275  0
H  H30  1  0.20135491  0.78421285  0.74300484  1  0.049401  0  0.097325  0.089112  0  1.008238  0
H  H31  1  0.14595525  0.82852107  0.85222975  1  0.035923  0  0.100089  0.099686  0  1.009735  0
H  H32  1  0.69918791  0.00337668  0.88179103  1  0.050443  0  0.099898  0.099365  0  1.011864  0
H  H33  1  0.53649869  0.93616021  0.77727742  1  0.021105  0  0.097775  0.090362  0  1.009193  0
H  H34  1  0.43927212  0.03122763  0.77504116  1  0.060551  0  0.097466  0.089268  0  1.013819  0
H  H35  1  0.50529534  0.19301200  0.87697978  1  0.064516  0  0.099798  0.09922  0  1.013971  0
H  H36  1  0.77424018  0.46226948  0.11966425  1  0.061127  0  0.099923  0.098981  0  1.012504  0
H  H37  1  0.93719587  0.52971826  0.22604820  1  0.04317  0  0.097072  0.088806  0  1.011784  0
H  H38  1  0.03434226  0.43488171  0.22949445  1  0.036276  0  0.096725  0.087759  0  1.015476  0
H  H39  1  0.96832292  0.27284362  0.12640620  1  0.052205  0  0.099911  0.098828  0  1.011663  0
H  H40  1  0.12291341  0.26081151  0.29434407  1  0.057544  0  0.099323  0.097983  0  1.014309  0
H  H41  1  0.15655573  0.42268065  0.38866315  1  0.06057  0  0.097269  0.090062  0  1.010759  0
H  H42  1  0.25310295  0.52000144  0.58056295  1  0.060973  0  0.097264  0.089777  0  1.011834  0
H  H43  1  0.31528620  0.45510656  0.67720387  1  0.027106  0  0.099493  0.099956  0  1.014481  0
H  H44  1  0.34970847  0.18887209  0.67951419  1  0.028048  0  0.099551  0.099516  0  1.012996  0
H  H45  1  0.31343731  0.02685507  0.58496767  1  0.044613  0  0.097834  0.090266  0  1.006919  0
H  H46  1  0.21566462  0.92961273  0.39309306  1  0.007431  0  0.097015  0.089542  0  1.010556  0
H  H47  1  0.15433196  0.99495843  0.29662857  1  0.049915  0  0.099467  0.099009  0  1.011425  0
H  H48  1  0.13427236  0.00061030  0.84704691  1  0.053397  0  0.099779  0.098593  0  1.01219  0
H  H49  1  0.17953800  0.93516363  0.72780724  1  0.020502  0  0.09772  0.090043  0  1.009815  0
H  H50  1  0.27343813  0.03240193  0.72661992  1  0.028951  0  0.09771  0.089528  0  1.011053  0
H  H51  1  0.32234018  0.19459393  0.84521984  1  0.050868  0  0.099638  0.098577  0  1.012634  0
H  H52  1  0.32447146  0.46251321  0.12310395  1  0.051066  0  0.100028  0.099884  0  1.01026  0
H  H53  1  0.27590783  0.52785847  0.23920017  1  0.046008  0  0.097356  0.089465  0  1.009423  0
H  H54  1  0.18127222  0.43049664  0.23949189  1  0.023961  0  0.096983  0.088743  0  1.012976  0
H  H55  1  0.13505415  0.26823333  0.12336057  1  0.057765  0  0.09995  0.099067  0  1.012275  0
C  C56  1  0.84207400  0.83670239  0.97874192  1  1.584656  0  0.233627  0.620421  0  4.190506  0
C  C57  1  0.78520094  0.77696017  0.97733039  1  0.005559  0  -0.004027  -0.11094  0  3.905133  0
C  C58  1  0.69221509  0.74564747  0.90717534  1  0.024484  0  0.001622  0.064062  0  3.976197  0
C  C59  1  0.64938113  0.76750307  0.83546272  1  -0.008364  0  -0.088366  -0.122103  0  3.975944  0
C  C60  1  0.55838460  0.73614396  0.76825603  1  -0.077068  0  -0.093408  -0.082584  0  4.042125  0
C  C61  1  0.50470471  0.68122932  0.76898542  1  -0.037992  0  -0.093663  -0.083902  0  4.04422  0
C  C62  1  0.54325314  0.65873875  0.83677216  1  -0.003066  0  -0.0875  -0.120669  0  3.976161  0
C  C63  1  0.63771537  0.68956730  0.90767700  1  -0.047022  0  0.001468  0.063364  0  3.974888  0
C  C64  1  0.67935418  0.66722477  0.97760177  1  0.008356  0  -0.003666  -0.110161  0  3.90362  0
C  C65  1  0.62257669  0.61111560  0.98006312  1  1.576108  0  0.233422  0.619588  0  4.192983  0
C  C66  1  0.77245099  0.69724947  0.04649722  1  -0.02592  0  0.001507  0.063866  0  3.974321  0
C  C67  1  0.81545211  0.67371686  0.11662625  1  -0.017195  0  -0.087453  -0.120766  0  3.974028  0
C  C68  1  0.90649082  0.70441251  0.18318095  1  0.003428  0  -0.093745  -0.08343  0  4.043526  0
C  C69  1  0.95999055  0.76078888  0.18381620  1  -0.054614  0  -0.093279  -0.082625  0  4.042735  0
C  C70  1  0.92131220  0.78481827  0.11754352  1  -0.045367  0  -0.087466  -0.119618  0  3.973208  0
C  C71  1  0.82685414  0.75409721  0.04674152  1  0.046032  0  0.00175  0.063558  0  3.97461  0
C  C72  1  0.84529065  0.84663863  0.71000454  1  1.529006  0  0.232366  0.61731  0  4.188705  0
C  C73  1  0.78765208  0.79060122  0.59507650  1  0.022261  0  -0.004038  -0.11215  0  3.903889  0
C  C74  1  0.82798645  0.75923474  0.54162836  1  0.070105  0  0.002061  0.066362  0  3.972742  0
C  C75  1  0.92225670  0.78026604  0.59274796  1  -0.033428  0  -0.088174  -0.12225  0  3.974858  0
C  C76  1  0.95954659  0.74908015  0.53830387  1  0.036453  0  -0.093455  -0.083054  0  4.04151  0
C  C77  1  0.90463344  0.69491016  0.42921378  1  -0.136382  0  -0.093293  -0.082446  0  4.043641  0
C  C78  1  0.81376612  0.67320732  0.37717505  1  0.019695  0  -0.087823  -0.121345  0  3.977669  0
C  C79  1  0.77224676  0.70417555  0.43084507  1  -0.075223  0  0.00148  0.062484  0  3.974732  0
C  C80  1  0.67929629  0.68242045  0.37971023  1  0.024042  0  -0.00318  -0.108387  0  3.901054  0
C  C81  1  0.62145442  0.62349600  0.26472385  1  1.515321  0  0.232266  0.615891  0  4.194438  0
C  C82  1  0.63900915  0.71345685  0.43318596  1  0.043225  0  0.001327  0.064829  0  3.972336  0
C  C83  1  0.54464975  0.69114874  0.38191019  1  0.052273  0  -0.088429  -0.1247  0  3.977251  0
C  C84  1  0.50722518  0.72252441  0.43618257  1  -0.064693  0  -0.093117  -0.080188  0  4.040777  0
C  C85  1  0.56213253  0.77833890  0.54526761  1  -0.085941  0  -0.093499  -0.084574  0  4.042198  0
C  C86  1  0.65309955  0.80120097  0.59746401  1  0.013095  0  -0.088423  -0.122632  0  3.975156  0
C  C87  1  0.69474626  0.76979366  0.54394980  1  -0.037977  0  0.002482  0.064756  0  3.974814  0
C  C88  1  0.12262890  0.84100018  0.98260822  1  1.56359  0  0.232356  0.616676  0  4.196801  0
C  C89  1  0.17989803  0.78312232  0.98271898  1  -0.03234  0  -0.003478  -0.109443  0  3.905707  0
C  C90  1  0.20046529  0.75364368  0.04544441  1  0.062397  0  0.001525  0.062645  0  3.976973  0
C  C91  1  0.16836138  0.77639428  0.10853846  1  -0.011961  0  -0.08769  -0.119897  0  3.975305  0
C  C92  1  0.18875100  0.74567554  0.16798197  1  -0.073424  0  -0.093582  -0.083439  0  4.043465  0
C  C93  1  0.24291396  0.69065185  0.16825618  1  -0.009713  0  -0.093414  -0.082326  0  4.044271  0
C  C94  1  0.27554674  0.66770993  0.10918156  1  -0.010867  0  -0.088099  -0.12249  0  3.976113  0
C  C95  1  0.25570840  0.69798789  0.04595941  1  -0.001774  0  0.002315  0.064582  0  3.976505  0
C  C96  1  0.28782706  0.67544759  0.98429816  1  -0.000222  0  -0.003589  -0.109731  0  3.904768  0
C  C97  1  0.34566125  0.61810734  0.98537900  1  1.557532  0  0.232531  0.617551  0  4.195577  0
C  C98  1  0.26661359  0.70426842  0.92088735  1  -0.025685  0  0.002362  0.064328  0  3.975569  0
C  C99  1  0.29769839  0.68052621  0.85670830  1  -0.01022  0  -0.087785  -0.121465  0  3.976185  0
C  C100  1  0.27465369  0.70861946  0.79449553  1  -0.00208  0  -0.093404  -0.083263  0  4.044588  0
C  C101  1  0.21915944  0.76234887  0.79284466  1  -0.047302  0  -0.093328  -0.082496  0  4.043689  0
C  C102  1  0.18830655  0.78709343  0.85379689  1  -0.024155  0  -0.087717  -0.121598  0  3.975255  0
C  C103  1  0.21071046  0.75933229  0.91971391  1  0.030886  0  0.001707  0.063774  0  3.975374  0
C  C104  1  0.84896037  0.12196653  0.99989493  1  1.561074  0  0.23309  0.618744  0  4.194313  0
C  C105  1  0.79129265  0.17952418  0.00179634  1  -0.010436  0  -0.003553  -0.110937  0  3.903688  0
C  C106  1  0.69847982  0.13902637  0.94126376  1  0.0191  0  0.002085  0.063584  0  3.973719  0
C  C107  1  0.65733177  0.04531379  0.88057331  1  0.006537  0  -0.088014  -0.121873  0  3.97532  0
C  C108  1  0.56652666  0.00778051  0.82220081  1  0.002086  0  -0.093136  -0.082692  0  4.043551  0
C  C109  1  0.51129833  0.06178284  0.82091040  1  -0.118611  0  -0.093284  -0.081764  0  4.042243  0
C  C110  1  0.54816284  0.15207676  0.87789923  1  -0.018905  0  -0.088469  -0.123928  0  3.976063  0
C  C111  1  0.64235349  0.19384653  0.93972334  1  -0.014207  0  0.002013  0.066355  0  3.971349  0
C  C112  1  0.68218190  0.28610546  0.99860181  1  0.00286  0  -0.003737  -0.110755  0  3.900902  0
C  C113  1  0.62385912  0.34291043  0.99540363  1  1.537057  0  0.23299  0.620108  0  4.189565  0
C  C114  1  0.77504814  0.32666962  0.05988491  1  0.018922  0  0.001934  0.062964  0  3.974151  0
C  C115  1  0.81616207  0.42038951  0.12087094  1  -0.127351  0  -0.08769  -0.121268  0  3.976311  0
C  C116  1  0.90701864  0.45802768  0.18028555  1  0.073574  0  -0.093626  -0.082525  0  4.042771  0
C  C117  1  0.96224151  0.40408606  0.18218673  1  -0.013358  0  -0.093483  -0.083152  0  4.044419  0
C  C118  1  0.92540496  0.31373873  0.12456445  1  -0.125818  0  -0.088054  -0.121777  0  3.975896  0
C  C119  1  0.83118439  0.27188105  0.06169897  1  0.115088  0  0.001195  0.065322  0  3.974733  0
C  C120  1  0.12374012  0.11252531  0.26436016  1  1.618224  0  0.232821  0.617931  0  4.192925  0
C  C121  1  0.18167340  0.17046994  0.37939476  1  -0.056593  0  -0.003525  -0.110125  0  3.902802  0
C  C122  1  0.20006801  0.26267665  0.43112616  1  0.002879  0  0.001768  0.062945  0  3.974686  0
C  C123  1  0.16543063  0.30299918  0.37803445  1  -0.120147  0  -0.088409  -0.121817  0  3.979028  0
C  C124  1  0.18427279  0.39315222  0.43055634  1  0.046783  0  -0.093269  -0.082407  0  4.041101  0
C  C125  1  0.23917988  0.44848104  0.53963265  1  -0.039579  0  -0.093706  -0.082691  0  4.039963  0
C  C126  1  0.27390283  0.41233602  0.59353482  1  -0.01465  0  -0.08865  -0.124851  0  3.974925  0
C  C127  1  0.25579812  0.31881279  0.54191531  1  -0.013164  0  0.00235  0.067731  0  3.96933  0
C  C128  1  0.29072612  0.27969726  0.59486068  1  0.003755  0  -0.004441  -0.113794  0  3.901397  0
C  C129  1  0.34800871  0.33789989  0.70984442  1  1.579562  0  0.232753  0.618932  0  4.185083  0
C  C130  1  0.27236631  0.18746497  0.54303947  1  -0.012736  0  0.002228  0.065619  0  3.97191  0
C  C131  1  0.30638340  0.14683925  0.59588199  1  0.013172  0  -0.088325  -0.122111  0  3.974329  0
C  C132  1  0.28620810  0.05653148  0.54315288  1  0.020753  0  -0.093396  -0.082385  0  4.040324  0
C  C133  1  0.23069272  0.00126947  0.43406947  1  -0.064829  0  -0.093564  -0.083846  0  4.042993  0
C  C134  1  0.19666165  0.03765175  0.38033720  1  -0.013108  0  -0.08849  -0.123051  0  3.976218  0
C  C135  1  0.21592173  0.13129592  0.43227588  1  0.015457  0  0.001565  0.06488  0  3.974189  0
C  C136  1  0.12046582  0.11869153  0.98633634  1  1.556901  0  0.233418  0.619254  0  4.193557  0
C  C137  1  0.17701002  0.17695085  0.98592605  1  -0.033134  0  -0.003985  -0.110715  0  3.906523  0
C  C138  1  0.20225918  0.13747107  0.91736244  1  0.064022  0  0.001885  0.06368  0  3.975213  0
C  C139  1  0.17565683  0.04355554  0.84749339  1  -0.097496  0  -0.087898  -0.120782  0  3.976145  0
C  C140  1  0.20095031  0.00702168  0.78102606  1  0.044185  0  -0.093751  -0.083899  0  4.045233  0
C  C141  1  0.25454957  0.06228955  0.78057179  1  0.021892  0  -0.093501  -0.082552  0  4.042626  0
C  C142  1  0.28180643  0.15280942  0.84674822  1  -0.058317  0  -0.087923  -0.121704  0  3.973721  0
C  C143  1  0.25684037  0.19361666  0.91704594  1  0.010245  0  0.002121  0.064428  0  3.972981  0
C  C144  1  0.28343673  0.28612955  0.98569582  1  -0.026914  0  -0.004147  -0.110973  0  3.904006  0
C  C145  1  0.34180630  0.34421658  0.98688708  1  1.5709  0  0.232615  0.617946  0  4.193004  0
C  C146  1  0.25755968  0.32562753  0.05370952  1  0.056911  0  0.001983  0.065476  0  3.9733  0
C  C147  1  0.28294782  0.41951606  0.12245918  1  -0.072667  0  -0.087816  -0.122894  0  3.973851  0
C  C148  1  0.25586775  0.45597890  0.18722834  1  -0.027667  0  -0.093313  -0.082734  0  4.044931  0
C  C149  1  0.20203749  0.40066496  0.18735909  1  -0.011483  0  -0.093498  -0.082664  0  4.046281  0
C  C150  1  0.17630944  0.31012997  0.12260354  1  -0.003746  0  -0.087349  -0.120949  0  3.976663  0
C  C151  1  0.20268457  0.26946205  0.05369970  1  -0.017995  0  0.001856  0.063803  0  3.9743  0
O  O152  1  0.98413851  0.97996982  0.98782854  1  -1.222769  0  -0.574021  -1.037751  0  2.543852  0
O  O153  1  0.86509371  0.91959366  0.04448706  1  -1.164971  0  -0.307875  -0.536651  0  2.317554  0
O  O154  1  0.86235087  0.79902565  0.91436731  1  -1.166932  0  -0.307619  -0.535285  0  2.321858  0
O  O155  1  0.60146418  0.52747326  0.92028393  1  -1.158873  0  -0.3073  -0.535344  0  2.316214  0
O  O156  1  0.60066711  0.65289896  0.04221194  1  -1.15903  0  -0.307971  -0.536171  0  2.321478  0
O  O157  1  0.85955636  0.92974770  0.75598620  1  -1.145832  0  -0.306879  -0.533981  0  2.319188  0
O  O158  1  0.87470872  0.80576468  0.75141035  1  -1.168254  0  -0.30719  -0.534887  0  2.323833  0
O  O159  1  0.59637099  0.54061869  0.22304491  1  -1.150111  0  -0.306967  -0.533677  0  2.320752  0
O  O160  1  0.60276540  0.66146886  0.21932137  1  -1.156066  0  -0.306227  -0.532812  0  2.316234  0
O  O161  1  0.16279018  0.92433097  0.04357865  1  -1.150035  0  -0.307356  -0.535294  0  2.31736  0
O  O162  1  0.03889710  0.80133471  0.92172436  1  -1.168074  0  -0.306813  -0.532461  0  2.323467  0
O  O163  1  0.30557352  0.53481708  0.92517147  1  -1.167101  0  -0.307009  -0.534132  0  2.323269  0
O  O164  1  0.42941585  0.65788195  0.04640790  1  -1.161494  0  -0.307323  -0.53472  0  2.319247  0
O  O165  1  0.86997236  0.10124083  0.93697124  1  -1.163861  0  -0.307499  -0.534671  0  2.32518  0
O  O166  1  0.87135366  0.09880593  0.06036775  1  -1.171593  0  -0.307493  -0.535866  0  2.31412  0
O  O167  1  0.59989271  0.36665475  0.05626575  1  -1.140923  0  -0.307191  -0.535462  0  2.317722  0
O  O168  1  0.60364025  0.36211753  0.93190600  1  -1.155458  0  -0.307884  -0.536606  0  2.318752  0
O  O169  1  0.16355623  0.09406975  0.21975111  1  -1.167421  0  -0.306674  -0.533698  0  2.318598  0
O  O170  1  0.04011634  0.08751546  0.22192605  1  -1.151883  0  -0.3077  -0.535734  0  2.316666  0
O  O171  1  0.30749239  0.36632249  0.75335455  1  -1.159174  0  -0.307392  -0.535296  0  2.323603  0
O  O172  1  0.43163548  0.35370289  0.75363271  1  -1.156083  0  -0.307147  -0.535718  0  2.315025  0
O  O173  1  0.16143856  0.09818172  0.04881056  1  -1.153359  0  -0.307404  -0.534471  0  2.317719  0
O  O174  1  0.03662721  0.09518357  0.92405255  1  -1.152595  0  -0.307741  -0.535403  0  2.321561  0
O  O175  1  0.30298888  0.36170704  0.92114354  1  -1.161955  0  -0.307709  -0.535844  0  2.319259  0
O  O176  1  0.42511895  0.37050242  0.05355639  1  -1.170471  0  -0.306666  -0.533786  0  2.320704  0
O  O177  1  0.48426966  0.47963720  0.98710867  1  -1.223894  0  -0.573537  -1.037111  0  2.543697  0
