# generated using pymatgen
data_MgH8C6(NO3)2
_symmetry_space_group_name_H-M   'P 1'
_cell_length_a   7.44513306
_cell_length_b   10.65563855
_cell_length_c   12.05667176
_cell_angle_alpha   103.79609269
_cell_angle_beta   90.00006241
_cell_angle_gamma   90.00019127
_symmetry_Int_Tables_number   1
_chemical_formula_structural   MgH8C6(NO3)2
_chemical_formula_sum   'Mg4 H32 C24 N8 O24'
_cell_volume   928.89353451
_cell_formula_units_Z   4
loop_
 _symmetry_equiv_pos_site_id
 _symmetry_equiv_pos_as_xyz
  1  'x, y, z'
loop_
 _atom_site_type_symbol
 _atom_site_label
 _atom_site_symmetry_multiplicity
 _atom_site_fract_x
 _atom_site_fract_y
 _atom_site_fract_z
 _atom_site_occupancy
 _atom_site_hle17_bader_spin_density
 _atom_site_hle17_ddec_charge
 _atom_site_hle17_ddec_spin_density
 _atom_site_hle17_ddec_sum_bond_order
 _atom_site_hle17_magmom
 _atom_site_hse06_10hf_bader_spin_density
 _atom_site_hse06_10hf_ddec_charge
 _atom_site_hse06_10hf_ddec_spin_density
 _atom_site_hse06_10hf_ddec_sum_bond_order
 _atom_site_hse06_10hf_magmom
 _atom_site_hse06_bader_spin_density
 _atom_site_hse06_ddec_charge
 _atom_site_hse06_ddec_spin_density
 _atom_site_hse06_ddec_sum_bond_order
 _atom_site_hse06_magmom
 _atom_site_pbe_bader_spin_density
 _atom_site_pbe_cm5_charge
 _atom_site_pbe_ddec_charge
 _atom_site_pbe_ddec_spin_density
 _atom_site_pbe_ddec_sum_bond_order
 _atom_site_pbe_magmom
Mg  Mg0  1  0.99834326  0.43066421  0.18151894  1  0  1.47359  0  1.172427  0  0  1.360751  0  1.433386  0  0  1.383818  0  1.398867  0  0  0.823554  1.344566  0  1.457153  0
Mg  Mg1  1  0.49835012  0.06934290  0.31847679  1  0  1.473546  0  1.172453  0  0  1.36074  0  1.433312  0  0  1.383807  0  1.39881  0  0  0.823533  1.3445  0  1.4572  0
Mg  Mg2  1  0.00165266  0.56933477  0.81848270  1  0  1.473631  0  1.172421  0  0  1.3608  0  1.433344  0  0  1.383869  0  1.398825  0  0  0.823554  1.344607  0  1.457129  0
Mg  Mg3  1  0.50164848  0.93065703  0.68152172  1  0  1.473556  0  1.172448  0  0  1.360719  0  1.43336  0  0  1.383785  0  1.398859  0  0  0.823529  1.344483  0  1.457249  0
H  H4  1  0.67391807  0.52118503  0.14702582  1  0  0.434577  0  0.808034  0  0  0.419934  0  0.85507  0  0  0.427581  0  0.846478  0  0  0.333283  0.414477  0  0.861387  0
H  H5  1  0.17392822  0.97881649  0.35297664  1  0  0.434551  0  0.807957  0  0  0.419913  0  0.854989  0  0  0.427561  0  0.846398  0  0  0.333306  0.414463  0  0.861295  0
H  H6  1  0.32607918  0.47881488  0.85297103  1  0  0.434739  0  0.807778  0  0  0.420072  0  0.854869  0  0  0.427728  0  0.846251  0  0  0.333303  0.414611  0  0.861189  0
H  H7  1  0.82607173  0.02118348  0.64702768  1  0  0.434578  0  0.807935  0  0  0.419925  0  0.854996  0  0  0.427575  0  0.846396  0  0  0.3333  0.414474  0  0.861304  0
H  H8  1  0.80677128  0.53962760  0.04836279  1  0  0.435346  0  0.868239  0  0  0.399959  0  0.937506  0  0  0.411365  0  0.920894  0  0  0.300108  0.391998  0  0.949072  0
H  H9  1  0.30677611  0.96037331  0.45163800  1  0  0.435329  0  0.86825  0  0  0.399991  0  0.937452  0  0  0.411401  0  0.920834  0  0  0.300149  0.39203  0  0.949021  0
H  H10  1  0.19323538  0.46037426  0.95163612  1  0  0.435345  0  0.86824  0  0  0.39998  0  0.937471  0  0  0.411381  0  0.920865  0  0  0.300111  0.392018  0  0.949037  0
H  H11  1  0.69322787  0.03962468  0.54836094  1  0  0.435324  0  0.868258  0  0  0.399951  0  0.937499  0  0  0.411361  0  0.920881  0  0  0.300126  0.391997  0  0.949055  0
H  H12  1  0.01458172  0.68787593  0.18859340  1  0  0.430852  0  0.867434  0  0  0.39502  0  0.938358  0  0  0.40643  0  0.921447  0  0  0.294692  0.386904  0  0.950381  0
H  H13  1  0.51457316  0.81212510  0.31140304  1  0  0.430882  0  0.867408  0  0  0.395057  0  0.938319  0  0  0.406465  0  0.92141  0  0  0.294733  0.386941  0  0.950341  0
H  H14  1  0.98542629  0.31212593  0.81140551  1  0  0.430858  0  0.867438  0  0  0.395018  0  0.938374  0  0  0.406429  0  0.921459  0  0  0.294697  0.386899  0  0.9504  0
H  H15  1  0.48542813  0.18787291  0.68859757  1  0  0.430859  0  0.867407  0  0  0.395021  0  0.938341  0  0  0.406434  0  0.921425  0  0  0.294714  0.386907  0  0.950359  0
H  H16  1  0.18829383  0.65335859  0.25977880  1  0  0.444062  0  0.846971  0  0  0.410739  0  0.912616  0  0  0.421305  0  0.897052  0  0  0.299092  0.403287  0  0.92358  0
H  H17  1  0.68828801  0.84663619  0.24022064  1  0  0.444033  0  0.847017  0  0  0.410722  0  0.91264  0  0  0.421287  0  0.897076  0  0  0.299102  0.403278  0  0.923592  0
H  H18  1  0.81170880  0.34663553  0.74021853  1  0  0.444109  0  0.846895  0  0  0.410778  0  0.912553  0  0  0.421344  0  0.896988  0  0  0.299115  0.403328  0  0.923512  0
H  H19  1  0.31170925  0.15336665  0.75978096  1  0  0.444197  0  0.846782  0  0  0.410816  0  0.91253  0  0  0.421383  0  0.896968  0  0  0.299123  0.403362  0  0.923496  0
H  H20  1  0.72260391  0.52058758  0.60439761  1  0  0.328397  0  0.898109  0  0  0.30174  0  0.969333  0  0  0.312218  0  0.960119  0  0  0.313526  0.294261  0  0.976037  0
H  H21  1  0.22261009  0.97941152  0.89559770  1  0  0.328341  0  0.898188  0  0  0.301675  0  0.969417  0  0  0.312162  0  0.960198  0  0  0.313506  0.294193  0  0.976131  0
H  H22  1  0.27739201  0.47941428  0.39560213  1  0  0.328355  0  0.898109  0  0  0.301717  0  0.969323  0  0  0.312188  0  0.960109  0  0  0.313522  0.294235  0  0.976035  0
H  H23  1  0.77738851  0.02058552  0.10440187  1  0  0.328339  0  0.898178  0  0  0.30169  0  0.969387  0  0  0.312173  0  0.960169  0  0  0.313523  0.294212  0  0.976097  0
H  H24  1  0.93396639  0.69524788  0.39441169  1  0  0.126992  0  0.959967  0  0  0.145344  0  1.021788  0  0  0.147779  0  1.019881  0  0  0.099378  0.143507  0  1.023258  0
H  H25  1  0.43396194  0.80475630  0.10559236  1  0  0.126956  0  0.959926  0  0  0.145301  0  1.021746  0  0  0.147734  0  1.01984  0  0  0.099384  0.143463  0  1.023214  0
H  H26  1  0.06603489  0.30475010  0.60558560  1  0  0.126944  0  0.959987  0  0  0.145334  0  1.021775  0  0  0.147772  0  1.019864  0  0  0.09936  0.143495  0  1.023248  0
H  H27  1  0.56603398  0.19524462  0.89441050  1  0  0.126954  0  0.96001  0  0  0.145303  0  1.021812  0  0  0.147736  0  1.019905  0  0  0.099364  0.143468  0  1.023276  0
H  H28  1  0.90766884  0.71540041  0.54517092  1  0  0.133216  0  0.952432  0  0  0.149882  0  1.014484  0  0  0.151239  0  1.015168  0  0  0.099984  0.148848  0  1.014224  0
H  H29  1  0.40766749  0.78459248  0.95482907  1  0  0.13315  0  0.952348  0  0  0.149825  0  1.014401  0  0  0.151182  0  1.015085  0  0  0.099979  0.148791  0  1.014131  0
H  H30  1  0.09233111  0.28459564  0.45482597  1  0  0.133204  0  0.952394  0  0  0.149869  0  1.014471  0  0  0.151226  0  1.015156  0  0  0.099987  0.148835  0  1.014211  0
H  H31  1  0.59232708  0.21540748  0.04517442  1  0  0.133201  0  0.952375  0  0  0.149847  0  1.014459  0  0  0.151202  0  1.015142  0  0  0.099988  0.148811  0  1.014195  0
H  H32  1  0.72084206  0.73218372  0.46117150  1  0  0.146309  0  0.943873  0  0  0.162392  0  1.00698  0  0  0.164686  0  1.00571  0  0  0.104497  0.16085  0  1.007609  0
H  H33  1  0.22083868  0.76782273  0.03882870  1  0  0.146335  0  0.943889  0  0  0.16243  0  1.006974  0  0  0.164726  0  1.005698  0  0  0.104504  0.160887  0  1.007606  0
H  H34  1  0.27915922  0.26781329  0.53882476  1  0  0.146303  0  0.94387  0  0  0.162409  0  1.006956  0  0  0.164705  0  1.005682  0  0  0.104505  0.16087  0  1.007586  0
H  H35  1  0.77915992  0.23218784  0.96117448  1  0  0.146313  0  0.943884  0  0  0.162393  0  1.006984  0  0  0.164686  0  1.005714  0  0  0.104492  0.16085  0  1.007616  0
C  C36  1  0.78217912  0.33244728  0.35524773  1  0  0.018569  0  3.741123  0  0  0.007383  0  4.008566  0  0  0.00723  0  4.024998  0  0  0.086545  0.007391  0  3.997603  0
C  C37  1  0.28218887  0.16755343  0.14474651  1  0  0.018253  0  3.741474  0  0  0.007159  0  4.008789  0  0  0.007007  0  4.025216  0  0  0.086415  0.007134  0  3.997869  0
C  C38  1  0.21781679  0.66754977  0.64475351  1  0  0.018657  0  3.74106  0  0  0.007514  0  4.008456  0  0  0.007361  0  4.02489  0  0  0.086578  0.00751  0  3.997503  0
C  C39  1  0.71781108  0.83245421  0.85525193  1  0  0.01824  0  3.741686  0  0  0.00717  0  4.008993  0  0  0.007021  0  4.025425  0  0  0.086435  0.007138  0  3.998075  0
C  C40  1  0.72058061  0.34704080  0.46713213  1  0  0.016792  0  3.67778  0  0  -0.000467  0  3.945605  0  0  -0.001688  0  3.96254  0  0  0.090599  0.0003  0  3.934205  0
C  C41  1  0.22058609  0.15295885  0.03287180  1  0  0.016859  0  3.677662  0  0  -0.000545  0  3.945558  0  0  -0.001753  0  3.962503  0  0  0.090588  0.000233  0  3.934159  0
C  C42  1  0.27941799  0.65295819  0.53287033  1  0  0.016771  0  3.67795  0  0  -0.000515  0  3.945768  0  0  -0.001745  0  3.9627  0  0  0.09064  0.000255  0  3.934367  0
C  C43  1  0.77941654  0.84704302  0.96712877  1  0  0.016937  0  3.677642  0  0  -0.000417  0  3.945503  0  0  -0.001637  0  3.962449  0  0  0.09064  0.000372  0  3.9341  0
C  C44  1  0.81047734  0.53710050  0.44056212  1  0  0.476036  0  3.664608  0  0  0.451373  0  3.938107  0  0  0.466992  0  3.951111  0  0  0.237038  0.441135  0  3.928968  0
C  C45  1  0.31048429  0.96290424  0.05943365  1  0  0.476212  0  3.664555  0  0  0.451457  0  3.938148  0  0  0.467094  0  3.951152  0  0  0.237112  0.441221  0  3.928998  0
C  C46  1  0.18952126  0.46289846  0.55943702  1  0  0.475999  0  3.664571  0  0  0.451373  0  3.938049  0  0  0.466984  0  3.951054  0  0  0.237027  0.441136  0  3.928906  0
C  C47  1  0.68951969  0.03709861  0.94056878  1  0  0.476129  0  3.664211  0  0  0.451387  0  3.937789  0  0  0.467012  0  3.950789  0  0  0.237055  0.441153  0  3.928643  0
C  C48  1  0.80456792  0.22268679  0.25335305  1  0  0.677697  0  3.887959  0  0  0.622902  0  4.191541  0  0  0.657765  0  4.178645  0  0  0.225601  0.599284  0  4.199734  0
C  C49  1  0.30456489  0.27731695  0.24665096  1  0  0.678125  0  3.88786  0  0  0.623403  0  4.191283  0  0  0.658265  0  4.178381  0  0  0.225814  0.599787  0  4.19949  0
C  C50  1  0.19543471  0.77731123  0.74664922  1  0  0.677733  0  3.887934  0  0  0.622907  0  4.19153  0  0  0.65777  0  4.178638  0  0  0.225597  0.599295  0  4.199718  0
C  C51  1  0.69543774  0.72268300  0.75335088  1  0  0.677924  0  3.888014  0  0  0.623116  0  4.191552  0  0  0.657978  0  4.178654  0  0  0.225682  0.599513  0  4.199742  0
C  C52  1  0.65458566  0.25520101  0.53186910  1  0  0.661542  0  3.911493  0  0  0.605294  0  4.21577  0  0  0.639488  0  4.205896  0  0  0.227103  0.582245  0  4.221712  0
C  C53  1  0.15457743  0.24480070  0.96812435  1  0  0.661579  0  3.911367  0  0  0.605425  0  4.215523  0  0  0.639608  0  4.205655  0  0  0.227246  0.582382  0  4.22146  0
C  C54  1  0.34541295  0.74479508  0.46813194  1  0  0.661463  0  3.911416  0  0  0.605299  0  4.215588  0  0  0.639492  0  4.205713  0  0  0.227104  0.582261  0  4.221523  0
C  C55  1  0.84541983  0.75520018  0.03187269  1  0  0.66145  0  3.911479  0  0  0.605254  0  4.215717  0  0  0.639435  0  4.205854  0  0  0.227074  0.582204  0  4.221659  0
C  C56  1  0.84563219  0.67761519  0.46163134  1  0  -0.396592  0  3.681909  0  0  -0.477624  0  3.924477  0  0  -0.481167  0  3.929601  0  0  -0.236174  -0.474954  0  3.920726  0
C  C57  1  0.34562637  0.82239163  0.03837069  1  0  -0.39663  0  3.682011  0  0  -0.477629  0  3.924565  0  0  -0.481181  0  3.92971  0  0  -0.23622  -0.474965  0  3.920809  0
C  C58  1  0.15437044  0.32238473  0.53836634  1  0  -0.396503  0  3.681865  0  0  -0.477599  0  3.9244  0  0  -0.48115  0  3.929534  0  0  -0.236154  -0.474937  0  3.920655  0
C  C59  1  0.65436686  0.17761315  0.96163214  1  0  -0.396608  0  3.681828  0  0  -0.477591  0  3.924437  0  0  -0.481143  0  3.929594  0  0  -0.236178  -0.474924  0  3.920682  0
N  N60  1  0.83932410  0.45105962  0.34144926  1  0  -0.554123  0  3.132235  0  0  -0.506976  0  3.393745  0  0  -0.522821  0  3.40735  0  0  -0.377256  -0.496384  0  3.384544  0
N  N61  1  0.33932795  0.04895188  0.15854807  1  0  -0.554062  0  3.132428  0  0  -0.506918  0  3.393951  0  0  -0.522765  0  3.407552  0  0  -0.377264  -0.496306  0  3.384756  0
N  N62  1  0.16067584  0.54893935  0.65855072  1  0  -0.554182  0  3.132249  0  0  -0.507056  0  3.393743  0  0  -0.522904  0  3.407354  0  0  -0.377286  -0.496461  0  3.384543  0
N  N63  1  0.66067603  0.95104902  0.84145147  1  0  -0.554011  0  3.132405  0  0  -0.506858  0  3.393892  0  0  -0.522703  0  3.407496  0  0  -0.377219  -0.496248  0  3.384704  0
N  N64  1  0.74089623  0.47661485  0.51798513  1  0  -0.332087  0  3.336852  0  0  -0.274966  0  3.569847  0  0  -0.291701  0  3.582866  0  0  -0.35936  -0.263746  0  3.561044  0
N  N65  1  0.24090044  0.02339001  0.98201070  1  0  -0.332134  0  3.336806  0  0  -0.274948  0  3.569867  0  0  -0.291714  0  3.582895  0  0  -0.359439  -0.263744  0  3.561103  0
N  N66  1  0.25910237  0.52338509  0.48201505  1  0  -0.331972  0  3.336836  0  0  -0.27491  0  3.569884  0  0  -0.291609  0  3.582863  0  0  -0.359374  -0.263697  0  3.561096  0
N  N67  1  0.75909951  0.97661379  0.01798943  1  0  -0.332121  0  3.336857  0  0  -0.274975  0  3.569923  0  0  -0.291716  0  3.582936  0  0  -0.359452  -0.263772  0  3.561144  0
O  O68  1  0.89789600  0.24725585  0.17326567  1  0  -0.690734  0  2.055311  0  0  -0.638064  0  2.297943  0  0  -0.662282  0  2.290466  0  0  -0.342418  -0.621394  0  2.30264  0
O  O69  1  0.39788491  0.25275387  0.32672885  1  0  -0.690902  0  2.055756  0  0  -0.638305  0  2.298427  0  0  -0.662521  0  2.290942  0  0  -0.342513  -0.621629  0  2.303127  0
O  O70  1  0.10210529  0.75274313  0.82673596  1  0  -0.690791  0  2.055377  0  0  -0.638088  0  2.297999  0  0  -0.662307  0  2.290526  0  0  -0.342396  -0.621419  0  2.302694  0
O  O71  1  0.60211369  0.74724801  0.67327255  1  0  -0.690857  0  2.055743  0  0  -0.638253  0  2.298462  0  0  -0.66247  0  2.290982  0  0  -0.342528  -0.621583  0  2.303155  0
O  O72  1  0.73282683  0.11212118  0.24638998  1  0  -0.702452  0  2.043337  0  0  -0.644936  0  2.27954  0  0  -0.667591  0  2.265897  0  0  -0.352008  -0.629231  0  2.288601  0
O  O73  1  0.23281760  0.38788329  0.25360831  1  0  -0.702629  0  2.043133  0  0  -0.645145  0  2.279306  0  0  -0.667809  0  2.26568  0  0  -0.352069  -0.629442  0  2.288357  0
O  O74  1  0.26717714  0.88787877  0.75361102  1  0  -0.702455  0  2.043281  0  0  -0.64493  0  2.279495  0  0  -0.667585  0  2.26585  0  0  -0.352016  -0.629231  0  2.288557  0
O  O75  1  0.76718368  0.61212247  0.74639555  1  0  -0.702476  0  2.043183  0  0  -0.644958  0  2.279388  0  0  -0.667616  0  2.265753  0  0  -0.351995  -0.62926  0  2.28843  0
O  O76  1  0.61844362  0.13934602  0.47623957  1  0  -0.705809  0  2.056404  0  0  -0.635135  0  2.283134  0  0  -0.659352  0  2.270324  0  0  -0.342177  -0.618468  0  2.291481  0
O  O77  1  0.11843392  0.36065231  0.02375572  1  0  -0.705825  0  2.056584  0  0  -0.635178  0  2.283269  0  0  -0.659356  0  2.270436  0  0  -0.342228  -0.618517  0  2.291614  0
O  O78  1  0.38155096  0.86065585  0.52376183  1  0  -0.705865  0  2.056319  0  0  -0.63523  0  2.283034  0  0  -0.659443  0  2.270218  0  0  -0.342236  -0.618563  0  2.291388  0
O  O79  1  0.88155931  0.63934761  0.97624197  1  0  -0.705838  0  2.056596  0  0  -0.635137  0  2.283264  0  0  -0.659321  0  2.270438  0  0  -0.342162  -0.618472  0  2.291609  0
O  O80  1  0.63845314  0.29272377  0.63995075  1  0  -0.63617  0  1.931916  0  0  -0.577745  0  2.145267  0  0  -0.600862  0  2.13231  0  0  -0.314888  -0.561733  0  2.153793  0
O  O81  1  0.13844458  0.20727212  0.86004564  1  0  -0.636191  0  1.931979  0  0  -0.577765  0  2.145292  0  0  -0.600886  0  2.132345  0  0  -0.314924  -0.561757  0  2.153827  0
O  O82  1  0.36154815  0.70727134  0.36004843  1  0  -0.636105  0  1.931795  0  0  -0.577739  0  2.145131  0  0  -0.600855  0  2.132176  0  0  -0.314894  -0.561738  0  2.153664  0
O  O83  1  0.86155537  0.79272972  0.13995160  1  0  -0.636066  0  1.931938  0  0  -0.577712  0  2.145297  0  0  -0.600831  0  2.132349  0  0  -0.31487  -0.56171  0  2.153831  0
O  O84  1  0.77164353  0.47995690  0.09831561  1  0  -0.871022  0  1.828737  0  0  -0.820323  0  2.008159  0  0  -0.836992  0  1.980356  0  0  -0.595795  -0.808728  0  2.02732  0
O  O85  1  0.27165566  0.02004190  0.40168570  1  0  -0.87096  0  1.828649  0  0  -0.820302  0  2.008  0  0  -0.836969  0  1.980189  0  0  -0.595856  -0.808695  0  2.027148  0
O  O86  1  0.22835776  0.52004013  0.90168314  1  0  -0.871168  0  1.828529  0  0  -0.820474  0  2.007944  0  0  -0.837145  0  1.980142  0  0  -0.595802  -0.808886  0  2.027114  0
O  O87  1  0.72834697  0.97995611  0.59831491  1  0  -0.870989  0  1.828651  0  0  -0.820276  0  2.008068  0  0  -0.836945  0  1.980257  0  0  -0.595818  -0.80867  0  2.02721  0
O  O88  1  0.08687175  0.61792710  0.20870377  1  0  -0.914936  0  1.852676  0  0  -0.856405  0  2.038234  0  0  -0.873381  0  2.003319  0  0  -0.614856  -0.844311  0  2.062532  0
O  O89  1  0.58686617  0.88206830  0.29128742  1  0  -0.914929  0  1.8527  0  0  -0.856419  0  2.038262  0  0  -0.873392  0  2.003343  0  0  -0.614895  -0.844317  0  2.062558  0
O  O90  1  0.91312954  0.38207379  0.79129577  1  0  -0.914983  0  1.852586  0  0  -0.856467  0  2.038178  0  0  -0.873444  0  2.003261  0  0  -0.6149  -0.844373  0  2.062478  0
O  O91  1  0.41312706  0.11792873  0.70871133  1  0  -0.915059  0  1.852468  0  0  -0.856496  0  2.038048  0  0  -0.873473  0  2.003122  0  0  -0.614897  -0.844388  0  2.062358  0
