# generated using pymatgen
data_ZnH10(C7N2)2
_symmetry_space_group_name_H-M   'P 1'
_cell_length_a   14.20957537
_cell_length_b   14.20959783
_cell_length_c   14.20959349
_cell_angle_alpha   107.19667606
_cell_angle_beta   107.19675504
_cell_angle_gamma   107.19687165
_symmetry_Int_Tables_number   1
_chemical_formula_structural   ZnH10(C7N2)2
_chemical_formula_sum   'Zn6 H60 C84 N24'
_cell_volume   2376.46561418
_cell_formula_units_Z   6
loop_
 _symmetry_equiv_pos_site_id
 _symmetry_equiv_pos_as_xyz
  1  'x, y, z'
loop_
 _atom_site_type_symbol
 _atom_site_label
 _atom_site_symmetry_multiplicity
 _atom_site_fract_x
 _atom_site_fract_y
 _atom_site_fract_z
 _atom_site_occupancy
 _atom_site_pbe_bader_charge
 _atom_site_pbe_bader_spin_density
 _atom_site_pbe_cm5_charge
 _atom_site_pbe_ddec_charge
 _atom_site_pbe_ddec_spin_density
 _atom_site_pbe_ddec_sum_bond_order
 _atom_site_pbe_magmom
Zn  Zn0  1  0.28043835  0.74848791  0.02211739  1  1.183379  0  0.72448  0.648452  0  2.578065  0
Zn  Zn1  1  0.02211819  0.28043938  0.74848841  1  1.183336  0  0.724481  0.648435  0  2.578065  0
Zn  Zn2  1  0.74848766  0.02211883  0.28044003  1  1.183315  0  0.724457  0.648379  0  2.578145  0
Zn  Zn3  1  0.71956154  0.25151343  0.97788269  1  1.183346  0  0.72446  0.648408  0  2.578094  0
Zn  Zn4  1  0.97788170  0.71956195  0.25151307  1  1.183285  0  0.724473  0.648418  0  2.578032  0
Zn  Zn5  1  0.25151223  0.97788251  0.71956005  1  1.183353  0  0.724458  0.648398  0  2.578127  0
H  H6  1  0.09874944  0.51178396  0.92049927  1  0.108158  0  0.125604  0.081149  0  1.016335  0
H  H7  1  0.92050001  0.09874910  0.51178462  1  0.108149  0  0.125607  0.081174  0  1.016332  0
H  H8  1  0.51178223  0.92050027  0.09874987  1  0.108237  0  0.125602  0.081161  0  1.016358  0
H  H9  1  0.90124963  0.48821777  0.07949998  1  0.108242  0  0.125602  0.081168  0  1.01636  0
H  H10  1  0.07950150  0.90125071  0.48821690  1  0.108187  0  0.125605  0.08118  0  1.016376  0
H  H11  1  0.48821766  0.07950033  0.90124999  1  0.108181  0  0.125607  0.081169  0  1.016364  0
H  H12  1  0.42601380  0.71943267  0.87842350  1  0.096658  0  0.097739  0.103621  0  1.027154  0
H  H13  1  0.87842422  0.42601404  0.71943168  1  0.096678  0  0.097736  0.103599  0  1.027164  0
H  H14  1  0.71943185  0.87842592  0.42601411  1  0.096591  0  0.097744  0.1036  0  1.027173  0
H  H15  1  0.57398609  0.28056720  0.12157474  1  0.096578  0  0.097737  0.103575  0  1.027189  0
H  H16  1  0.12157404  0.57398514  0.28056799  1  0.096597  0  0.097744  0.103597  0  1.027163  0
H  H17  1  0.28056885  0.12157428  0.57398587  1  0.096607  0  0.097749  0.103608  0  1.027169  0
H  H18  1  0.47892038  0.61960391  0.74254273  1  0.029715  0  0.092528  0.08643  0  1.029428  0
H  H19  1  0.74253990  0.47891775  0.61960352  1  0.029727  0  0.092527  0.086444  0  1.029428  0
H  H20  1  0.61960611  0.74254132  0.47891876  1  0.029695  0  0.092532  0.086443  0  1.029421  0
H  H21  1  0.52108113  0.38039369  0.25745883  1  0.02969  0  0.092516  0.086409  0  1.029438  0
H  H22  1  0.25745917  0.52108177  0.38039508  1  0.029708  0  0.092519  0.086409  0  1.029467  0
H  H23  1  0.38039540  0.25745849  0.52108064  1  0.029703  0  0.092524  0.086425  0  1.029463  0
H  H24  1  0.37269189  0.42250319  0.62774001  1  0.043871  0  0.091387  0.08938  0  1.034934  0
H  H25  1  0.62773647  0.37268813  0.42250337  1  0.044018  0  0.091415  0.089455  0  1.034847  0
H  H26  1  0.42250501  0.62773758  0.37269118  1  0.044011  0  0.091388  0.089379  0  1.034942  0
H  H27  1  0.62730881  0.57749407  0.37226122  1  0.044027  0  0.091385  0.089375  0  1.034944  0
H  H28  1  0.37226423  0.62731060  0.57749547  1  0.044016  0  0.09136  0.089333  0  1.034947  0
H  H29  1  0.57749650  0.37226223  0.62730893  1  0.043999  0  0.091406  0.08939  0  1.034948  0
H  H30  1  0.20824572  0.31716119  0.64337364  1  0.087355  0  0.098553  0.104145  0  1.021271  0
H  H31  1  0.64336892  0.20824172  0.31716048  1  0.087793  0  0.098579  0.104157  0  1.021169  0
H  H32  1  0.31716123  0.64337258  0.20824756  1  0.087836  0  0.098608  0.104234  0  1.02132  0
H  H33  1  0.79175416  0.68283794  0.35662860  1  0.087832  0  0.09861  0.104217  0  1.021337  0
H  H34  1  0.35663097  0.79175594  0.68283781  1  0.08781  0  0.098605  0.104223  0  1.021266  0
H  H35  1  0.68284028  0.35662871  0.79175369  1  0.087812  0  0.098619  0.104227  0  1.021301  0
H  H36  1  0.20327123  0.74709231  0.22325305  1  0.107599  0  0.12899  0.085727  0  1.006407  0
H  H37  1  0.22325359  0.20327084  0.74709011  1  0.107549  0  0.129002  0.085767  0  1.006384  0
H  H38  1  0.74709125  0.22325349  0.20327053  1  0.107602  0  0.129  0.08575  0  1.006398  0
H  H39  1  0.79672865  0.25291197  0.77674860  1  0.107602  0  0.12899  0.085727  0  1.006392  0
H  H40  1  0.77674710  0.79672937  0.25291339  1  0.107545  0  0.129007  0.085769  0  1.00638  0
H  H41  1  0.25291026  0.77674706  0.79672768  1  0.107568  0  0.128985  0.085727  0  1.006415  0
H  H42  1  0.81050103  0.65383430  0.01135185  1  0.071004  0  0.102357  0.111942  0  1.002646  0
H  H43  1  0.01134989  0.81050199  0.65383503  1  0.071065  0  0.102376  0.111968  0  1.002572  0
H  H44  1  0.65384046  0.01135294  0.81050313  1  0.071044  0  0.102398  0.111986  0  1.002597  0
H  H45  1  0.18949643  0.34615791  0.98864481  1  0.071031  0  0.102379  0.111952  0  1.002632  0
H  H46  1  0.98864675  0.18949725  0.34616136  1  0.07103  0  0.102376  0.111946  0  1.002637  0
H  H47  1  0.34616024  0.98864800  0.18949567  1  0.071076  0  0.102405  0.111995  0  1.002588  0
H  H48  1  0.07136480  0.69719195  0.83472445  1  0.051834  0  0.0994  0.105609  0  1.025251  0
H  H49  1  0.83472799  0.07136890  0.69719304  1  0.052015  0  0.099371  0.105562  0  1.025273  0
H  H50  1  0.69719233  0.83472764  0.07136965  1  0.052006  0  0.099413  0.105586  0  1.025195  0
H  H51  1  0.92863509  0.30281013  0.16527655  1  0.05182  0  0.099395  0.105596  0  1.025264  0
H  H52  1  0.16527271  0.92863351  0.30280760  1  0.052049  0  0.099397  0.105573  0  1.025307  0
H  H53  1  0.30280837  0.16527330  0.92863055  1  0.052006  0  0.099404  0.105628  0  1.025216  0
H  H54  1  0.74841572  0.62916601  0.81882085  1  0.050325  0  0.094474  0.089941  0  1.012912  0
H  H55  1  0.81882041  0.74842094  0.62916876  1  0.050125  0  0.094471  0.08996  0  1.013036  0
H  H56  1  0.62916882  0.81882113  0.74842154  1  0.050223  0  0.094487  0.089972  0  1.013013  0
H  H57  1  0.25158173  0.37082914  0.18117739  1  0.050236  0  0.094468  0.089934  0  1.012971  0
H  H58  1  0.18117704  0.25158012  0.37082911  1  0.050136  0  0.094465  0.08993  0  1.013039  0
H  H59  1  0.37083188  0.18117907  0.25157844  1  0.050353  0  0.094492  0.089976  0  1.013014  0
H  H60  1  0.87723109  0.65283416  0.73316706  1  0.062182  0  0.096041  0.091483  0  1.022037  0
H  H61  1  0.73316678  0.87723641  0.65283611  1  0.062169  0  0.096042  0.091491  0  1.021975  0
H  H62  1  0.65283394  0.73316766  0.87723734  1  0.062219  0  0.096007  0.091434  0  1.022072  0
H  H63  1  0.12276717  0.34716502  0.26683260  1  0.06217  0  0.096023  0.091475  0  1.022042  0
H  H64  1  0.26683148  0.12276498  0.34716350  1  0.062188  0  0.096031  0.091475  0  1.022061  0
H  H65  1  0.34716757  0.26683362  0.12276320  1  0.062194  0  0.09604  0.091443  0  1.022018  0
C  C66  1  0.15332001  0.51350505  0.88057270  1  1.001118  0  0.135543  0.173615  0  4.022318  0
C  C67  1  0.88057352  0.15332036  0.51350511  1  1.001126  0  0.135511  0.173527  0  4.02229  0
C  C68  1  0.51350383  0.88057284  0.15331948  1  1.001028  0  0.13553  0.173545  0  4.022301  0
C  C69  1  0.84668069  0.48649589  0.11942750  1  1.001018  0  0.135521  0.173511  0  4.022355  0
C  C70  1  0.11942799  0.84668092  0.48649544  1  1.001086  0  0.135498  0.173462  0  4.022389  0
C  C71  1  0.48649768  0.11942844  0.84668177  1  1.001225  0  0.135546  0.173557  0  4.022387  0
C  C72  1  0.28656100  0.57310407  0.83754043  1  0.344033  0  0.077748  0.144408  0  4.044755  0
C  C73  1  0.83754073  0.28656083  0.57310247  1  0.344055  0  0.077735  0.144382  0  4.044704  0
C  C74  1  0.57310336  0.83754143  0.28656174  1  0.344071  0  0.077752  0.144358  0  4.044838  0
C  C75  1  0.71343889  0.42689506  0.16245970  1  0.344027  0  0.077723  0.144397  0  4.044735  0
C  C76  1  0.16245672  0.71343727  0.42689664  1  0.344074  0  0.077772  0.144435  0  4.044696  0
C  C77  1  0.42689815  0.16245985  0.71343881  1  0.344402  0  0.077745  0.144361  0  4.044882  0
C  C78  1  0.37838189  0.63259052  0.82789394  1  -0.038998  0  -0.102522  -0.17286  0  4.016921  0
C  C79  1  0.82789284  0.37838095  0.63258949  1  -0.038983  0  -0.102505  -0.172803  0  4.016862  0
C  C80  1  0.63258973  0.82789450  0.37838148  1  -0.038928  0  -0.102523  -0.172833  0  4.016966  0
C  C81  1  0.62161881  0.36740895  0.17210653  1  -0.038933  0  -0.102483  -0.172758  0  4.016937  0
C  C82  1  0.17210624  0.62161784  0.36741101  1  -0.038911  0  -0.102517  -0.172831  0  4.016856  0
C  C83  1  0.36741097  0.17210644  0.62161872  1  -0.038902  0  -0.102543  -0.172859  0  4.016919  0
C  C84  1  0.40739609  0.57587536  0.75161705  1  -0.029248  0  -0.105572  -0.099005  0  4.069962  0
C  C85  1  0.75161561  0.40739488  0.57587459  1  -0.029413  0  -0.105598  -0.099072  0  4.069976  0
C  C86  1  0.57587688  0.75161601  0.40739584  1  -0.029244  0  -0.105553  -0.098981  0  4.069951  0
C  C87  1  0.59260461  0.42412263  0.24838439  1  -0.029253  0  -0.10556  -0.098978  0  4.07001  0
C  C88  1  0.24838346  0.59260317  0.42412358  1  -0.029362  0  -0.105548  -0.098964  0  4.069918  0
C  C89  1  0.42412545  0.24838488  0.59260412  1  -0.029424  0  -0.105568  -0.099013  0  4.06996  0
C  C90  1  0.34674625  0.46369418  0.68599810  1  -0.062099  0  -0.106503  -0.096435  0  4.059494  0
C  C91  1  0.68599487  0.34674280  0.46369337  1  -0.062104  0  -0.106531  -0.096534  0  4.05947  0
C  C92  1  0.46369547  0.68599655  0.34674578  1  -0.062237  0  -0.106529  -0.096451  0  4.059442  0
C  C93  1  0.65325445  0.53630382  0.31400334  1  -0.062221  0  -0.106532  -0.096505  0  4.05949  0
C  C94  1  0.31400339  0.65325565  0.53630537  1  -0.062148  0  -0.106474  -0.096393  0  4.059405  0
C  C95  1  0.53630604  0.31400326  0.65325433  1  -0.062102  0  -0.106516  -0.096418  0  4.059479  0
C  C96  1  0.22592721  0.45966301  0.77225282  1  0.357992  0  0.078928  0.14849  0  4.040032  0
C  C97  1  0.77225216  0.22592591  0.45966431  1  0.357999  0  0.078916  0.148442  0  4.039983  0
C  C98  1  0.45966134  0.77225225  0.22592765  1  0.357998  0  0.078882  0.148435  0  4.039876  0
C  C99  1  0.77407349  0.54033646  0.22774835  1  0.358049  0  0.078883  0.148379  0  4.039937  0
C  C100  1  0.22774773  0.77407248  0.54033701  1  0.358004  0  0.07889  0.148411  0  4.03985  0
C  C101  1  0.54033855  0.22774835  0.77407292  1  0.358021  0  0.078891  0.148455  0  4.039877  0
C  C102  1  0.25518594  0.40385860  0.69493503  1  -0.010199  0  -0.102578  -0.172863  0  4.01325  0
C  C103  1  0.69493305  0.25518423  0.40385905  1  -0.010669  0  -0.102585  -0.172798  0  4.013022  0
C  C104  1  0.40385776  0.69493271  0.25518590  1  -0.010701  0  -0.102585  -0.172906  0  4.013159  0
C  C105  1  0.74481557  0.59614268  0.30506762  1  -0.010728  0  -0.102591  -0.172838  0  4.013109  0
C  C106  1  0.30506765  0.74481450  0.59614191  1  -0.010705  0  -0.102617  -0.172904  0  4.013104  0
C  C107  1  0.59614294  0.30506750  0.74481408  1  -0.010733  0  -0.102633  -0.172931  0  4.013125  0
C  C108  1  0.13772824  0.72898409  0.14808639  1  0.998334  0  0.136233  0.167979  0  4.026708  0
C  C109  1  0.14808798  0.13772984  0.72898197  1  0.9983  0  0.136217  0.167955  0  4.026682  0
C  C110  1  0.72898488  0.14808865  0.13773029  1  0.998013  0  0.136205  0.167925  0  4.026852  0
C  C111  1  0.86227164  0.27101946  0.85191504  1  0.99832  0  0.136221  0.167956  0  4.026711  0
C  C112  1  0.85191353  0.86227144  0.27102139  1  0.998302  0  0.136162  0.167914  0  4.026721  0
C  C113  1  0.27101744  0.85191297  0.86226919  1  0.99805  0  0.136287  0.168025  0  4.026765  0
C  C114  1  0.97701008  0.68931099  0.03115448  1  0.35236  0  0.078041  0.142912  0  4.041741  0
C  C115  1  0.03115504  0.97701241  0.68931007  1  0.35228  0  0.078086  0.14292  0  4.041835  0
C  C116  1  0.68931410  0.03115581  0.97701320  1  0.352245  0  0.078046  0.14288  0  4.041883  0
C  C117  1  0.02298737  0.31068711  0.96884533  1  0.352368  0  0.078029  0.142888  0  4.041763  0
C  C118  1  0.96884403  0.02298712  0.31068853  1  0.352265  0  0.078034  0.142877  0  4.041771  0
C  C119  1  0.31068741  0.96884474  0.02298573  1  0.352253  0  0.078008  0.14288  0  4.041911  0
C  C120  1  0.86720659  0.66309569  0.97361361  1  -0.093088  0  -0.10071  -0.171053  0  4.012034  0
C  C121  1  0.97361331  0.86720955  0.66309709  1  -0.092982  0  -0.100718  -0.171041  0  4.012121  0
C  C122  1  0.66309909  0.97361366  0.86720969  1  -0.093046  0  -0.100709  -0.171072  0  4.012112  0
C  C123  1  0.13279248  0.33690088  0.02638764  1  -0.093157  0  -0.100712  -0.17106  0  4.012152  0
C  C124  1  0.02638576  0.13279218  0.33690217  1  -0.093078  0  -0.100705  -0.171045  0  4.012096  0
C  C125  1  0.33690080  0.02638621  0.13278925  1  -0.09295  0  -0.100705  -0.171074  0  4.012125  0
C  C126  1  0.05019026  0.70114197  0.98133540  1  0.332263  0  0.076576  0.138744  0  4.040284  0
C  C127  1  0.98133756  0.05019442  0.70114290  1  0.332312  0  0.076529  0.138726  0  4.04036  0
C  C128  1  0.70114503  0.98133896  0.05019454  1  0.332309  0  0.076497  0.138683  0  4.040361  0
C  C129  1  0.94980800  0.29885721  0.01866286  1  0.332257  0  0.076554  0.138726  0  4.040295  0
C  C130  1  0.01866070  0.94980624  0.29885720  1  0.332312  0  0.076573  0.138754  0  4.040295  0
C  C131  1  0.29885567  0.01866125  0.94980474  1  0.332308  0  0.076568  0.138729  0  4.040329  0
C  C132  1  0.01544239  0.68782980  0.87327905  1  0.008778  0  -0.099039  -0.164723  0  4.003838  0
C  C133  1  0.87328071  0.01544619  0.68783105  1  0.008541  0  -0.099019  -0.164594  0  4.003803  0
C  C134  1  0.68783144  0.87328198  0.01544694  1  0.008573  0  -0.098997  -0.164588  0  4.003633  0
C  C135  1  0.98455750  0.31217154  0.12672174  1  0.008808  0  -0.098993  -0.164637  0  4.003757  0
C  C136  1  0.12671837  0.98455481  0.31216869  1  0.00859  0  -0.099046  -0.164637  0  4.003814  0
C  C137  1  0.31216926  0.12671970  0.98455278  1  0.008533  0  -0.099033  -0.164664  0  4.003676  0
C  C138  1  0.83337930  0.64974836  0.86611844  1  0.056133  0  -0.103775  -0.096986  0  4.060376  0
C  C139  1  0.86611866  0.83338153  0.64974900  1  0.056293  0  -0.103773  -0.097002  0  4.060514  0
C  C140  1  0.64975122  0.86611953  0.83338282  1  0.056244  0  -0.103808  -0.097045  0  4.060603  0
C  C141  1  0.16661978  0.35024748  0.13387978  1  0.056313  0  -0.103811  -0.097006  0  4.060548  0
C  C142  1  0.13387961  0.16661912  0.35024969  1  0.056385  0  -0.103789  -0.096988  0  4.060478  0
C  C143  1  0.35024948  0.13388142  0.16661668  1  0.056056  0  -0.103786  -0.097006  0  4.060605  0
C  C144  1  0.90644432  0.66256335  0.81701442  1  -0.088009  0  -0.102446  -0.093699  0  4.054083  0
C  C145  1  0.81701515  0.90645073  0.66256727  1  -0.087939  0  -0.102432  -0.093792  0  4.053985  0
C  C146  1  0.66256645  0.81701773  0.90644928  1  -0.087964  0  -0.102463  -0.093726  0  4.054114  0
C  C147  1  0.09355314  0.33743475  0.18298609  1  -0.08804  0  -0.102432  -0.093723  0  4.054037  0
C  C148  1  0.18298474  0.09355134  0.33743303  1  -0.087992  0  -0.102415  -0.093714  0  4.053968  0
C  C149  1  0.33743424  0.18298395  0.09354974  1  -0.087943  0  -0.102471  -0.093734  0  4.054059  0
N  N150  1  0.23776690  0.60475217  0.90511954  1  -1.263802  0  -0.378381  -0.360867  0  3.567502  0
N  N151  1  0.90512175  0.23776792  0.60475260  1  -1.263856  0  -0.378358  -0.3608  0  3.567485  0
N  N152  1  0.60475087  0.90512034  0.23776782  1  -1.263777  0  -0.378382  -0.360793  0  3.567497  0
N  N153  1  0.76223299  0.39524843  0.09488032  1  -1.263772  0  -0.378366  -0.360804  0  3.567449  0
N  N154  1  0.09487895  0.76223229  0.39524738  1  -1.263814  0  -0.37836  -0.360778  0  3.567535  0
N  N155  1  0.39524983  0.09488134  0.76223261  1  -1.264202  0  -0.378362  -0.360786  0  3.567507  0
N  N156  1  0.14200858  0.42422304  0.80224756  1  -1.255356  0  -0.38069  -0.361761  0  3.571215  0
N  N157  1  0.80224638  0.14200864  0.42422229  1  -1.255379  0  -0.380666  -0.361705  0  3.571204  0
N  N158  1  0.42422130  0.80224738  0.14200882  1  -1.255422  0  -0.380697  -0.361747  0  3.57113  0
N  N159  1  0.85799130  0.57577756  0.19775300  1  -1.255355  0  -0.380668  -0.361702  0  3.571197  0
N  N160  1  0.19775351  0.85798975  0.57577763  1  -1.255354  0  -0.380696  -0.361727  0  3.57116  0
N  N161  1  0.57577778  0.19775361  0.85799163  1  -1.255394  0  -0.380694  -0.361743  0  3.571327  0
N  N162  1  0.15192740  0.72620413  0.05785371  1  -1.264255  0  -0.376643  -0.361096  0  3.558703  0
N  N163  1  0.05785623  0.15193025  0.72620444  1  -1.264276  0  -0.376633  -0.36112  0  3.558742  0
N  N164  1  0.72620609  0.05785686  0.15193030  1  -1.264051  0  -0.376617  -0.361066  0  3.55874  0
N  N165  1  0.84807168  0.27379834  0.94214787  1  -1.264372  0  -0.376656  -0.361122  0  3.558713  0
N  N166  1  0.94214528  0.84807177  0.27379843  1  -1.264281  0  -0.376597  -0.361067  0  3.558688  0
N  N167  1  0.27379542  0.94214516  0.84806906  1  -1.264151  0  -0.376701  -0.361139  0  3.558707  0
N  N168  1  0.03527490  0.70751886  0.13737412  1  -1.23795  0  -0.375735  -0.362648  0  3.556939  0
N  N169  1  0.13737435  0.03527552  0.70751773  1  -1.237946  0  -0.375756  -0.362655  0  3.55705  0
N  N170  1  0.70752084  0.13737505  0.03527672  1  -1.237931  0  -0.375698  -0.362562  0  3.557062  0
N  N171  1  0.96472418  0.29247993  0.86262637  1  -1.237919  0  -0.375713  -0.362581  0  3.557027  0
N  N172  1  0.86262554  0.96472434  0.29248333  1  -1.237936  0  -0.375738  -0.362639  0  3.55704  0
N  N173  1  0.29248067  0.86262624  0.96472312  1  -1.23791  0  -0.375759  -0.362678  0  3.557157  0
