# generated using pymatgen
data_MnH6(C2O3)2
_symmetry_space_group_name_H-M   'P 1'
_cell_length_a   7.97073910
_cell_length_b   9.16105388
_cell_length_c   8.88277834
_cell_angle_alpha   90.00070110
_cell_angle_beta   89.99986432
_cell_angle_gamma   90.00030971
_symmetry_Int_Tables_number   1
_chemical_formula_structural   MnH6(C2O3)2
_chemical_formula_sum   'Mn4 H24 C16 O24'
_cell_volume   648.62376415
_cell_formula_units_Z   4
loop_
 _symmetry_equiv_pos_site_id
 _symmetry_equiv_pos_as_xyz
  1  'x, y, z'
loop_
 _atom_site_type_symbol
 _atom_site_label
 _atom_site_symmetry_multiplicity
 _atom_site_fract_x
 _atom_site_fract_y
 _atom_site_fract_z
 _atom_site_occupancy
 _atom_site_hle17_ddec_charge
 _atom_site_hle17_ddec_spin_density
 _atom_site_hle17_ddec_sum_bond_order
 _atom_site_hle17_magmom
 _atom_site_hse06_10hf_ddec_charge
 _atom_site_hse06_10hf_ddec_spin_density
 _atom_site_hse06_10hf_ddec_sum_bond_order
 _atom_site_hse06_10hf_magmom
 _atom_site_hse06_ddec_charge
 _atom_site_hse06_ddec_spin_density
 _atom_site_hse06_ddec_sum_bond_order
 _atom_site_hse06_magmom
 _atom_site_pbe_cm5_charge
 _atom_site_pbe_ddec_charge
 _atom_site_pbe_ddec_spin_density
 _atom_site_pbe_ddec_sum_bond_order
 _atom_site_pbe_magmom
Mn  Mn0  1  0.89463211  0.93107523  0.39124626  1  1.249129  4.805598  1.670645  4.695  1.083724  4.737861  2.16678  4.564  1.144111  4.774041  2.09274  4.618  0.592275  1.034964  4.701448  2.22137  4.512
Mn  Mn1  1  0.60537200  0.06892236  0.89124347  1  1.249102  4.805604  1.670651  4.695  1.083747  4.737846  2.166793  4.564  1.144128  4.774028  2.092761  4.618  0.59228  1.034985  4.701432  2.221383  4.512
Mn  Mn2  1  0.39463815  0.56891943  0.60875415  1  1.249112  4.805583  1.670731  4.695  1.083718  4.737841  2.166903  4.564  1.144106  4.774023  2.092869  4.618  0.592296  1.034958  4.701428  2.221494  4.512
Mn  Mn3  1  0.10535405  0.43107247  0.10876362  1  1.24908  4.8056  1.670723  4.695  1.083686  4.737866  2.166872  4.564  1.144071  4.774045  2.092839  4.618  0.592282  1.034927  4.701457  2.22146  4.512
H  H4  1  0.96520942  0.64776170  0.35376963  1  0.431139  -0.000753  0.860305  0.0  0.398105  -3.1e-05  0.935196  0.001  0.409273  -0.000294  0.918934  0.001  0.305911  0.390023  -3.1e-05  0.946903  0.001
H  H5  1  0.53479479  0.35224090  0.85376944  1  0.43109  -0.000753  0.860398  0.0  0.398075  -3.1e-05  0.935225  0.001  0.409244  -0.000295  0.918959  0.001  0.305922  0.389993  -3.2e-05  0.946931  0.001
H  H6  1  0.46520710  0.85223657  0.64622949  1  0.431123  -0.00075  0.860339  0.0  0.39807  -3.1e-05  0.935216  0.001  0.40924  -0.000295  0.918949  0.001  0.305905  0.38999  -3.2e-05  0.946918  0.001
H  H7  1  0.03479002  0.14775906  0.14622879  1  0.431164  -0.000759  0.860292  0.0  0.398147  -3.1e-05  0.935123  0.001  0.409317  -0.000295  0.918854  0.001  0.305956  0.390064  -3.2e-05  0.946831  0.001
H  H8  1  0.99396564  0.65755427  0.53127832  1  0.428177  -0.000746  0.866108  0.001  0.395131  -0.000119  0.934853  0.001  0.406316  -0.000413  0.918761  0.001  0.299729  0.386958  0.000137  0.946598  0.002
H  H9  1  0.50602939  0.34244450  0.03127563  1  0.428177  -0.000751  0.866084  0.001  0.395179  -0.00012  0.934758  0.001  0.406361  -0.000413  0.918672  0.001  0.299745  0.387008  0.000137  0.946503  0.002
H  H10  1  0.49397252  0.84244413  0.46872075  1  0.428152  -0.000745  0.866095  0.001  0.395146  -0.00012  0.934807  0.001  0.406327  -0.000413  0.918721  0.001  0.299737  0.386975  0.000136  0.94655  0.002
H  H11  1  0.00602750  0.15755969  0.96872155  1  0.428131  -0.000744  0.866154  0.001  0.395139  -0.00012  0.934818  0.001  0.406318  -0.000413  0.918736  0.001  0.299743  0.386967  0.000136  0.946564  0.002
H  H12  1  0.23294290  0.91505679  0.54367889  1  0.395757  -6.5e-05  0.887712  0.002  0.370055  0.000552  0.957214  0.002  0.381006  0.000209  0.945143  0.002  0.3029  0.361987  0.000793  0.966159  0.002
H  H13  1  0.26706202  0.08493871  0.04368028  1  0.395745  -6.4e-05  0.887777  0.002  0.370061  0.000552  0.957234  0.002  0.381005  0.000209  0.945177  0.002  0.302913  0.361994  0.000793  0.966175  0.002
H  H14  1  0.73294580  0.58494367  0.45631848  1  0.395741  -6.5e-05  0.887759  0.002  0.370019  0.000552  0.957274  0.002  0.38097  0.000209  0.945205  0.002  0.302875  0.36195  0.000793  0.966219  0.002
H  H15  1  0.76705938  0.41506234  0.95631972  1  0.395637  -6.7e-05  0.887888  0.002  0.369959  0.000552  0.957329  0.002  0.380904  0.000209  0.945279  0.002  0.302883  0.361894  0.000793  0.966266  0.002
H  H16  1  0.15846736  0.00540386  0.76512197  1  0.070414  -0.000443  0.908661  0.0  0.081351  -7.8e-05  0.965151  0.0  0.083661  -0.000268  0.963081  0.0  0.119498  0.079697  0.00011  0.966503  0.001
H  H17  1  0.34153822  0.99459536  0.26512679  1  0.070387  -0.000447  0.908631  0.0  0.081234  -7.8e-05  0.965201  0.0  0.083539  -0.000268  0.963137  0.0  0.119467  0.079582  0.00011  0.966554  0.001
H  H18  1  0.65847342  0.49459013  0.23487263  1  0.070309  -0.000434  0.908764  0.0  0.081314  -7.8e-05  0.965158  0.0  0.083622  -0.000268  0.96309  0.0  0.119504  0.079662  0.00011  0.966514  0.001
H  H19  1  0.84153235  0.50540560  0.73487936  1  0.070385  -0.00044  0.90869  0.0  0.081271  -7.8e-05  0.965175  0.0  0.083578  -0.000268  0.963108  0.0  0.119495  0.07962  0.00011  0.966528  0.001
H  H20  1  0.14061690  0.25139160  0.53330417  1  0.142801  -0.000474  0.912064  0.0  0.156005  -0.000261  0.970394  0.0  0.1592  -0.000381  0.968623  0.0  0.11543  0.153796  -0.000125  0.971544  0.0
H  H21  1  0.35937676  0.74859831  0.03330586  1  0.142783  -0.000461  0.911993  0.0  0.155962  -0.000261  0.97039  0.0  0.159156  -0.000382  0.968621  0.0  0.115404  0.153753  -0.000125  0.971537  0.0
H  H22  1  0.64061703  0.24860994  0.46669722  1  0.142792  -0.000462  0.912035  0.0  0.156033  -0.000261  0.970377  0.0  0.159229  -0.000381  0.968607  0.0  0.115448  0.153823  -0.000125  0.971519  0.0
H  H23  1  0.85937557  0.75139728  0.96670138  1  0.142736  -0.000469  0.911988  0.0  0.155975  -0.000261  0.970368  0.0  0.159179  -0.000381  0.96859  0.0  0.115416  0.153767  -0.000125  0.971518  0.0
H  H24  1  0.09934705  0.28676849  0.72506989  1  0.120104  4.9e-05  0.944595  0.001  0.133921  0.000389  1.005903  0.001  0.135872  0.000129  1.005804  0.001  0.110092  0.132523  0.000692  1.006099  0.001
H  H25  1  0.40065487  0.71323462  0.22506654  1  0.120057  5.3e-05  0.944689  0.001  0.133889  0.000389  1.005979  0.001  0.13584  0.000129  1.005881  0.001  0.110092  0.13249  0.000692  1.006181  0.001
H  H26  1  0.59934497  0.21322959  0.27493046  1  0.120084  5.4e-05  0.944586  0.001  0.133971  0.000389  1.005865  0.001  0.135926  0.000129  1.005765  0.001  0.110103  0.132569  0.000692  1.006063  0.001
H  H27  1  0.90064940  0.78676771  0.77493160  1  0.12001  5.8e-05  0.94458  0.001  0.133925  0.000389  1.005838  0.001  0.135877  0.000129  1.005749  0.001  0.110098  0.132526  0.000692  1.00604  0.001
C  C28  1  0.09619990  0.05648132  0.66759093  1  0.138823  0.001191  3.647039  0.002  0.112818  0.002505  3.902467  0.002  0.11579  0.001538  3.909678  0.002  -0.000158  0.110287  0.003413  3.898057  0.003
C  C29  1  0.40380092  0.94351674  0.16758710  1  0.138893  0.00121  3.647094  0.002  0.113088  0.002503  3.902303  0.002  0.116056  0.001539  3.909503  0.002  -0.000115  0.110549  0.003412  3.897908  0.003
C  C30  1  0.59620036  0.44351893  0.33240718  1  0.13887  0.001188  3.646887  0.002  0.112905  0.002503  3.902307  0.002  0.115871  0.001541  3.909517  0.002  -0.000195  0.11037  0.003413  3.897902  0.003
C  C31  1  0.90380264  0.55648342  0.83241329  1  0.138787  0.001193  3.647035  0.002  0.113043  0.002505  3.902199  0.002  0.116016  0.001538  3.909404  0.002  -9.9e-05  0.110505  0.003413  3.897805  0.003
C  C32  1  0.90833911  0.05994043  0.70033774  1  0.637332  0.005897  3.83692  0.005  0.582944  0.012184  4.141412  0.01  0.616025  0.009161  4.136449  0.008  0.22499  0.559858  0.015385  4.144331  0.013
C  C33  1  0.59166174  0.94006144  0.20033677  1  0.637109  0.00589  3.837225  0.005  0.582651  0.012183  4.141762  0.01  0.615748  0.009161  4.136782  0.008  0.224909  0.559572  0.015384  4.144682  0.013
C  C34  1  0.40833325  0.44006127  0.29966084  1  0.637363  0.005902  3.836806  0.005  0.582899  0.012183  4.141414  0.01  0.616001  0.00916  4.13643  0.008  0.225017  0.559817  0.015384  4.144337  0.013
C  C35  1  0.09166847  0.55994273  0.79966315  1  0.637514  0.005903  3.836763  0.005  0.583006  0.012177  4.141311  0.01  0.616105  0.009157  4.136324  0.008  0.225029  0.559926  0.015378  4.144231  0.013
C  C36  1  0.16463572  0.21173533  0.64827131  1  -0.328162  0.000712  3.625262  0.001  -0.371272  0.001701  3.872445  0.002  -0.377509  0.000887  3.877786  0.001  -0.162977  -0.367004  0.002638  3.86913  0.002
C  C37  1  0.33536641  0.78826687  0.14827241  1  -0.328038  0.000688  3.625221  0.001  -0.37122  0.0017  3.872463  0.002  -0.377455  0.00089  3.877802  0.001  -0.16297  -0.366949  0.002638  3.869147  0.002
C  C38  1  0.66463140  0.28826305  0.35172778  1  -0.328037  0.000682  3.625008  0.001  -0.371373  0.001701  3.872401  0.002  -0.377618  0.000885  3.877743  0.001  -0.163009  -0.367091  0.002638  3.869066  0.002
C  C39  1  0.83536779  0.71173407  0.85173374  1  -0.327823  0.000673  3.624891  0.001  -0.371238  0.001701  3.87228  0.002  -0.377496  0.000886  3.87764  0.001  -0.16295  -0.366972  0.002638  3.868965  0.002
C  C40  1  0.35003633  0.22275437  0.68522583  1  0.742398  0.009842  3.792849  0.011  0.689705  0.016232  4.091985  0.016  0.724994  0.012466  4.08485  0.013  0.231483  0.664937  0.019767  4.095928  0.018
C  C41  1  0.14996695  0.77724936  0.18522945  1  0.742474  0.009831  3.793001  0.011  0.689777  0.016231  4.092113  0.016  0.725069  0.012463  4.084973  0.013  0.231524  0.665011  0.019766  4.096056  0.018
C  C42  1  0.85002953  0.27725143  0.31477174  1  0.742549  0.009841  3.792635  0.011  0.689879  0.016233  4.091778  0.016  0.725172  0.012467  4.084642  0.013  0.23155  0.665108  0.019767  4.095723  0.018
C  C43  1  0.64996851  0.72274635  0.81477372  1  0.742466  0.009845  3.792835  0.011  0.68981  0.01623  4.091999  0.016  0.72511  0.012465  4.084861  0.013  0.231536  0.665045  0.019766  4.095942  0.018
O  O44  1  0.80628957  0.00909613  0.60522989  1  -0.613714  0.032953  2.044413  0.021  -0.553509  0.041045  2.310639  0.025  -0.582963  0.036363  2.298852  0.021  -0.289827  -0.532055  0.045773  2.318279  0.03
O  O45  1  0.69371279  0.99090352  0.10522260  1  -0.613554  0.032953  2.044332  0.021  -0.553435  0.041045  2.310759  0.025  -0.582901  0.036362  2.298981  0.021  -0.289772  -0.531933  0.045769  2.318294  0.03
O  O46  1  0.30628503  0.49090073  0.39477790  1  -0.613586  0.032939  2.044179  0.021  -0.553475  0.041047  2.310616  0.025  -0.58294  0.036361  2.298829  0.021  -0.289817  -0.531979  0.045771  2.318168  0.03
O  O47  1  0.19371268  0.50910003  0.89477373  1  -0.613724  0.032947  2.044313  0.021  -0.553568  0.041042  2.310684  0.025  -0.583029  0.03636  2.298894  0.021  -0.289833  -0.532079  0.045767  2.318243  0.03
O  O48  1  0.91286419  0.68363902  0.44930084  1  -0.825519  0.024146  1.90251  0.013  -0.761074  0.03412  2.105339  0.02  -0.784557  0.030414  2.069352  0.018  -0.543188  -0.743087  0.038009  2.130897  0.024
O  O49  1  0.58713348  0.31636035  0.94929896  1  -0.825457  0.024151  1.902533  0.013  -0.761078  0.034121  2.105388  0.02  -0.784554  0.030415  2.069407  0.018  -0.543221  -0.743099  0.038009  2.130947  0.024
O  O50  1  0.41286442  0.81636337  0.55069840  1  -0.825514  0.024136  1.902494  0.013  -0.761041  0.034116  2.105387  0.02  -0.784518  0.030411  2.069401  0.018  -0.543213  -0.743062  0.038005  2.130945  0.024
O  O51  1  0.08713421  0.18363440  0.05069804  1  -0.825501  0.024148  1.902448  0.013  -0.761126  0.034121  2.105311  0.02  -0.784601  0.030414  2.069336  0.018  -0.543275  -0.743149  0.03801  2.130871  0.024
O  O52  1  0.12387666  0.96938103  0.53687179  1  -0.598314  0.02324  2.175957  0.015  -0.538042  0.031113  2.428207  0.021  -0.558536  0.02774  2.41379  0.019  -0.386143  -0.522126  0.034374  2.438035  0.024
O  O53  1  0.37612075  0.03061002  0.03686777  1  -0.598356  0.023233  2.176039  0.015  -0.538118  0.031111  2.42823  0.021  -0.558612  0.027737  2.413825  0.018  -0.386177  -0.5222  0.034371  2.438047  0.024
O  O54  1  0.62388045  0.53061783  0.46312355  1  -0.598348  0.023234  2.176028  0.015  -0.538013  0.031113  2.428229  0.021  -0.558513  0.02774  2.413818  0.019  -0.386094  -0.522092  0.034372  2.438049  0.024
O  O55  1  0.87612471  0.46938607  0.96312975  1  -0.59827  0.023241  2.176168  0.015  -0.538017  0.031113  2.428302  0.021  -0.558513  0.02774  2.413886  0.019  -0.386174  -0.522098  0.034373  2.438124  0.024
O  O56  1  0.86323790  0.11431037  0.82734344  1  -0.652799  0.032024  2.041633  0.019  -0.580536  0.040165  2.297787  0.023  -0.611651  0.035723  2.283806  0.019  -0.301824  -0.557842  0.044441  2.306999  0.026
O  O57  1  0.63675383  0.88569410  0.32734056  1  -0.65266  0.032017  2.041752  0.019  -0.580406  0.040162  2.297978  0.023  -0.611519  0.03572  2.283979  0.019  -0.301762  -0.557714  0.044437  2.307187  0.026
O  O58  1  0.36323329  0.38569112  0.17265524  1  -0.652853  0.032026  2.041683  0.019  -0.580533  0.040159  2.297837  0.023  -0.611658  0.035719  2.283855  0.019  -0.301802  -0.557837  0.044435  2.307043  0.026
O  O59  1  0.13676501  0.61431137  0.67265476  1  -0.652985  0.03202  2.041633  0.019  -0.580618  0.040164  2.29778  0.023  -0.611741  0.035722  2.28379  0.019  -0.301843  -0.557923  0.044438  2.306985  0.026
O  O60  1  0.42603891  0.10682924  0.72262323  1  -0.656379  0.032754  2.067955  0.02  -0.588784  0.03996  2.339986  0.022  -0.618783  0.03497  2.324358  0.018  -0.310917  -0.566198  0.045504  2.349578  0.028
O  O61  1  0.07396428  0.89317712  0.22262509  1  -0.656526  0.032756  2.068015  0.02  -0.58883  0.03996  2.33995  0.022  -0.618831  0.03497  2.324324  0.018  -0.310923  -0.566246  0.045503  2.349549  0.028
O  O62  1  0.92602415  0.39317691  0.27737981  1  -0.656438  0.032758  2.068148  0.02  -0.588839  0.03996  2.340218  0.022  -0.618809  0.034972  2.324528  0.018  -0.310943  -0.566255  0.045506  2.349818  0.028
O  O63  1  0.57396897  0.60682260  0.77737486  1  -0.656424  0.032747  2.068057  0.02  -0.588837  0.039959  2.340127  0.022  -0.618837  0.034971  2.324471  0.018  -0.310915  -0.566255  0.045504  2.349728  0.028
O  O64  1  0.42113678  0.34760589  0.68455671  1  -0.681129  0.034092  2.094464  0.023  -0.610531  0.042678  2.362755  0.028  -0.642233  0.037729  2.348686  0.024  -0.307303  -0.586742  0.047694  2.371466  0.033
O  O65  1  0.07886525  0.65239784  0.18456453  1  -0.681189  0.034091  2.094704  0.023  -0.610534  0.04267  2.362886  0.028  -0.642247  0.03772  2.34884  0.024  -0.307309  -0.586745  0.047685  2.371598  0.033
O  O66  1  0.92113923  0.15239697  0.31543171  1  -0.681294  0.034092  2.094283  0.023  -0.610647  0.042673  2.362466  0.028  -0.642361  0.037723  2.348412  0.024  -0.30731  -0.586848  0.047687  2.37117  0.033
O  O67  1  0.57886382  0.84760081  0.81544104  1  -0.681299  0.034104  2.094518  0.023  -0.61064  0.042677  2.362713  0.028  -0.642343  0.037727  2.348642  0.024  -0.307377  -0.586849  0.047691  2.371421  0.033
