# generated using pymatgen
data_LiH15C16SN2
_symmetry_space_group_name_H-M   'P 1'
_cell_length_a   8.55417238
_cell_length_b   9.61260052
_cell_length_c   18.00440000
_cell_angle_alpha   90.00000000
_cell_angle_beta   90.00000000
_cell_angle_gamma   100.07557408
_symmetry_Int_Tables_number   1
_chemical_formula_structural   LiH15C16SN2
_chemical_formula_sum   'Li4 H60 C64 S4 N8'
_cell_volume   1457.63103697
_cell_formula_units_Z   4
loop_
 _symmetry_equiv_pos_site_id
 _symmetry_equiv_pos_as_xyz
  1  'x, y, z'
loop_
 _atom_site_type_symbol
 _atom_site_label
 _atom_site_symmetry_multiplicity
 _atom_site_fract_x
 _atom_site_fract_y
 _atom_site_fract_z
 _atom_site_occupancy
 _atom_site_hle17_bader_spin_density
 _atom_site_hle17_ddec_charge
 _atom_site_hle17_ddec_spin_density
 _atom_site_hle17_ddec_sum_bond_order
 _atom_site_hle17_magmom
 _atom_site_hse06_10hf_bader_spin_density
 _atom_site_hse06_10hf_ddec_charge
 _atom_site_hse06_10hf_ddec_spin_density
 _atom_site_hse06_10hf_ddec_sum_bond_order
 _atom_site_hse06_10hf_magmom
 _atom_site_hse06_bader_spin_density
 _atom_site_hse06_ddec_charge
 _atom_site_hse06_ddec_spin_density
 _atom_site_hse06_ddec_sum_bond_order
 _atom_site_hse06_magmom
 _atom_site_pbe_bader_charge
 _atom_site_pbe_bader_spin_density
 _atom_site_pbe_cm5_charge
 _atom_site_pbe_ddec_charge
 _atom_site_pbe_ddec_spin_density
 _atom_site_pbe_ddec_sum_bond_order
 _atom_site_pbe_magmom
Li  Li0  1  0.85796515  0.49998449  0.77730499  1  0  0.729471  0  0.580063  0  0  0.661039  0  0.726762  0  0  0.670425  0  0.713892  0  0.845148  0  0.398351  0.654491  0  0.735555  0
Li  Li1  1  0.64204200  0.50001196  0.27730666  1  0  0.729451  0  0.580058  0  0  0.661016  0  0.726789  0  0  0.670401  0  0.71392  0  0.845177  0  0.398341  0.654469  0  0.735578  0
Li  Li2  1  0.14203963  0.50001408  0.22269501  1  0  0.729463  0  0.580048  0  0  0.661015  0  0.726773  0  0  0.670401  0  0.713903  0  0.845197  0  0.398342  0.654467  0  0.735566  0
Li  Li3  1  0.35796257  0.49998555  0.72269334  1  0  0.729473  0  0.580046  0  0  0.661053  0  0.726743  0  0  0.670438  0  0.713872  0  0.845136  0  0.398351  0.654506  0  0.735532  0
H  H4  1  0.67585545  0.20866084  0.80583524  1  0  0.07107  0  0.945856  0  0  0.076822  0  1.014024  0  0  0.07887  0  1.013566  0  0.093409  0  0.115134  0.075362  0  1.014242  0
H  H5  1  0.82414055  0.79133244  0.30583413  1  0  0.071063  0  0.945808  0  0  0.076791  0  1.013998  0  0  0.078837  0  1.013545  0  0.093423  0  0.115149  0.075332  0  1.014214  0
H  H6  1  0.32414073  0.79133561  0.19416420  1  0  0.071073  0  0.945851  0  0  0.076829  0  1.014015  0  0  0.078876  0  1.01356  0  0.093362  0  0.115136  0.075366  0  1.014231  0
H  H7  1  0.17585576  0.20865873  0.69416309  1  0  0.071034  0  0.945852  0  0  0.076793  0  1.014023  0  0  0.07884  0  1.013568  0  0.093361  0  0.115129  0.075333  0  1.01424  0
H  H8  1  0.60556818  0.98157153  0.73676823  1  0  0.111479  0  0.960759  0  0  0.120665  0  1.019238  0  0  0.122697  0  1.020716  0  0.121942  0  0.108594  0.119392  0  1.018071  0
H  H9  1  0.89444027  0.01841964  0.23676823  1  0  0.111497  0  0.960686  0  0  0.12072  0  1.019135  0  0  0.122721  0  1.020635  0  0.12192  0  0.108615  0.119446  0  1.017969  0
H  H10  1  0.39443151  0.01842492  0.26323010  1  0  0.111463  0  0.960778  0  0  0.120646  0  1.019271  0  0  0.122685  0  1.020725  0  0.121954  0  0.108583  0.119372  0  1.018105  0
H  H11  1  0.10556560  0.98157258  0.76323177  1  0  0.111484  0  0.960773  0  0  0.120671  0  1.019258  0  0  0.12271  0  1.020716  0  0.121937  0  0.10859  0.119398  0  1.018092  0
H  H12  1  0.71178214  0.96641571  0.60727211  1  0  0.084792  0  0.951353  0  0  0.098263  0  1.010177  0  0  0.100409  0  1.008681  0  0.054836  0  0.105853  0.096905  0  1.010956  0
H  H13  1  0.78822735  0.03358074  0.10727267  1  0  0.084822  0  0.951339  0  0  0.098243  0  1.010202  0  0  0.100387  0  1.008709  0  0.054697  0  0.10584  0.096885  0  1.010981  0
H  H14  1  0.28822030  0.03358285  0.39272733  1  0  0.084791  0  0.951313  0  0  0.098261  0  1.010133  0  0  0.100405  0  1.008639  0  0.054854  0  0.105837  0.096903  0  1.010912  0
H  H15  1  0.21177709  0.96642205  0.89272900  1  0  0.084815  0  0.951263  0  0  0.098262  0  1.010093  0  0  0.100407  0  1.008599  0  0.054989  0  0.105842  0.096903  0  1.010874  0
H  H16  1  0.88688830  0.18032716  0.55329586  1  0  0.099007  0  0.972923  0  0  0.107842  0  1.034576  0  0  0.110179  0  1.035566  0  0.093317  0  0.101528  0.106364  0  1.033761  0
H  H17  1  0.61311830  0.81967246  0.05329308  1  0  0.099012  0  0.972908  0  0  0.107821  0  1.034585  0  0  0.110159  0  1.035575  0  0.093521  0  0.101526  0.106343  0  1.03377  0
H  H18  1  0.11311180  0.81967141  0.44670414  1  0  0.098959  0  0.973009  0  0  0.107823  0  1.03463  0  0  0.110159  0  1.035621  0  0.093336  0  0.101525  0.106344  0  1.033815  0
H  H19  1  0.38688229  0.18033456  0.94670414  1  0  0.09894  0  0.973024  0  0  0.107779  0  1.034672  0  0  0.110115  0  1.035662  0  0.093498  0  0.101473  0.106301  0  1.033856  0
H  H20  1  0.95175709  0.39772605  0.63278921  1  0  0.059929  0  0.968152  0  0  0.064253  0  1.044019  0  0  0.067022  0  1.041437  0  0.069622  0  0.112337  0.062414  0  1.045515  0
H  H21  1  0.54824250  0.60227357  0.13278754  1  0  0.05992  0  0.968153  0  0  0.064244  0  1.044022  0  0  0.067014  0  1.04144  0  0.069616  0  0.112328  0.062407  0  1.045518  0
H  H22  1  0.04824089  0.60227357  0.36721024  1  0  0.059891  0  0.9682  0  0  0.064217  0  1.044065  0  0  0.066986  0  1.041483  0  0.0696  0  0.11233  0.062381  0  1.04556  0
H  H23  1  0.45175534  0.39773134  0.86720802  1  0  0.059928  0  0.968128  0  0  0.064256  0  1.043991  0  0  0.067028  0  1.041407  0  0.069627  0  0.112321  0.062418  0  1.04549  0
H  H24  1  0.02878961  0.31599728  0.86461865  1  0  0.072769  0  0.94429  0  0  0.080663  0  1.009393  0  0  0.082476  0  1.009331  0  0.110831  0  0.117032  0.079228  0  1.00958  0
H  H25  1  0.47122462  0.68399811  0.36461754  1  0  0.072714  0  0.944332  0  0  0.080589  0  1.009485  0  0  0.082402  0  1.009423  0  0.110978  0  0.117051  0.079156  0  1.009664  0
H  H26  1  0.97121655  0.68400234  0.13538357  1  0  0.0727  0  0.944291  0  0  0.080608  0  1.009402  0  0  0.08242  0  1.009341  0  0.110877  0  0.117039  0.079174  0  1.009584  0
H  H27  1  0.52878304  0.31599728  0.63538024  1  0  0.072714  0  0.94435  0  0  0.080614  0  1.009446  0  0  0.082425  0  1.009385  0  0.110928  0  0.117036  0.079181  0  1.009627  0
H  H28  1  0.04091977  0.22624472  0.99469741  1  0  0.09804  0  0.96145  0  0  0.107229  0  1.023028  0  0  0.109558  0  1.023957  0  0.088072  0  0.103616  0.105596  0  1.022433  0
H  H29  1  0.45908243  0.77375491  0.49469407  1  0  0.098021  0  0.961543  0  0  0.107196  0  1.023124  0  0  0.109517  0  1.024055  0  0.088061  0  0.103622  0.105562  0  1.022528  0
H  H30  1  0.95907532  0.77375807  0.00530759  1  0  0.097982  0  0.961569  0  0  0.107165  0  1.02315  0  0  0.10949  0  1.024077  0  0.088007  0  0.103605  0.105532  0  1.022554  0
H  H31  1  0.54090803  0.22623626  0.50530204  1  0  0.097963  0  0.961576  0  0  0.1072  0  1.023098  0  0  0.109524  0  1.024033  0  0.088494  0  0.10361  0.105567  0  1.022503  0
H  H32  1  0.85260498  0.29642701  0.09035347  1  0  0.095324  0  0.956308  0  0  0.103956  0  1.022013  0  0  0.106579  0  1.020564  0  0.098991  0  0.102828  0.102005  0  1.023204  0
H  H33  1  0.64738270  0.70357156  0.59035514  1  0  0.09541  0  0.956377  0  0  0.104077  0  1.022008  0  0  0.106701  0  1.020559  0  0.09895  0  0.10291  0.102148  0  1.023179  0
H  H34  1  0.14738192  0.70357579  0.90964820  1  0  0.095423  0  0.956306  0  0  0.104039  0  1.022024  0  0  0.10666  0  1.020578  0  0.09898  0  0.102883  0.102114  0  1.02319  0
H  H35  1  0.35259160  0.29642067  0.40964709  1  0  0.095369  0  0.956319  0  0  0.104022  0  1.022003  0  0  0.10664  0  1.020563  0  0.098591  0  0.102872  0.102104  0  1.023161  0
H  H36  1  0.65967727  0.44881671  0.04979172  1  0  0.09585  0  0.961098  0  0  0.107492  0  1.019843  0  0  0.11006  0  1.019931  0  0.056779  0  0.104994  0.105602  0  1.019981  0
H  H37  1  0.84031826  0.55118609  0.54980005  1  0  0.095903  0  0.96098  0  0  0.107535  0  1.019736  0  0  0.110103  0  1.019825  0  0.056842  0  0.105046  0.105646  0  1.019873  0
H  H38  1  0.34031142  0.55118926  0.95020495  1  0  0.095855  0  0.961192  0  0  0.107492  0  1.019923  0  0  0.11006  0  1.02001  0  0.0568  0  0.105023  0.105605  0  1.020056  0
H  H39  1  0.15967153  0.44881354  0.45020773  1  0  0.095893  0  0.961112  0  0  0.107514  0  1.019874  0  0  0.110082  0  1.019962  0  0.05637  0  0.104996  0.105622  0  1.020015  0
H  H40  1  0.67105929  0.53736052  0.91814779  1  0  0.067484  0  0.958814  0  0  0.074884  0  1.025584  0  0  0.076785  0  1.024764  0  0.078313  0  0.112661  0.07345  0  1.0262  0
H  H41  1  0.82895081  0.46263910  0.41815556  1  0  0.067436  0  0.95891  0  0  0.074838  0  1.025672  0  0  0.076753  0  1.024817  0  0.078434  0  0.112631  0.073407  0  1.026286  0
H  H42  1  0.32894419  0.46264332  0.08184888  1  0  0.067486  0  0.95879  0  0  0.074882  0  1.025582  0  0  0.076789  0  1.024749  0  0.078336  0  0.112656  0.073448  0  1.026197  0
H  H43  1  0.17105576  0.53736264  0.58185166  1  0  0.06743  0  0.958865  0  0  0.074826  0  1.025648  0  0  0.076731  0  1.024822  0  0.078271  0  0.112634  0.073396  0  1.02626  0
H  H44  1  0.41256533  0.78928370  0.69403201  1  0  0.085593  0  0.992049  0  0  0.094166  0  1.062214  0  0  0.09749  0  1.060636  0  0.057226  0  0.091804  0.091501  0  1.063927  0
H  H45  1  0.08743235  0.21072860  0.19403590  1  0  0.085484  0  0.992106  0  0  0.094065  0  1.062267  0  0  0.09738  0  1.060696  0  0.057362  0  0.091789  0.0914  0  1.06398  0
H  H46  1  0.58743945  0.21071487  0.30596687  1  0  0.085627  0  0.992053  0  0  0.094196  0  1.062215  0  0  0.097523  0  1.060636  0  0.057199  0  0.09183  0.091532  0  1.063927  0
H  H47  1  0.91257188  0.78927313  0.80596632  1  0  0.085472  0  0.992132  0  0  0.094051  0  1.062286  0  0  0.09737  0  1.060714  0  0.057375  0  0.09179  0.091387  0  1.063998  0
H  H48  1  0.44256800  0.98086889  0.59998945  1  0  0.065743  0  0.99074  0  0  0.078325  0  1.054102  0  0  0.080547  0  1.053418  0  0.055372  0  0.087564  0.076551  0  1.054805  0
H  H49  1  0.05742054  0.01914447  0.09999333  1  0  0.06583  0  0.990792  0  0  0.078427  0  1.054128  0  0  0.080657  0  1.053426  0  0.05537  0  0.08758  0.076614  0  1.054868  0
H  H50  1  0.55743857  0.01913284  0.40001055  1  0  0.065761  0  0.990696  0  0  0.078375  0  1.054018  0  0  0.080598  0  1.053333  0  0.055449  0  0.087574  0.076581  0  1.054739  0
H  H51  1  0.94257868  0.98086150  0.90000722  1  0  0.065761  0  0.990753  0  0  0.078355  0  1.054094  0  0  0.080582  0  1.053403  0  0.055369  0  0.087531  0.07656  0  1.054817  0
H  H52  1  0.20617671  0.04229132  0.53611395  1  0  0.07062  0  0.989908  0  0  0.080521  0  1.057291  0  0  0.083045  0  1.056806  0  0.030138  0  0.085522  0.078654  0  1.05776  0
H  H53  1  0.29380858  0.95771147  0.03611339  1  0  0.07059  0  0.989871  0  0  0.080479  0  1.057264  0  0  0.083001  0  1.056786  0  0.030182  0  0.085549  0.078598  0  1.057746  0
H  H54  1  0.79383111  0.95771676  0.46388883  1  0  0.070636  0  0.989895  0  0  0.080551  0  1.057247  0  0  0.08307  0  1.056779  0  0.030084  0  0.085518  0.078684  0  1.057716  0
H  H55  1  0.70618589  0.04228815  0.96388272  1  0  0.070625  0  0.989901  0  0  0.080521  0  1.057274  0  0  0.083041  0  1.056803  0  0.029643  0  0.085543  0.078641  0  1.057755  0
H  H56  1  0.93753559  0.90520604  0.56587612  1  0  0.06685  0  0.988716  0  0  0.079371  0  1.052743  0  0  0.081504  0  1.051802  0  0.037467  0  0.088173  0.077749  0  1.053524  0
H  H57  1  0.56245423  0.09479147  0.06587667  1  0  0.066853  0  0.988777  0  0  0.079346  0  1.052814  0  0  0.081476  0  1.051882  0  0.037592  0  0.088188  0.077728  0  1.053586  0
H  H58  1  0.06247022  0.09479781  0.43412444  1  0  0.066842  0  0.988812  0  0  0.07937  0  1.052826  0  0  0.081503  0  1.051885  0  0.037465  0  0.088168  0.077745  0  1.053618  0
H  H59  1  0.43754450  0.90520604  0.93412055  1  0  0.066898  0  0.988781  0  0  0.079418  0  1.052786  0  0  0.08155  0  1.051846  0  0.037616  0  0.088198  0.077797  0  1.053562  0
H  H60  1  0.90459583  0.72115226  0.66364555  1  0  0.081672  0  1.008786  0  0  0.087912  0  1.082908  0  0  0.091564  0  1.081264  0  0.100127  0  0.085956  0.085277  0  1.084107  0
H  H61  1  0.59539984  0.27884525  0.16364333  1  0  0.081637  0  1.008798  0  0  0.087867  0  1.082936  0  0  0.091519  0  1.081294  0  0.100155  0  0.085956  0.085234  0  1.08413  0
H  H62  1  0.09541074  0.27884947  0.33635500  1  0  0.081636  0  1.008812  0  0  0.0879  0  1.082918  0  0  0.091553  0  1.081278  0  0.100474  0  0.085948  0.085267  0  1.084115  0
H  H63  1  0.40460377  0.72115332  0.83635334  1  0  0.081662  0  1.008858  0  0  0.087915  0  1.082966  0  0  0.091569  0  1.081324  0  0.100147  0  0.085988  0.085281  0  1.084166  0
C  C64  1  0.72069142  0.19807903  0.74976950  1  0  0.138203  0  3.714014  0  0  0.111789  0  3.968549  0  0  0.117513  0  3.98536  0  0.485003  0  0.053573  0.108196  0  3.956566  0
C  C65  1  0.77931243  0.80191848  0.24976783  1  0  0.138176  0  3.713874  0  0  0.11177  0  3.968446  0  0  0.117494  0  3.985249  0  0.485219  0  0.053557  0.108177  0  3.956464  0
C  C66  1  0.27930476  0.80191742  0.25022994  1  0  0.138181  0  3.713971  0  0  0.111769  0  3.96852  0  0  0.11749  0  3.985335  0  0.484527  0  0.053599  0.108181  0  3.95653  0
C  C67  1  0.22069256  0.19808115  0.75022939  1  0  0.138338  0  3.713934  0  0  0.111914  0  3.968494  0  0  0.117637  0  3.985308  0  0.485041  0  0.05363  0.10832  0  3.956511  0
C  C68  1  0.68085695  0.07146817  0.71087456  1  0  -0.110605  0  3.705661  0  0  -0.120156  0  3.947898  0  0  -0.126678  0  3.970577  0  -0.023621  0  -0.078063  -0.115726  0  3.931969  0
C  C69  1  0.81914518  0.92853251  0.21087567  1  0  -0.110599  0  3.70552  0  0  -0.120174  0  3.947726  0  0  -0.126664  0  3.970428  0  -0.023826  0  -0.078074  -0.115741  0  3.931797  0
C  C70  1  0.31914198  0.92853040  0.28912433  1  0  -0.110586  0  3.705502  0  0  -0.120142  0  3.947744  0  0  -0.126659  0  3.970431  0  -0.023591  0  -0.078074  -0.11571  0  3.931813  0
C  C71  1  0.18085437  0.07146922  0.78912544  1  0  -0.110742  0  3.705422  0  0  -0.120304  0  3.947674  0  0  -0.126824  0  3.970356  0  -0.023597  0  -0.078114  -0.115872  0  3.931744  0
C  C72  1  0.74061675  0.06388392  0.63920486  1  0  -0.013293  0  3.736003  0  0  -0.031314  0  3.981267  0  0  -0.029135  0  4.001064  0  -0.12596  0  -0.067972  -0.032037  0  3.966906  0
C  C73  1  0.75939453  0.93611570  0.13920542  1  0  -0.013295  0  3.735996  0  0  -0.031265  0  3.981249  0  0  -0.02909  0  4.001049  0  -0.125822  0  -0.067957  -0.031987  0  3.966884  0
C  C74  1  0.25938411  0.93611253  0.36079458  1  0  -0.013267  0  3.736053  0  0  -0.031289  0  3.981327  0  0  -0.029112  0  4.001129  0  -0.125953  0  -0.067927  -0.03201  0  3.966962  0
C  C75  1  0.24061191  0.06389132  0.86079681  1  0  -0.013186  0  3.735906  0  0  -0.031158  0  3.981144  0  0  -0.028984  0  4.000954  0  -0.126192  0  -0.067909  -0.031879  0  3.96678  0
C  C76  1  0.83823457  0.18210964  0.60916720  1  0  -0.133741  0  3.7532  0  0  -0.142421  0  3.996377  0  0  -0.149358  0  4.019339  0  0.00457  0  -0.088333  -0.137713  0  3.980244  0
C  C77  1  0.66177258  0.81788682  0.10916720  1  0  -0.133742  0  3.753153  0  0  -0.142393  0  3.996304  0  0  -0.14933  0  4.019267  0  0.004465  0  -0.088313  -0.137685  0  3.980171  0
C  C78  1  0.16176850  0.81789210  0.39083224  1  0  -0.133748  0  3.753312  0  0  -0.142451  0  3.996485  0  0  -0.149388  0  4.019449  0  0.004572  0  -0.088375  -0.137744  0  3.980352  0
C  C79  1  0.33822656  0.18211281  0.89083335  1  0  -0.13374  0  3.753275  0  0  -0.142433  0  3.99644  0  0  -0.149369  0  4.019401  0  0.004565  0  -0.088335  -0.137725  0  3.980307  0
C  C80  1  0.87301939  0.30332975  0.65267601  1  0  0.119306  0  3.763385  0  0  0.093709  0  4.01789  0  0  0.09899  0  4.035227  0  0.485825  0  0.04688  0.090751  0  4.005415  0
C  C81  1  0.62698233  0.69666882  0.15267601  1  0  0.119258  0  3.763424  0  0  0.093664  0  4.01792  0  0  0.098945  0  4.035258  0  0.485805  0  0.046861  0.090706  0  4.005443  0
C  C82  1  0.12697838  0.69666882  0.34732399  1  0  0.119388  0  3.763279  0  0  0.093793  0  4.017785  0  0  0.099073  0  4.035122  0  0.485842  0  0.046917  0.090832  0  4.005313  0
C  C83  1  0.37301723  0.30333292  0.84732232  1  0  0.119374  0  3.76315  0  0  0.093785  0  4.017644  0  0  0.099067  0  4.034978  0  0.485867  0  0.046968  0.090826  0  4.005169  0
C  C84  1  0.94875889  0.34316977  0.90741319  1  0  0.133063  0  3.719808  0  0  0.107391  0  3.972693  0  0  0.113245  0  3.990199  0  0.447462  0  0.052346  0.103749  0  3.960706  0
C  C85  1  0.55125101  0.65682880  0.40741374  1  0  0.133204  0  3.719839  0  0  0.107498  0  3.972775  0  0  0.113352  0  3.990279  0  0.447236  0  0.052326  0.103859  0  3.960788  0
C  C86  1  0.05124183  0.65683197  0.09258848  1  0  0.133216  0  3.719673  0  0  0.107513  0  3.972577  0  0  0.113367  0  3.990083  0  0.447795  0  0.05236  0.103874  0  3.960589  0
C  C87  1  0.44875177  0.34316554  0.59258737  1  0  0.133271  0  3.71958  0  0  0.107579  0  3.972521  0  0  0.113435  0  3.990024  0  0.445609  0  0.052406  0.10394  0  3.960533  0
C  C88  1  0.95418880  0.29214885  0.97974884  1  0  -0.129565  0  3.744714  0  0  -0.138154  0  3.989181  0  0  -0.145435  0  4.012281  0  -0.002396  0  -0.085  -0.133524  0  3.973475  0
C  C89  1  0.54581292  0.70784972  0.47974551  1  0  -0.129631  0  3.744718  0  0  -0.138191  0  3.989239  0  0  -0.145461  0  4.012327  0  -0.002377  0  -0.085021  -0.133563  0  3.97354  0
C  C90  1  0.04581502  0.70785077  0.02025394  1  0  -0.129528  0  3.744934  0  0  -0.1381  0  3.989441  0  0  -0.145372  0  4.012534  0  -0.002504  0  -0.084968  -0.133471  0  3.973741  0
C  C91  1  0.45417583  0.29214462  0.52025116  1  0  -0.129532  0  3.744857  0  0  -0.138164  0  3.989392  0  0  -0.145439  0  4.012486  0  -0.002396  0  -0.085036  -0.133537  0  3.973695  0
C  C92  1  0.84939936  0.32985665  0.03237820  1  0  -0.006956  0  3.713629  0  0  -0.025435  0  3.959791  0  0  -0.022971  0  3.979967  0  -0.056385  0  -0.065896  -0.026626  0  3.945985  0
C  C93  1  0.65059597  0.67014508  0.53238153  1  0  -0.007046  0  3.713539  0  0  -0.025525  0  3.95966  0  0  -0.023062  0  3.979837  0  -0.056234  0  -0.065952  -0.026735  0  3.945848  0
C  C94  1  0.15059436  0.67014508  0.96762069  1  0  -0.007096  0  3.713726  0  0  -0.025572  0  3.959902  0  0  -0.023109  0  3.98008  0  -0.056234  0  -0.065982  -0.026785  0  3.946088  0
C  C95  1  0.34938982  0.32984609  0.46762291  1  0  -0.007196  0  3.713583  0  0  -0.025694  0  3.959789  0  0  -0.023231  0  3.979966  0  -0.056986  0  -0.065975  -0.026913  0  3.945971  0
C  C96  1  0.74307650  0.41680818  0.01026027  1  0  -0.124715  0  3.743232  0  0  -0.133264  0  3.984565  0  0  -0.140685  0  4.008143  0  -0.047532  0  -0.084356  -0.128545  0  3.96868  0
C  C97  1  0.75692467  0.58319355  0.51026693  1  0  -0.124602  0  3.742974  0  0  -0.133163  0  3.984312  0  0  -0.140588  0  4.007893  0  -0.047772  0  -0.084312  -0.128446  0  3.968437  0
C  C98  1  0.25692347  0.58319567  0.98973695  1  0  -0.12458  0  3.743085  0  0  -0.13311  0  3.984404  0  0  -0.14053  0  4.007981  0  -0.047564  0  -0.084312  -0.128394  0  3.96853  0
C  C99  1  0.24306567  0.41680290  0.48973862  1  0  -0.124575  0  3.742864  0  0  -0.133099  0  3.984154  0  0  -0.140519  0  4.007731  0  -0.046343  0  -0.084272  -0.128382  0  3.968281  0
C  C100  1  0.74786202  0.46490021  0.93717925  1  0  0.11988  0  3.740477  0  0  0.095514  0  3.991145  0  0  0.100754  0  4.00975  0  0.465229  0  0.047199  0.092348  0  3.978151  0
C  C101  1  0.75214499  0.53510152  0.43718535  1  0  0.119742  0  3.740616  0  0  0.095393  0  3.991259  0  0  0.100639  0  4.009868  0  0.465166  0  0.04709  0.092223  0  3.978264  0
C  C102  1  0.25213912  0.53510364  0.06281909  1  0  0.119727  0  3.74038  0  0  0.09535  0  3.991061  0  0  0.10059  0  4.009668  0  0.465303  0  0.047119  0.092185  0  3.978068  0
C  C103  1  0.24785415  0.46489810  0.56282020  1  0  0.119855  0  3.740523  0  0  0.095493  0  3.991179  0  0  0.100733  0  4.009788  0  0.465108  0  0.047138  0.092326  0  3.978182  0
C  C104  1  0.15613678  0.74153189  0.68651385  1  0  0.143943  0  3.831773  0  0  0.163632  0  4.072633  0  0  0.168576  0  4.094923  0  -0.161115  0  -0.010086  0.160177  0  4.0577  0
C  C105  1  0.34387079  0.25847724  0.18651441  1  0  0.143766  0  3.831778  0  0  0.163448  0  4.072663  0  0  0.168391  0  4.094951  0  -0.161069  0  -0.010185  0.159992  0  4.057731  0
C  C106  1  0.84387584  0.25847090  0.31348670  1  0  0.14387  0  3.831735  0  0  0.163589  0  4.072577  0  0  0.168536  0  4.094861  0  -0.161139  0  -0.010085  0.160114  0  4.05768  0
C  C107  1  0.65613248  0.74152555  0.81348670  1  0  0.143823  0  3.831659  0  0  0.163522  0  4.072542  0  0  0.168466  0  4.09483  0  -0.161069  0  -0.010141  0.16006  0  4.057623  0
C  C108  1  0.30787161  0.81590675  0.66647819  1  0  -0.147982  0  3.736889  0  0  -0.162233  0  3.977784  0  0  -0.16666  0  3.998453  0  -0.098029  0  -0.10405  -0.15974  0  3.964059  0
C  C109  1  0.19212724  0.18410555  0.16648042  1  0  -0.147764  0  3.73671  0  0  -0.162012  0  3.9776  0  0  -0.16643  0  3.998278  0  -0.098105  0  -0.103987  -0.159517  0  3.963865  0
C  C110  1  0.69213358  0.18409393  0.33352181  1  0  -0.14792  0  3.736643  0  0  -0.162168  0  3.977518  0  0  -0.166598  0  3.998189  0  -0.097762  0  -0.104041  -0.159667  0  3.963793  0
C  C111  1  0.80787390  0.81589830  0.83352014  1  0  -0.147806  0  3.736727  0  0  -0.162053  0  3.977607  0  0  -0.166476  0  3.99828  0  -0.098281  0  -0.104021  -0.159558  0  3.963877  0
C  C112  1  0.32472226  0.92229543  0.61297683  1  0  -0.07584  0  3.841133  0  0  -0.084652  0  4.081808  0  0  -0.084755  0  4.102845  0  -0.075343  0  -0.105845  -0.084297  0  4.067602  0
C  C113  1  0.17526778  0.07771371  0.11297683  1  0  -0.076073  0  3.841433  0  0  -0.08491  0  4.082105  0  0  -0.085014  0  4.103145  0  -0.07552  0  -0.105846  -0.084521  0  4.067908  0
C  C114  1  0.67528410  0.07770525  0.38702539  1  0  -0.075869  0  3.840915  0  0  -0.084721  0  4.08162  0  0  -0.084826  0  4.102659  0  -0.075367  0  -0.105864  -0.084349  0  4.06742  0
C  C115  1  0.82472944  0.92228803  0.88702206  1  0  -0.075931  0  3.841222  0  0  -0.084757  0  4.0819  0  0  -0.084861  0  4.102935  0  -0.075383  0  -0.105772  -0.084383  0  4.067697  0
C  C116  1  0.19216532  0.95690635  0.57673124  1  0  -0.126066  0  3.844156  0  0  -0.137157  0  4.089966  0  0  -0.14004  0  4.111059  0  -0.028913  0  -0.121259  -0.135504  0  4.076021  0
C  C117  1  0.30782706  0.04310279  0.07673069  1  0  -0.125911  0  3.844191  0  0  -0.136972  0  4.089978  0  0  -0.139855  0  4.111073  0  -0.028722  0  -0.121224  -0.135302  0  4.076031  0
C  C118  1  0.80784167  0.04309750  0.42326987  1  0  -0.126197  0  3.844166  0  0  -0.137292  0  4.08998  0  0  -0.140179  0  4.111071  0  -0.028859  0  -0.121326  -0.135637  0  4.07603  0
C  C119  1  0.69216865  0.95690318  0.92326542  1  0  -0.125989  0  3.844053  0  0  -0.13706  0  4.089851  0  0  -0.139945  0  4.110939  0  -0.028105  0  -0.121263  -0.135393  0  4.07591  0
C  C120  1  0.04200272  0.88143685  0.59447468  1  0  -0.077533  0  3.842755  0  0  -0.086075  0  4.08282  0  0  -0.086311  0  4.104526  0  -0.078651  0  -0.107039  -0.085828  0  4.068137  0
C  C121  1  0.45798958  0.11856594  0.09447357  1  0  -0.077632  0  3.842882  0  0  -0.086164  0  4.082988  0  0  -0.086401  0  4.10469  0  -0.078845  0  -0.107148  -0.085917  0  4.068303  0
C  C122  1  0.95800268  0.11856489  0.40552643  1  0  -0.077443  0  3.842901  0  0  -0.085976  0  4.082942  0  0  -0.086211  0  4.104649  0  -0.078746  0  -0.106961  -0.08573  0  4.068256  0
C  C123  1  0.54200447  0.88143157  0.90552365  1  0  -0.077662  0  3.842872  0  0  -0.086197  0  4.082959  0  0  -0.086431  0  4.104659  0  -0.078903  0  -0.107109  -0.085949  0  4.068276  0
C  C124  1  0.02333337  0.77623896  0.64870198  1  0  -0.159317  0  3.75501  0  0  -0.172003  0  3.99606  0  0  -0.176873  0  4.016512  0  -0.091367  0  -0.110563  -0.168631  0  3.982136  0
C  C125  1  0.47666574  0.22376277  0.14870143  1  0  -0.159162  0  3.754913  0  0  -0.171823  0  3.995937  0  0  -0.176694  0  4.01639  0  -0.091403  0  -0.110477  -0.168461  0  3.982035  0
C  C126  1  0.97667320  0.22376277  0.35129746  1  0  -0.159255  0  3.754946  0  0  -0.171991  0  3.99601  0  0  -0.176865  0  4.016464  0  -0.091907  0  -0.110577  -0.168615  0  3.982095  0
C  C127  1  0.52333340  0.77623685  0.85129746  1  0  -0.159236  0  3.755159  0  0  -0.171959  0  3.996232  0  0  -0.176829  0  4.01668  0  -0.091453  0  -0.110571  -0.168589  0  3.982318  0
S  S128  1  0.13467161  0.61211682  0.75611462  1  0  -0.700392  0  1.946516  0  0  -0.664372  0  2.267529  0  0  -0.678261  0  2.260785  0  -0.57087  0  -0.300026  -0.655134  0  2.271978  0
S  S129  1  0.36533217  0.38788492  0.25611684  1  0  -0.700363  0  1.946597  0  0  -0.664359  0  2.26766  0  0  -0.678248  0  2.260919  0  -0.570953  0  -0.300048  -0.655121  0  2.272112  0
S  S130  1  0.86533241  0.38788386  0.24388483  1  0  -0.700387  0  1.946521  0  0  -0.664378  0  2.267561  0  0  -0.678266  0  2.260812  0  -0.570923  0  -0.300035  -0.65513  0  2.272016  0
S  S131  1  0.63467398  0.61211471  0.74388427  1  0  -0.700393  0  1.94652  0  0  -0.664374  0  2.267532  0  0  -0.678261  0  2.260786  0  -0.570913  0  -0.300028  -0.655132  0  2.271982  0
N  N132  1  0.81528941  0.31238478  0.72161860  1  0  -0.409351  0  3.243382  0  0  -0.356567  0  3.509489  0  0  -0.367863  0  3.524708  0  -1.270284  0  -0.401427  -0.348688  0  3.498218  0
N  N133  1  0.68471135  0.68761484  0.22161860  1  0  -0.409294  0  3.243356  0  0  -0.356503  0  3.509443  0  0  -0.367798  0  3.524664  0  -1.270337  0  -0.401416  -0.348626  0  3.498176  0
N  N134  1  0.18470698  0.68761273  0.27838084  1  0  -0.40936  0  3.243383  0  0  -0.356568  0  3.509484  0  0  -0.367864  0  3.524708  0  -1.269829  0  -0.401449  -0.348689  0  3.498211  0
N  N135  1  0.31528938  0.31238689  0.77837806  1  0  -0.409435  0  3.243387  0  0  -0.356667  0  3.509522  0  0  -0.367963  0  3.524739  0  -1.270456  0  -0.401491  -0.34879  0  3.498254  0
N  N136  1  0.84860944  0.42900236  0.88608118  1  0  -0.3947  0  3.206626  0  0  -0.34162  0  3.471655  0  0  -0.353252  0  3.486932  0  -1.249231  0  -0.392032  -0.333758  0  3.460698  0
N  N137  1  0.65139716  0.57099726  0.38608340  1  0  -0.394697  0  3.206549  0  0  -0.341586  0  3.471583  0  0  -0.353222  0  3.486861  0  -1.249141  0  -0.391987  -0.333726  0  3.460628  0
N  N138  1  0.15139129  0.57099938  0.11391882  1  0  -0.394714  0  3.206499  0  0  -0.341604  0  3.471547  0  0  -0.353237  0  3.486825  0  -1.249657  0  -0.392026  -0.333743  0  3.46059  0
N  N139  1  0.34860294  0.42900130  0.61391771  1  0  -0.394729  0  3.206463  0  0  -0.341648  0  3.471503  0  0  -0.353281  0  3.48678  0  -1.247468  0  -0.392007  -0.333784  0  3.460535  0
