# generated using pymatgen
data_CoH14C20(NO2)2
_symmetry_space_group_name_H-M   'P 1'
_cell_length_a   9.51626524
_cell_length_b   10.09546897
_cell_length_c   10.25785953
_cell_angle_alpha   80.00564785
_cell_angle_beta   86.86058006
_cell_angle_gamma   68.07127181
_symmetry_Int_Tables_number   1
_chemical_formula_structural   CoH14C20(NO2)2
_chemical_formula_sum   'Co2 H28 C40 N4 O8'
_cell_volume   900.25648844
_cell_formula_units_Z   2
loop_
 _symmetry_equiv_pos_site_id
 _symmetry_equiv_pos_as_xyz
  1  'x, y, z'
loop_
 _atom_site_type_symbol
 _atom_site_label
 _atom_site_symmetry_multiplicity
 _atom_site_fract_x
 _atom_site_fract_y
 _atom_site_fract_z
 _atom_site_occupancy
 _atom_site_pbe_cm5_charge
 _atom_site_pbe_ddec_charge
 _atom_site_pbe_ddec_spin_density
 _atom_site_pbe_ddec_sum_bond_order
 _atom_site_pbe_magmom
Co  Co0  1  0.45001020  0.36595903  0.87878517  1  0.677582  0.877291  2.888054  2.508477  2.581
Co  Co1  1  0.54998435  0.63404736  0.12120934  1  0.677526  0.877151  -2.88806  2.508524  -2.581
H  H2  1  0.40172870  0.92501844  0.91444605  1  0.109764  0.121991  0.000241  1.038475  0.0
H  H3  1  0.59821617  0.07500564  0.08556398  1  0.109758  0.122072  -0.000242  1.038432  0.0
H  H4  1  0.32115326  0.17760362  0.52323466  1  0.10532  0.108078  0.000152  0.999169  0.0
H  H5  1  0.67889434  0.82238495  0.47676172  1  0.1053  0.10803  -0.000152  0.999125  0.0
H  H6  1  0.28582487  0.97362104  0.43795443  1  0.09528  0.08876  6.5e-05  1.030371  0.0
H  H7  1  0.71422905  0.02636748  0.56203964  1  0.095263  0.088724  -6.5e-05  1.030394  0.0
H  H8  1  0.30408949  0.74939819  0.59282867  1  0.09862  0.0976  0.000181  1.060079  0.0
H  H9  1  0.69592696  0.25060041  0.40716784  1  0.098574  0.097561  -0.000181  1.060159  0.0
H  H10  1  0.76115384  0.14594072  0.83831019  1  0.118775  0.094011  0.000439  0.986749  0.001
H  H11  1  0.23883041  0.85405935  0.16168015  1  0.118857  0.094115  -0.000439  0.986888  -0.001
H  H12  1  0.97054245  0.11050754  0.67307822  1  0.10455  0.114167  0.00038  1.004683  0.0
H  H13  1  0.02944746  0.88948599  0.32691581  1  0.104565  0.114181  -0.00038  1.004853  0.0
H  H14  1  0.70796093  0.53744942  0.46287258  1  0.109571  0.130278  0.000256  1.036072  0.0
H  H15  1  0.29207121  0.46258111  0.53715954  1  0.109552  0.130235  -0.000257  1.036019  0.0
H  H16  1  0.51452450  0.55244586  0.63638151  1  0.11288  0.08107  0.000253  1.054269  0.001
H  H17  1  0.48550878  0.44759005  0.36365061  1  0.112927  0.081155  -0.000253  1.054311  -0.001
H  H18  1  0.18247622  0.59919001  0.98373979  1  0.11619  0.089832  0.000419  1.01853  0.001
H  H19  1  0.81753586  0.40078386  0.01625822  1  0.11609  0.089704  -0.00042  1.018614  -0.001
H  H20  1  0.00301670  0.61995411  0.17169245  1  0.108805  0.118976  0.0004  0.995476  0.0
H  H21  1  0.99699952  0.38002833  0.82830582  1  0.10889  0.119004  -0.0004  0.995526  0.0
H  H22  1  0.17900944  0.15227446  0.25990995  1  0.103637  0.109218  0.000356  1.017894  0.0
H  H23  1  0.82096829  0.84770634  0.74007134  1  0.103582  0.109141  -0.000356  1.017838  0.0
H  H24  1  0.34795545  0.15123143  0.06829955  1  0.114963  0.090686  0.000187  1.036865  0.001
H  H25  1  0.65200899  0.84874528  0.93167152  1  0.114927  0.090784  -0.000187  1.036931  -0.001
H  H26  1  0.05920953  0.19063498  0.45702069  1  0.095839  0.088558  2.9e-05  1.054334  0.0
H  H27  1  0.94080527  0.80936568  0.54299506  1  0.095827  0.088588  -2.9e-05  1.054466  0.0
H  H28  1  0.88759148  0.51279726  0.34210742  1  0.106754  0.11882  2.7e-05  1.036986  0.0
H  H29  1  0.11239600  0.48719961  0.65787254  1  0.106829  0.118865  -2.7e-05  1.037139  0.0
C  C30  1  0.35326308  0.82294320  0.76349359  1  -0.023161  -0.044372  0.000791  3.992278  0.001
C  C31  1  0.64671130  0.17706661  0.23650836  1  -0.023052  -0.044365  -0.00079  3.992424  -0.001
C  C32  1  0.37480060  0.93615175  0.81030418  1  -0.078268  -0.115857  -0.00038  3.927069  0.0
C  C33  1  0.62516767  0.06386886  0.18970312  1  -0.078342  -0.115923  0.00038  3.9271  0.0
C  C34  1  0.36376597  0.06320573  0.72391502  1  -0.018798  -0.027911  0.001876  3.988713  0.002
C  C35  1  0.63622556  0.93680605  0.27608559  1  -0.018792  -0.028021  -0.001876  3.988542  -0.002
C  C36  1  0.32903847  0.07829294  0.58982604  1  -0.079761  -0.088964  -0.000598  3.963924  -0.001
C  C37  1  0.67098542  0.92170557  0.41017297  1  -0.079656  -0.088709  0.000598  3.963725  0.001
C  C38  1  0.30852775  0.96484044  0.54281627  1  -0.096791  -0.097792  0.000311  4.038058  0.0
C  C39  1  0.69149940  0.03515483  0.45717725  1  -0.09689  -0.097926  -0.00031  4.038109  0.0
C  C40  1  0.32003823  0.83805149  0.62887856  1  -0.085891  -0.092401  -0.001189  3.962159  -0.002
C  C41  1  0.67996822  0.16195692  0.37111785  1  -0.085817  -0.092308  0.001189  3.962062  0.002
C  C42  1  0.37459157  0.68459304  0.85547677  1  0.219154  0.582398  -0.005236  4.160481  -0.007
C  C43  1  0.62538282  0.31541991  0.14454024  1  0.219249  0.582497  0.005228  4.160675  0.007
C  C44  1  0.39485130  0.17821478  0.77655829  1  0.197289  0.547696  -0.002277  4.216593  -0.006
C  C45  1  0.60515682  0.82178385  0.22344942  1  0.197344  0.547733  0.002278  4.216393  0.006
C  C46  1  0.75570095  0.22969553  0.75363912  1  0.042004  0.090614  -0.004182  3.968178  -0.005
C  C47  1  0.24429888  0.77031082  0.24635412  1  0.041902  0.090506  0.004181  3.968005  0.005
C  C48  1  0.87116487  0.21100565  0.66126037  1  -0.08791  -0.191479  0.002015  3.946154  0.003
C  C49  1  0.12881604  0.78900085  0.33874273  1  -0.08786  -0.191469  -0.002016  3.945561  -0.003
C  C50  1  0.85877150  0.32094881  0.55191216  1  0.005528  0.146473  -0.005799  4.024795  -0.007
C  C51  1  0.14123700  0.67905733  0.44810109  1  0.00537  0.14647  0.005794  4.024698  0.007
C  C52  1  0.72779080  0.44791016  0.54506167  1  -0.083706  -0.17612  0.001763  3.90912  0.003
C  C53  1  0.27222024  0.55211745  0.45495951  1  -0.083548  -0.175996  -0.001762  3.908782  -0.003
C  C54  1  0.61811565  0.45699852  0.64097163  1  0.039519  0.089096  -0.002828  3.961558  -0.004
C  C55  1  0.38190974  0.54302459  0.35905336  1  0.039356  0.088919  0.002827  3.961533  0.004
C  C56  1  0.17899539  0.50299169  0.04817566  1  0.044477  0.100276  -0.003302  3.956002  -0.005
C  C57  1  0.82100336  0.49698667  0.95181652  1  0.044461  0.100298  0.003302  3.955936  0.005
C  C58  1  0.07991297  0.51376490  0.15349378  1  -0.081384  -0.170636  0.001279  3.927764  0.002
C  C59  1  0.92009757  0.48621010  0.84649828  1  -0.081446  -0.17061  -0.001282  3.927433  -0.002
C  C60  1  0.07794803  0.38804383  0.23666604  1  0.005926  0.145597  -0.004978  4.024482  -0.006
C  C61  1  0.92205481  0.61194313  0.76332055  1  0.005828  0.145507  0.004981  4.024623  0.006
C  C62  1  0.17670643  0.25500554  0.20343779  1  -0.086627  -0.176361  0.001598  3.929566  0.003
C  C63  1  0.82328491  0.74496434  0.79654553  1  -0.086558  -0.176206  -0.001598  3.92946  -0.003
C  C64  1  0.27151384  0.25335047  0.09554982  1  0.0382  0.085663  -0.002757  3.955999  -0.004
C  C65  1  0.72846424  0.74662929  0.90442676  1  0.038121  0.085331  0.002761  3.955759  0.004
C  C66  1  0.97232940  0.29932322  0.44860507  1  -0.0864  -0.128725  -0.002711  3.95783  -0.002
C  C67  1  0.02767121  0.70068412  0.55139966  1  -0.086358  -0.128696  0.002717  3.957737  0.002
C  C68  1  0.97316199  0.40379151  0.34645405  1  -0.075953  -0.103311  -0.004173  3.922701  -0.004
C  C69  1  0.02684468  0.59619105  0.65354086  1  -0.075952  -0.103372  0.00417  3.923015  0.004
N  N70  1  0.62892748  0.35009479  0.74387702  1  -0.328715  -0.248599  0.028996  3.572365  0.047
N  N71  1  0.37107623  0.64992113  0.25612900  1  -0.328625  -0.248571  -0.028998  3.572603  -0.047
N  N72  1  0.27580817  0.37524088  0.01880111  1  -0.326845  -0.26093  0.027072  3.564232  0.044
N  N73  1  0.72417897  0.62472902  0.98118537  1  -0.326646  -0.26066  -0.027069  3.563767  -0.044
O  O74  1  0.35965386  0.58162287  0.80829490  1  -0.301673  -0.534002  0.034562  2.394045  0.05
O  O75  1  0.64033643  0.41838674  0.19171102  1  -0.301693  -0.533979  -0.034564  2.394208  -0.05
O  O76  1  0.40453505  0.67655600  0.97683007  1  -0.314517  -0.568769  -0.054072  2.495598  -0.081
O  O77  1  0.59542396  0.32347544  0.02318569  1  -0.314606  -0.568887  0.054089  2.495636  0.081
O  O78  1  0.32524419  0.31170778  0.73021989  1  -0.306875  -0.54763  0.03868  2.239346  0.061
O  O79  1  0.67475848  0.68829414  0.26978759  1  -0.306916  -0.547571  -0.038667  2.239408  -0.061
O  O80  1  0.49253485  0.14058177  0.87020024  1  -0.307341  -0.543259  0.042895  2.253544  0.069
O  O81  1  0.50746910  0.85941373  0.12979850  1  -0.307354  -0.54333  -0.042911  2.253346  -0.069
