# generated using pymatgen
data_ZnSiH16C20S4(N2F3)2
_symmetry_space_group_name_H-M   'P 1'
_cell_length_a   10.53821849
_cell_length_b   10.53829101
_cell_length_c   15.49225726
_cell_angle_alpha   97.02389721
_cell_angle_beta   97.02338743
_cell_angle_gamma   111.96001768
_symmetry_Int_Tables_number   1
_chemical_formula_structural   ZnSiH16C20S4(N2F3)2
_chemical_formula_sum   'Zn2 Si2 H32 C40 S8 N8 F12'
_cell_volume   1557.08319213
_cell_formula_units_Z   2
loop_
 _symmetry_equiv_pos_site_id
 _symmetry_equiv_pos_as_xyz
  1  'x, y, z'
loop_
 _atom_site_type_symbol
 _atom_site_label
 _atom_site_symmetry_multiplicity
 _atom_site_fract_x
 _atom_site_fract_y
 _atom_site_fract_z
 _atom_site_occupancy
 _atom_site_pbe_bader_charge
 _atom_site_pbe_bader_spin_density
 _atom_site_pbe_cm5_charge
 _atom_site_pbe_ddec_charge
 _atom_site_pbe_ddec_spin_density
 _atom_site_pbe_ddec_sum_bond_order
 _atom_site_pbe_magmom
Zn  Zn0  1  0.49999640  0.49999683  0.99999910  1  1.313644  0  0.708392  0.742966  0  2.361356  0
Zn  Zn1  1  0.49999911  0.49999678  0.49999735  1  1.313568  0  0.708409  0.742951  0  2.361412  0
Si  Si2  1  0.49661362  0.50339105  0.75000228  1  3.224206  0  0.261973  1.72158  0  3.946258  0
Si  Si3  1  0.50338987  0.49660842  0.24999848  1  3.224266  0  0.26207  1.721796  0  3.946385  0
H  H4  1  0.32676866  0.28379533  0.83823244  1  0.164049  0  0.118463  0.105548  0  1.028952  0
H  H5  1  0.09042266  0.10172169  0.78833887  1  0.0824  0  0.098138  0.110104  0  1.033661  0
H  H6  1  0.99933881  0.20741330  0.04636025  1  0.101974  0  0.10125  0.11241  0  1.030823  0
H  H7  1  0.24478874  0.37870699  0.08870085  1  0.178704  0  0.117668  0.102944  0  1.024635  0
H  H8  1  0.53589531  0.28828586  0.11089495  1  0.160338  0  0.115218  0.103904  0  1.042079  0
H  H9  1  0.62521942  0.10099263  0.10342267  1  0.076951  0  0.112258  0.129843  0  0.97229  0
H  H10  1  0.74475872  0.20149048  0.85427631  1  0.090816  0  0.102556  0.11372  0  1.025171  0
H  H11  1  0.64461587  0.38032037  0.86965516  1  0.147389  0  0.117976  0.098528  0  1.035272  0
H  H12  1  0.71620246  0.67322730  0.66175714  1  0.164175  0  0.118401  0.105369  0  1.029216  0
H  H13  1  0.89826866  0.90957255  0.71165217  1  0.082672  0  0.098113  0.110005  0  1.033612  0
H  H14  1  0.79258398  0.00065375  0.45363101  1  0.101943  0  0.10135  0.112594  0  1.030551  0
H  H15  1  0.62129305  0.75520402  0.41129111  1  0.18051  0  0.117691  0.102965  0  1.024528  0
H  H16  1  0.71172159  0.46410589  0.38910737  1  0.160629  0  0.115234  0.103957  0  1.041957  0
H  H17  1  0.89901639  0.37477943  0.39658126  1  0.076951  0  0.112269  0.12991  0  0.972281  0
H  H18  1  0.79851621  0.25525376  0.64572982  1  0.09115  0  0.102582  0.11379  0  1.025251  0
H  H19  1  0.61968428  0.35539383  0.63034763  1  0.147235  0  0.117995  0.098558  0  1.035204  0
H  H20  1  0.67323162  0.71619520  0.16176089  1  0.164179  0  0.11838  0.105341  0  1.029292  0
H  H21  1  0.90957762  0.89826502  0.21165480  1  0.082781  0  0.098087  0.110011  0  1.033616  0
H  H22  1  0.00065213  0.79259267  0.95362776  1  0.101949  0  0.101325  0.112606  0  1.03059  0
H  H23  1  0.75520429  0.62129789  0.91128854  1  0.180338  0  0.117644  0.102859  0  1.024609  0
H  H24  1  0.46410825  0.71171558  0.88911308  1  0.160117  0  0.115293  0.103951  0  1.042047  0
H  H25  1  0.37478411  0.89900687  0.89658262  1  0.077054  0  0.112224  0.129844  0  0.972277  0
H  H26  1  0.25523858  0.79851327  0.14572817  1  0.091597  0  0.102559  0.113715  0  1.025299  0
H  H27  1  0.35538040  0.61967917  0.13035148  1  0.147158  0  0.117999  0.098525  0  1.035153  0
H  H28  1  0.28378643  0.32676738  0.33823754  1  0.16381  0  0.118374  0.105332  0  1.029202  0
H  H29  1  0.10171715  0.09042095  0.28834733  1  0.082399  0  0.098118  0.110037  0  1.033713  0
H  H30  1  0.20742053  0.99934706  0.54636801  1  0.101958  0  0.101374  0.112645  0  1.030576  0
H  H31  1  0.37871248  0.24479718  0.58870479  1  0.180568  0  0.117685  0.102926  0  1.024544  0
H  H32  1  0.28828812  0.53589314  0.61089322  1  0.160003  0  0.11524  0.103892  0  1.042059  0
H  H33  1  0.10099441  0.62522101  0.60342469  1  0.076998  0  0.112254  0.129824  0  0.972312  0
H  H34  1  0.20148944  0.74475614  0.35427713  1  0.090769  0  0.102562  0.113734  0  1.025179  0
H  H35  1  0.38031923  0.64461138  0.36965296  1  0.147368  0  0.11801  0.098552  0  1.035201  0
C  C36  1  0.25224690  0.26320694  0.88311524  1  0.461594  0  0.052623  0.11424  0  3.90975  0
C  C37  1  0.11848441  0.16189539  0.85516746  1  0.040954  0  -0.096936  -0.188452  0  3.981859  0
C  C38  1  0.02339768  0.14074149  0.91323197  1  -0.23586  0  -0.001433  0.08419  0  4.059067  0
C  C39  1  0.06836300  0.22107423  0.99827841  1  0.021459  0  -0.098388  -0.193207  0  4.006402  0
C  C40  1  0.20517891  0.31810791  0.02175505  1  0.457018  0  0.049635  0.106531  0  3.914946  0
C  C41  1  0.58155859  0.26535694  0.05447992  1  0.475667  0  0.050354  0.102231  0  3.925013  0
C  C42  1  0.63254235  0.16099048  0.05028347  1  -0.011595  0  -0.091305  -0.182307  0  3.960834  0
C  C43  1  0.69263719  0.13595578  0.97755085  1  -0.188452  0  0.000614  0.087311  0  4.053001  0
C  C44  1  0.69906337  0.21697675  0.91197883  1  0.018562  0  -0.09478  -0.181362  0  3.974176  0
C  C45  1  0.64429760  0.31809487  0.92092957  1  0.480728  0  0.050984  0.111772  0  3.915954  0
C  C46  1  0.73679223  0.74774926  0.61687594  1  0.461382  0  0.052627  0.114381  0  3.91003  0
C  C47  1  0.83809759  0.88151149  0.64482394  1  0.041698  0  -0.096909  -0.188342  0  3.981839  0
C  C48  1  0.85925658  0.97659678  0.58675998  1  -0.236443  0  -0.001469  0.08417  0  4.059005  0
C  C49  1  0.77892241  0.93162657  0.50171250  1  0.021552  0  -0.098397  -0.193369  0  4.00627  0
C  C50  1  0.68189125  0.79481141  0.47823528  1  0.454901  0  0.049483  0.106386  0  3.914809  0
C  C51  1  0.73465231  0.41844482  0.44552443  1  0.475276  0  0.050445  0.102345  0  3.924966  0
C  C52  1  0.83901700  0.36745901  0.44972007  1  -0.011966  0  -0.091428  -0.182583  0  3.961077  0
C  C53  1  0.86404822  0.30736392  0.52245281  1  -0.187979  0  0.000619  0.08734  0  4.053013  0
C  C54  1  0.78302773  0.30094267  0.58802680  1  0.017753  0  -0.094741  -0.18136  0  3.974206  0
C  C55  1  0.68191092  0.35571055  0.57907427  1  0.480964  0  0.050982  0.111715  0  3.915992  0
C  C56  1  0.74775131  0.73678661  0.11687816  1  0.461531  0  0.052604  0.114368  0  3.910064  0
C  C57  1  0.88151484  0.83809569  0.14482518  1  0.041356  0  -0.096887  -0.188381  0  3.981909  0
C  C58  1  0.97659848  0.85925794  0.08676110  1  -0.236532  0  -0.001373  0.084303  0  4.059092  0
C  C59  1  0.93162690  0.77892752  0.00171112  1  0.021732  0  -0.098471  -0.193506  0  4.00633  0
C  C60  1  0.79481412  0.68189411  0.97823604  1  0.455066  0  0.049571  0.106518  0  3.914867  0
C  C61  1  0.41844391  0.73464503  0.94552613  1  0.475758  0  0.050252  0.102215  0  3.925071  0
C  C62  1  0.36745909  0.83901011  0.94972110  1  -0.011589  0  -0.091252  -0.182398  0  3.960975  0
C  C63  1  0.30736321  0.86404632  0.02245246  1  -0.188307  0  0.00059  0.087353  0  4.052942  0
C  C64  1  0.30093185  0.78302333  0.08802648  1  0.017457  0  -0.094815  -0.181463  0  3.974181  0
C  C65  1  0.35570074  0.68190833  0.07907431  1  0.48092  0  0.051061  0.111939  0  3.915921  0
C  C66  1  0.26320083  0.25224802  0.38312058  1  0.461733  0  0.052686  0.114424  0  3.909982  0
C  C67  1  0.16189133  0.11848608  0.35517355  1  0.041533  0  -0.096916  -0.188352  0  3.981899  0
C  C68  1  0.14074169  0.02340159  0.41323834  1  -0.236317  0  -0.001374  0.084369  0  4.058896  0
C  C69  1  0.22107689  0.06837220  0.49828464  1  0.02157  0  -0.098519  -0.193651  0  4.006436  0
C  C70  1  0.31810701  0.20518599  0.52176166  1  0.454954  0  0.049566  0.106578  0  3.914793  0
C  C71  1  0.26535848  0.58155752  0.55447974  1  0.476002  0  0.05042  0.102326  0  3.925063  0
C  C72  1  0.16099380  0.63254334  0.55028539  1  -0.011586  0  -0.091337  -0.182342  0  3.960949  0
C  C73  1  0.13596053  0.69264242  0.47755475  1  -0.188302  0  0.000574  0.087313  0  4.052853  0
C  C74  1  0.21697999  0.69906517  0.41198079  1  0.018589  0  -0.094809  -0.181449  0  3.974231  0
C  C75  1  0.31809469  0.64429549  0.42092913  1  0.480778  0  0.050997  0.111846  0  3.915936  0
S  S76  1  0.85409544  0.01192100  0.87187266  1  0.091665  0  0.070055  0.038813  0  2.806679  0
S  S77  1  0.75324348  0.00032136  0.97578748  1  0.098401  0  0.071476  0.042657  0  2.844779  0
S  S78  1  0.98807320  0.14589608  0.62812398  1  0.091878  0  0.070061  0.038815  0  2.806693  0
S  S79  1  0.99967927  0.24675312  0.52421361  1  0.098315  0  0.071451  0.042634  0  2.844868  0
S  S80  1  0.14589658  0.98807872  0.12812204  1  0.09191  0  0.070045  0.038783  0  2.806647  0
S  S81  1  0.24675689  0.99968071  0.02421260  1  0.098218  0  0.071478  0.042662  0  2.844806  0
S  S82  1  0.01192303  0.85409961  0.37187977  1  0.09177  0  0.070056  0.038786  0  2.806581  0
S  S83  1  0.00032636  0.75324913  0.47579401  1  0.098259  0  0.071467  0.042645  0  2.844702  0
N  N84  1  0.29542167  0.34046438  0.96519548  1  -1.252124  0  -0.323575  -0.235758  0  3.529518  0
N  N85  1  0.58661052  0.34267403  0.99073997  1  -1.226186  0  -0.32259  -0.239825  0  3.503826  0
N  N86  1  0.65953318  0.70457133  0.53479607  1  -1.252183  0  -0.323428  -0.235589  0  3.529513  0
N  N87  1  0.65733055  0.41339290  0.50926301  1  -1.225865  0  -0.322643  -0.239856  0  3.50397  0
N  N88  1  0.70457239  0.65953135  0.03479648  1  -1.252174  0  -0.323412  -0.235554  0  3.52958  0
N  N89  1  0.41338783  0.65732536  0.00926683  1  -1.225926  0  -0.322637  -0.239892  0  3.503882  0
N  N90  1  0.34046298  0.29542523  0.46519806  1  -1.252185  0  -0.323501  -0.235704  0  3.529497  0
N  N91  1  0.34267502  0.58660834  0.49073806  1  -1.226249  0  -0.322623  -0.239875  0  3.503734  0
F  F92  1  0.50666588  0.51050461  0.86456141  1  -0.828191  0  -0.197435  -0.497312  0  1.337906  0
F  F93  1  0.67113197  0.53752763  0.76366621  1  -0.837496  0  -0.240861  -0.538692  0  1.093506  0
F  F94  1  0.53365367  0.67617513  0.76352184  1  -0.837778  0  -0.247126  -0.540047  0  1.085184  0
F  F95  1  0.48950619  0.49334417  0.63544214  1  -0.828193  0  -0.197527  -0.497337  0  1.337877  0
F  F96  1  0.46248474  0.32887642  0.73633817  1  -0.837437  0  -0.240876  -0.538748  0  1.093535  0
F  F97  1  0.32382746  0.46634088  0.73648283  1  -0.837775  0  -0.247103  -0.540033  0  1.085202  0
F  F98  1  0.49333657  0.48949731  0.13543882  1  -0.828184  0  -0.197445  -0.497344  0  1.337916  0
F  F99  1  0.32887364  0.46247842  0.23633849  1  -0.837448  0  -0.240939  -0.538816  0  1.09355  0
F  F100  1  0.46634149  0.32382299  0.23647750  1  -0.837832  0  -0.247102  -0.540073  0  1.085198  0
F  F101  1  0.51050352  0.50665582  0.36455853  1  -0.828145  0  -0.197516  -0.497346  0  1.337875  0
F  F102  1  0.53752292  0.67112373  0.26366428  1  -0.837413  0  -0.240934  -0.538806  0  1.093564  0
F  F103  1  0.67617495  0.53365433  0.26351557  1  -0.837799  0  -0.247098  -0.540064  0  1.085204  0
