# generated using pymatgen
data_CuH8C12(N2Cl)2
_symmetry_space_group_name_H-M   'P 1'
_cell_length_a   3.70683943
_cell_length_b   12.69067735
_cell_length_c   13.34695340
_cell_angle_alpha   89.99995345
_cell_angle_beta   89.99874011
_cell_angle_gamma   94.46619615
_symmetry_Int_Tables_number   1
_chemical_formula_structural   CuH8C12(N2Cl)2
_chemical_formula_sum   'Cu2 H16 C24 N8 Cl4'
_cell_volume   625.96486642
_cell_formula_units_Z   2
loop_
 _symmetry_equiv_pos_site_id
 _symmetry_equiv_pos_as_xyz
  1  'x, y, z'
loop_
 _atom_site_type_symbol
 _atom_site_label
 _atom_site_symmetry_multiplicity
 _atom_site_fract_x
 _atom_site_fract_y
 _atom_site_fract_z
 _atom_site_occupancy
 _atom_site_hle17_bader_spin_density
 _atom_site_hle17_ddec_charge
 _atom_site_hle17_ddec_spin_density
 _atom_site_hle17_ddec_sum_bond_order
 _atom_site_hle17_magmom
 _atom_site_hse06_10hf_bader_spin_density
 _atom_site_hse06_10hf_ddec_charge
 _atom_site_hse06_10hf_ddec_spin_density
 _atom_site_hse06_10hf_ddec_sum_bond_order
 _atom_site_hse06_10hf_magmom
 _atom_site_hse06_bader_spin_density
 _atom_site_hse06_ddec_charge
 _atom_site_hse06_ddec_spin_density
 _atom_site_hse06_ddec_sum_bond_order
 _atom_site_hse06_magmom
 _atom_site_pbe_bader_spin_density
 _atom_site_pbe_cm5_charge
 _atom_site_pbe_ddec_charge
 _atom_site_pbe_ddec_spin_density
 _atom_site_pbe_ddec_sum_bond_order
 _atom_site_pbe_magmom
Cu  Cu0  1  0.50000057  0.50000192  0.50000164  1  0  0.685901  0  1.97856  0  0  0.635827  0  2.381726  0  0  0.658511  0  2.341287  0  0  0.575352  0.622493  0  2.40939  0
Cu  Cu1  1  0.49999995  0.99999680  0.99999794  1  0  0.686309  0  1.978186  0  0  0.635671  0  2.38168  0  0  0.658947  0  2.340936  0  0  0.575347  0.622595  0  2.409175  0
H  H2  1  0.72627555  0.59112457  0.31049855  1  0  0.092118  0  0.972107  0  0  0.097773  0  1.04293  0  0  0.100954  0  1.039386  0  0  0.108381  0.095279  0  1.045792  0
H  H3  1  0.27374686  0.90886749  0.81048569  1  0  0.092202  0  0.972106  0  0  0.097851  0  1.04292  0  0  0.101038  0  1.039371  0  0  0.108385  0.095353  0  1.045782  0
H  H4  1  0.27374325  0.40887595  0.68950773  1  0  0.092154  0  0.972189  0  0  0.097795  0  1.043024  0  0  0.100978  0  1.03948  0  0  0.108351  0.095299  0  1.045894  0
H  H5  1  0.72624424  0.09112376  0.18951010  1  0  0.092134  0  0.972267  0  0  0.097784  0  1.043083  0  0  0.100971  0  1.039536  0  0  0.108342  0.095285  0  1.045946  0
H  H6  1  0.54436777  0.34581300  0.08485516  1  0  0.128388  0  0.935863  0  0  0.134087  0  1.002415  0  0  0.137598  0  0.999041  0  0  0.114073  0.131541  0  1.004854  0
H  H7  1  0.45564109  0.15418372  0.58485198  1  0  0.128556  0  0.936098  0  0  0.134254  0  1.002622  0  0  0.137769  0  0.999246  0  0  0.114132  0.131703  0  1.005072  0
H  H8  1  0.45561685  0.65419733  0.91514738  1  0  0.12845  0  0.9358  0  0  0.134147  0  1.002342  0  0  0.13767  0  0.998968  0  0  0.114061  0.131596  0  1.004782  0
H  H9  1  0.54434311  0.84581076  0.41514830  1  0  0.128582  0  0.936035  0  0  0.134266  0  1.002559  0  0  0.137777  0  0.999191  0  0  0.11413  0.131711  0  1.005007  0
H  H10  1  0.27600005  0.22922817  0.22000065  1  0  0.108614  0  0.969371  0  0  0.118027  0  1.030084  0  0  0.12088  0  1.030229  0  0  0.099525  0.116324  0  1.029565  0
H  H11  1  0.72399352  0.27076582  0.71999589  1  0  0.108594  0  0.969405  0  0  0.117991  0  1.030119  0  0  0.120837  0  1.030281  0  0  0.099493  0.116275  0  1.029614  0
H  H12  1  0.72399658  0.77077809  0.77999964  1  0  0.108621  0  0.969318  0  0  0.117991  0  1.030093  0  0  0.120842  0  1.030234  0  0  0.099515  0.116284  0  1.029572  0
H  H13  1  0.27599489  0.72922545  0.28000365  1  0  0.108576  0  0.969348  0  0  0.117997  0  1.030045  0  0  0.120847  0  1.030199  0  0  0.099499  0.116281  0  1.029534  0
H  H14  1  0.26637430  0.29781453  0.39765992  1  0  0.099998  0  0.960504  0  0  0.102661  0  1.032399  0  0  0.105908  0  1.028419  0  0  0.110711  0.100318  0  1.035259  0
H  H15  1  0.73362683  0.20218274  0.89765591  1  0  0.10009  0  0.960176  0  0  0.102707  0  1.032137  0  0  0.105955  0  1.028155  0  0  0.110735  0.100366  0  1.034996  0
H  H16  1  0.73362952  0.70218929  0.60234336  1  0  0.100009  0  0.960639  0  0  0.102665  0  1.032555  0  0  0.105911  0  1.028573  0  0  0.110709  0.100322  0  1.035413  0
H  H17  1  0.26637234  0.79780844  0.10234213  1  0  0.100089  0  0.960372  0  0  0.102731  0  1.03232  0  0  0.105984  0  1.02833  0  0  0.110706  0.100384  0  1.035173  0
C  C18  1  0.63023294  0.51167198  0.28695265  1  0  0.099572  0  3.657411  0  0  0.058168  0  3.905208  0  0  0.066406  0  3.921484  0  0  0.055584  0.053198  0  3.894154  0
C  C19  1  0.36977777  0.98831947  0.78693920  1  0  0.099558  0  3.657131  0  0  0.058161  0  3.904928  0  0  0.066404  0  3.921206  0  0  0.055595  0.053194  0  3.893873  0
C  C20  1  0.36978164  0.48833174  0.71305138  1  0  0.099479  0  3.657676  0  0  0.058107  0  3.905426  0  0  0.066343  0  3.921694  0  0  0.055645  0.053143  0  3.894385  0
C  C21  1  0.63021689  0.01167412  0.21305660  1  0  0.099666  0  3.657146  0  0  0.058261  0  3.904951  0  0  0.066494  0  3.921232  0  0  0.055673  0.053283  0  3.893897  0
C  C22  1  0.65854745  0.47795245  0.18736432  1  0  -0.02123  0  3.861834  0  0  0.004975  0  4.091781  0  0  -0.002265  0  4.113982  0  0  0.007529  0.009432  0  4.076855  0
C  C23  1  0.34148203  0.02205086  0.68735290  1  0  -0.021341  0  3.861978  0  0  0.004853  0  4.091968  0  0  -0.002388  0  4.114155  0  0  0.007369  0.009299  0  4.077043  0
C  C24  1  0.34145368  0.52205139  0.81263822  1  0  -0.021237  0  3.861991  0  0  0.004956  0  4.091948  0  0  -0.002294  0  4.114149  0  0  0.007501  0.009425  0  4.076991  0
C  C25  1  0.65851169  0.97794750  0.31264139  1  0  -0.021283  0  3.861985  0  0  0.004867  0  4.092047  0  0  -0.002362  0  4.114235  0  0  0.007374  0.009327  0  4.077103  0
C  C26  1  0.52938765  0.37443518  0.16166148  1  0  -0.008644  0  3.627714  0  0  -0.03884  0  3.873399  0  0  -0.032798  0  3.889277  0  0  -0.046597  -0.042343  0  3.8624  0
C  C27  1  0.47062291  0.12556204  0.66164926  1  0  -0.008856  0  3.627874  0  0  -0.039068  0  3.87354  0  0  -0.033028  0  3.889419  0  0  -0.0466  -0.042572  0  3.862555  0
C  C28  1  0.47060985  0.62557345  0.83833806  1  0  -0.008697  0  3.627353  0  0  -0.038859  0  3.872987  0  0  -0.032831  0  3.888881  0  0  -0.046552  -0.042366  0  3.861982  0
C  C29  1  0.52937081  0.87443632  0.33834953  1  0  -0.008911  0  3.627812  0  0  -0.039081  0  3.873469  0  0  -0.033045  0  3.88935  0  0  -0.046638  -0.042591  0  3.862478  0
C  C30  1  0.38249199  0.30947031  0.23774445  1  0  -0.11052  0  3.706275  0  0  -0.119241  0  3.953454  0  0  -0.129288  0  3.97693  0  0  -0.079614  -0.112999  0  3.9373  0
C  C31  1  0.61752600  0.19052817  0.73774259  1  0  -0.110435  0  3.706082  0  0  -0.119106  0  3.953219  0  0  -0.129155  0  3.976696  0  0  -0.079619  -0.112865  0  3.93708  0
C  C32  1  0.61750522  0.69053753  0.76225659  1  0  -0.110453  0  3.706041  0  0  -0.119151  0  3.953258  0  0  -0.129195  0  3.976737  0  0  -0.079622  -0.112909  0  3.9371  0
C  C33  1  0.38248001  0.80946691  0.26225770  1  0  -0.110358  0  3.706009  0  0  -0.119038  0  3.953126  0  0  -0.129093  0  3.976611  0  0  -0.079533  -0.112804  0  3.936978  0
C  C34  1  0.37321363  0.34692664  0.33577956  1  0  0.147215  0  3.626881  0  0  0.113344  0  3.877844  0  0  0.123045  0  3.893764  0  0  0.056207  0.107268  0  3.867012  0
C  C35  1  0.62678575  0.15306610  0.83576570  1  0  0.147191  0  3.62719  0  0  0.113355  0  3.878168  0  0  0.123061  0  3.894097  0  0  0.056224  0.107268  0  3.86734  0
C  C36  1  0.62678780  0.65307799  0.66421848  1  0  0.147044  0  3.626892  0  0  0.11314  0  3.877944  0  0  0.12284  0  3.893851  0  0  0.056162  0.107067  0  3.867118  0
C  C37  1  0.37321728  0.84692821  0.16423009  1  0  0.147029  0  3.627226  0  0  0.113132  0  3.878241  0  0  0.122839  0  3.894174  0  0  0.056166  0.107055  0  3.867394  0
C  C38  1  0.82680017  0.55069024  0.11717102  1  0  0.272101  0  3.745942  0  0  0.256101  0  4.016227  0  0  0.266672  0  4.037089  0  0  0.190253  0.249079  0  4.002231  0
C  C39  1  0.17324106  0.94930788  0.61716169  1  0  0.272059  0  3.745041  0  0  0.256068  0  4.0153  0  0  0.266648  0  4.036158  0  0  0.190272  0.249051  0  4.001317  0
C  C40  1  0.17323048  0.44932047  0.88283001  1  0  0.272082  0  3.745559  0  0  0.256083  0  4.015853  0  0  0.266659  0  4.036717  0  0  0.190332  0.249056  0  4.00186  0
C  C41  1  0.82672700  0.05068673  0.38283260  1  0  0.272297  0  3.74487  0  0  0.256321  0  4.015123  0  0  0.266898  0  4.035987  0  0  0.190396  0.249304  0  4.001145  0
N  N42  1  0.49395722  0.44692611  0.35882340  1  0  -0.269905  0  3.386551  0  0  -0.198388  0  3.659089  0  0  -0.215986  0  3.675139  0  0  -0.344  -0.187303  0  3.648479  0
N  N43  1  0.50606517  0.05307587  0.85881853  1  0  -0.269914  0  3.386549  0  0  -0.198463  0  3.659066  0  0  -0.216055  0  3.675146  0  0  -0.343986  -0.187364  0  3.648441  0
N  N44  1  0.50604718  0.55307929  0.64118289  1  0  -0.26965  0  3.38656  0  0  -0.198126  0  3.659069  0  0  -0.215708  0  3.675105  0  0  -0.343945  -0.187066  0  3.648481  0
N  N45  1  0.49394382  0.94691998  0.14117726  1  0  -0.269891  0  3.386411  0  0  -0.198411  0  3.658934  0  0  -0.215998  0  3.675007  0  0  -0.344013  -0.187315  0  3.6483  0
N  N46  1  0.97714142  0.61215523  0.06356134  1  0  -0.377113  0  2.585656  0  0  -0.350718  0  2.810572  0  0  -0.363187  0  2.825247  0  0  -0.28598  -0.342451  0  2.800721  0
N  N47  1  0.02289443  0.88783045  0.56354615  1  0  -0.377087  0  2.584784  0  0  -0.350683  0  2.809694  0  0  -0.363158  0  2.824373  0  0  -0.285949  -0.342422  0  2.799856  0
N  N48  1  0.02288190  0.38784287  0.93644644  1  0  -0.37717  0  2.584973  0  0  -0.350779  0  2.809911  0  0  -0.363248  0  2.824587  0  0  -0.286086  -0.342512  0  2.800067  0
N  N49  1  0.97707334  0.11216338  0.43645264  1  0  -0.377344  0  2.584607  0  0  -0.350942  0  2.809519  0  0  -0.363419  0  2.824197  0  0  -0.286091  -0.342687  0  2.799693  0
Cl  Cl50  1  0.15188803  0.63566835  0.45574676  1  0  -0.503679  0  1.033175  0  0  -0.49579  0  1.332139  0  0  -0.507284  0  1.310139  0  0  -0.273707  -0.488539  0  1.348116  0
Cl  Cl51  1  0.84812469  0.86433121  0.95573973  1  0  -0.503623  0  1.03302  0  0  -0.49579  0  1.332075  0  0  -0.507276  0  1.31002  0  0  -0.273734  -0.488562  0  1.348004  0
Cl  Cl52  1  0.84813397  0.36434086  0.54426027  1  0  -0.503659  0  1.033138  0  0  -0.495784  0  1.332148  0  0  -0.507278  0  1.310142  0  0  -0.273706  -0.488535  0  1.348126  0
Cl  Cl53  1  0.15187593  0.13566392  0.04425606  1  0  -0.503677  0  1.03306  0  0  -0.495861  0  1.332119  0  0  -0.507346  0  1.31006  0  0  -0.273755  -0.488652  0  1.348085  0
