# generated using pymatgen
data_Zn2H8C12N3O10
_symmetry_space_group_name_H-M   'P 1'
_cell_length_a   7.03778286
_cell_length_b   7.03596864
_cell_length_c   16.28936667
_cell_angle_alpha   97.25183710
_cell_angle_beta   97.40803598
_cell_angle_gamma   105.56428590
_symmetry_Int_Tables_number   1
_chemical_formula_structural   Zn2H8C12N3O10
_chemical_formula_sum   'Zn4 H16 C24 N6 O20'
_cell_volume   759.54815621
_cell_formula_units_Z   2
loop_
 _symmetry_equiv_pos_site_id
 _symmetry_equiv_pos_as_xyz
  1  'x, y, z'
loop_
 _atom_site_type_symbol
 _atom_site_label
 _atom_site_symmetry_multiplicity
 _atom_site_fract_x
 _atom_site_fract_y
 _atom_site_fract_z
 _atom_site_occupancy
 _atom_site_pbe_bader_spin_density
 _atom_site_pbe_cm5_charge
 _atom_site_pbe_ddec_charge
 _atom_site_pbe_ddec_spin_density
 _atom_site_pbe_ddec_sum_bond_order
 _atom_site_pbe_magmom
Zn  Zn0  1  0.09346905  0.85205853  0.94238194  1  0  0.708399  0.944887  0  2.338655  0
Zn  Zn1  1  0.14767250  0.90617202  0.55820872  1  0  0.710227  0.946638  0  2.340868  0
Zn  Zn2  1  0.90653254  0.14795469  0.05759935  1  0  0.708319  0.944836  0  2.338659  0
Zn  Zn3  1  0.85229375  0.09381320  0.44181702  1  0  0.710258  0.946815  0  2.340607  0
H  H4  1  0.15282213  0.50972149  0.83368555  1  0  0.111398  0.124819  0  1.022611  0
H  H5  1  0.48872576  0.84624642  0.66715297  1  0  0.112642  0.126801  0  1.020384  0
H  H6  1  0.84717792  0.49029656  0.16632046  1  0  0.111402  0.124774  0  1.022625  0
H  H7  1  0.51128013  0.15378427  0.33284281  1  0  0.112674  0.126897  0  1.020358  0
H  H8  1  0.39303930  0.30508550  0.83558277  1  0  0.115086  0.097598  0  0.994802  0
H  H9  1  0.69253208  0.60555085  0.66514446  1  0  0.115634  0.097867  0  0.992614  0
H  H10  1  0.60695446  0.69491452  0.16440126  1  0  0.115094  0.097618  0  0.994444  0
H  H11  1  0.30742447  0.39442864  0.33486460  1  0  0.115659  0.098031  0  0.992129  0
H  H12  1  0.83832160  0.46675587  0.91423387  1  0  0.29971  0.407429  0  0.92319  0
H  H13  1  0.53276977  0.16236484  0.58569084  1  0  0.300958  0.409656  0  0.919572  0
H  H14  1  0.16169331  0.53326739  0.08578164  1  0  0.299746  0.407495  0  0.923041  0
H  H15  1  0.46719478  0.83762199  0.41429680  1  0  0.300852  0.409475  0  0.919827  0
H  H16  1  0.75555025  0.62165343  0.97369841  1  0  0.314812  0.41688  0  0.886232  0
H  H17  1  0.37487170  0.24526004  0.52736971  1  0  0.313903  0.415753  0  0.88856  0
H  H18  1  0.24444108  0.37835873  0.02630879  1  0  0.314736  0.416732  0  0.886424  0
H  H19  1  0.62505209  0.75475877  0.47264823  1  0  0.313925  0.415852  0  0.888393  0
C  C20  1  0.90399698  0.11383708  0.85909577  1  0  0.225708  0.572502  0  4.184575  0
C  C21  1  0.88717074  0.09772488  0.64118428  1  0  0.225603  0.572137  0  4.182312  0
C  C22  1  0.09602967  0.88620365  0.14091431  1  0  0.225698  0.572049  0  4.184621  0
C  C23  1  0.11277741  0.90223622  0.35881805  1  0  0.22554  0.57197  0  4.181812  0
C  C24  1  0.98077228  0.00480472  0.79271890  1  0  0.105806  0.036874  0  3.917306  0
C  C25  1  0.99598772  0.02028772  0.70770104  1  0  0.105391  0.035026  0  3.918402  0
C  C26  1  0.01926279  0.99521299  0.20730158  1  0  0.105501  0.036745  0  3.91779  0
C  C27  1  0.00400729  0.97971350  0.29229907  1  0  0.105497  0.035148  0  3.918292  0
C  C28  1  0.17217381  0.82712447  0.75024125  1  0  0.235583  0.341145  0  3.944106  0
C  C29  1  0.82785211  0.17286949  0.24976056  1  0  0.235594  0.341177  0  3.943951  0
C  C30  1  0.30146997  0.69696556  0.75036349  1  0  0.012685  0.050426  0  3.979687  0
C  C31  1  0.69853671  0.30306018  0.24964562  1  0  0.01288  0.050473  0  3.979351  0
C  C32  1  0.27569252  0.54237028  0.79852215  1  0  -0.071562  -0.133071  0  3.903297  0
C  C33  1  0.45629969  0.72356841  0.70247691  1  0  -0.074617  -0.138595  0  3.907277  0
C  C34  1  0.72433248  0.45764379  0.20148973  1  0  -0.07167  -0.133151  0  3.903291  0
C  C35  1  0.54370308  0.27645059  0.29752190  1  0  -0.074728  -0.138757  0  3.907234  0
C  C36  1  0.40552686  0.42356742  0.79737719  1  0  0.049334  0.075051  0  3.971145  0
C  C37  1  0.57426988  0.59289093  0.70340564  1  0  0.051023  0.077086  0  3.965369  0
C  C38  1  0.59445633  0.57642305  0.20261883  1  0  0.049654  0.07491  0  3.970159  0
C  C39  1  0.42572298  0.40713278  0.29659661  1  0  0.051426  0.076937  0  3.964423  0
C  C40  1  0.49714579  0.88801000  0.00217415  1  0  0.210494  0.475962  0  4.184421  0
C  C41  1  0.11195422  0.50294996  0.49837634  1  0  0.210092  0.474385  0  4.187491  0
C  C42  1  0.50284002  0.11198380  0.99782644  1  0  0.210422  0.475859  0  4.184333  0
C  C43  1  0.88809313  0.49705685  0.50163746  1  0  0.210174  0.47452  0  4.187479  0
N  N44  1  0.08658954  0.87901106  0.81649675  1  0  -0.33088  -0.36317  0  3.462573  0
N  N45  1  0.12109358  0.91377015  0.68401161  1  0  -0.330451  -0.363318  0  3.465745  0
N  N46  1  0.91343425  0.12101467  0.18351191  1  0  -0.330871  -0.36325  0  3.462322  0
N  N47  1  0.87892042  0.08627756  0.31599268  1  0  -0.330533  -0.363475  0  3.465345  0
N  N48  1  0.54780213  0.44745207  0.74964154  1  0  -0.268583  -0.14494  0  3.296442  0
N  N49  1  0.45219576  0.55249601  0.25034465  1  0  -0.268979  -0.144292  0  3.296296  0
O  O50  1  0.90722946  0.03991010  0.92842437  1  0  -0.302145  -0.54105  0  2.434057  0
O  O51  1  0.95978414  0.09185780  0.57163700  1  0  -0.30027  -0.538467  0  2.430442  0
O  O52  1  0.09276196  0.96011467  0.07157233  1  0  -0.301996  -0.540762  0  2.433912  0
O  O53  1  0.04019841  0.90813699  0.42837700  1  0  -0.300236  -0.538362  0  2.430091  0
O  O54  1  0.85231118  0.26590031  0.84814120  1  0  -0.269178  -0.47492  0  2.192863  0
O  O55  1  0.73692664  0.15275677  0.65206507  1  0  -0.268803  -0.474426  0  2.186929  0
O  O56  1  0.14775208  0.73414566  0.15185849  1  0  -0.269145  -0.474642  0  2.192395  0
O  O57  1  0.26302847  0.84719844  0.34793793  1  0  -0.268796  -0.474288  0  2.186429  0
O  O58  1  0.33195473  0.75387771  0.97403002  1  0  -0.293346  -0.493376  0  2.374507  0
O  O59  1  0.24579040  0.66819917  0.52674705  1  0  -0.292407  -0.48998  0  2.373495  0
O  O60  1  0.66803654  0.24612513  0.02597183  1  0  -0.293303  -0.493257  0  2.374252  0
O  O61  1  0.75425288  0.33181928  0.47326339  1  0  -0.292403  -0.490051  0  2.373857  0
O  O62  1  0.65551015  0.85388522  0.03294806  1  0  -0.287685  -0.498573  0  2.297631  0
O  O63  1  0.14682713  0.34469236  0.46813840  1  0  -0.288644  -0.500291  0  2.297244  0
O  O64  1  0.34448538  0.14611651  0.96705886  1  0  -0.287619  -0.498525  0  2.297823  0
O  O65  1  0.85319877  0.65530078  0.53189224  1  0  -0.288702  -0.500312  0  2.297293  0
O  O66  1  0.85713359  0.60855071  0.93956366  1  0  -0.577479  -0.772198  0  2.17594  0
O  O67  1  0.39136110  0.13963898  0.55878123  1  0  -0.578657  -0.772942  0  2.177777  0
O  O68  1  0.14284855  0.39147583  0.06043700  1  0  -0.577393  -0.77204  0  2.176045  0
O  O69  1  0.60867158  0.86013503  0.44106665  1  0  -0.578459  -0.772756  0  2.177656  0
