# generated using pymatgen
data_ZnH8C10(NO)5
_symmetry_space_group_name_H-M   'P 1'
_cell_length_a   7.22333725
_cell_length_b   9.29951606
_cell_length_c   20.21900000
_cell_angle_alpha   90.00000000
_cell_angle_beta   90.00000000
_cell_angle_gamma   109.58131828
_symmetry_Int_Tables_number   1
_chemical_formula_structural   ZnH8C10(NO)5
_chemical_formula_sum   'Zn4 H32 C40 N20 O20'
_cell_volume   1279.63379240
_cell_formula_units_Z   4
loop_
 _symmetry_equiv_pos_site_id
 _symmetry_equiv_pos_as_xyz
  1  'x, y, z'
loop_
 _atom_site_type_symbol
 _atom_site_label
 _atom_site_symmetry_multiplicity
 _atom_site_fract_x
 _atom_site_fract_y
 _atom_site_fract_z
 _atom_site_occupancy
 _atom_site_hle17_bader_spin_density
 _atom_site_hle17_ddec_charge
 _atom_site_hle17_ddec_spin_density
 _atom_site_hle17_ddec_sum_bond_order
 _atom_site_hle17_magmom
 _atom_site_hse06_10hf_bader_spin_density
 _atom_site_hse06_10hf_ddec_charge
 _atom_site_hse06_10hf_ddec_spin_density
 _atom_site_hse06_10hf_ddec_sum_bond_order
 _atom_site_hse06_10hf_magmom
 _atom_site_hse06_bader_spin_density
 _atom_site_hse06_ddec_charge
 _atom_site_hse06_ddec_spin_density
 _atom_site_hse06_ddec_sum_bond_order
 _atom_site_hse06_magmom
 _atom_site_pbe_bader_charge
 _atom_site_pbe_bader_spin_density
 _atom_site_pbe_cm5_charge
 _atom_site_pbe_ddec_charge
 _atom_site_pbe_ddec_spin_density
 _atom_site_pbe_ddec_sum_bond_order
 _atom_site_pbe_magmom
Zn  Zn0  1  0.53647542  0.77600281  0.99060537  1  0  1.076099  0  1.733299  0  0  0.891665  0  2.199252  0  0  0.941436  0  2.138904  0  1.265138  0  0.689943  0.857686  0  2.239976  0
Zn  Zn1  1  0.96350957  0.22398976  0.49060488  1  0  1.076012  0  1.733272  0  0  0.891582  0  2.199218  0  0  0.941356  0  2.138868  0  1.265003  0  0.689916  0.857601  0  2.239942  0
Zn  Zn2  1  0.46352350  0.22400003  0.00939315  1  0  1.076108  0  1.733317  0  0  0.891671  0  2.19927  0  0  0.941444  0  2.138922  0  1.265201  0  0.689943  0.857693  0  2.239997  0
Zn  Zn3  1  0.03648985  0.77601422  0.50939512  1  0  1.076085  0  1.733159  0  0  0.891662  0  2.199085  0  0  0.941435  0  2.138738  0  1.26499  0  0.689928  0.857682  0  2.239811  0
H  H4  1  0.60075992  0.94004869  0.63943321  1  0  0.131939  0  0.916181  0  0  0.140058  0  0.974741  0  0  0.145483  0  0.970068  0  0.155277  0  0.118828  0.136248  0  0.978046  0
H  H5  1  0.89922073  0.05993703  0.13943222  1  0  0.131994  0  0.916196  0  0  0.139997  0  0.974859  0  0  0.145422  0  0.970185  0  0.155561  0  0.118772  0.136185  0  0.978165  0
H  H6  1  0.39924334  0.05996100  0.36056383  1  0  0.131959  0  0.91619  0  0  0.140054  0  0.974767  0  0  0.145462  0  0.970116  0  0.155318  0  0.118814  0.136244  0  0.978071  0
H  H7  1  0.10078521  0.94006923  0.86056927  1  0  0.131955  0  0.916246  0  0  0.140011  0  0.974846  0  0  0.145408  0  0.970207  0  0.155564  0  0.118799  0.1362  0  0.978152  0
H  H8  1  0.87807863  0.17089273  0.85616104  1  0  0.114145  0  0.947692  0  0  0.123572  0  1.009591  0  0  0.128269  0  1.005738  0  0.13802  0  0.113373  0.120338  0  1.012235  0
H  H9  1  0.62190310  0.82909870  0.35616054  1  0  0.114214  0  0.947559  0  0  0.123577  0  1.009543  0  0  0.128271  0  1.005683  0  0.137888  0  0.113384  0.120346  0  1.012188  0
H  H10  1  0.12191774  0.82910098  0.14383946  1  0  0.11415  0  0.947694  0  0  0.123546  0  1.009627  0  0  0.128242  0  1.005774  0  0.13797  0  0.113363  0.120313  0  1.012271  0
H  H11  1  0.37809247  0.17089958  0.64383896  1  0  0.114171  0  0.947674  0  0  0.123591  0  1.009572  0  0  0.128293  0  1.005717  0  0.138026  0  0.113377  0.120356  0  1.01222  0
H  H12  1  0.27024821  0.58717405  0.80477670  1  0  0.298234  0  0.941833  0  0  0.274284  0  1.009426  0  0  0.284696  0  1.000718  0  0.553478  0  0.308504  0.26667  0  1.016297  0
H  H13  1  0.22972720  0.41281966  0.30477768  1  0  0.298166  0  0.941972  0  0  0.274312  0  1.009389  0  0  0.284739  0  1.000682  0  0.553592  0  0.308462  0.266666  0  1.01632  0
H  H14  1  0.72975437  0.41282765  0.19522232  1  0  0.298264  0  0.94173  0  0  0.274268  0  1.009395  0  0  0.284676  0  1.000691  0  0.553472  0  0.308491  0.266657  0  1.016266  0
H  H15  1  0.77026828  0.58717519  0.69522479  1  0  0.298307  0  0.941846  0  0  0.274342  0  1.009394  0  0  0.284763  0  1.000686  0  0.553547  0  0.308492  0.266729  0  1.016264  0
H  H16  1  0.21002325  0.51876948  0.69206192  1  0  0.296389  0  0.944212  0  0  0.272961  0  1.01225  0  0  0.283611  0  1.003197  0  0.564478  0  0.307743  0.265217  0  1.019299  0
H  H17  1  0.28995603  0.48121396  0.19206341  1  0  0.296328  0  0.944238  0  0  0.272784  0  1.012467  0  0  0.28343  0  1.003419  0  0.564422  0  0.307673  0.265055  0  1.019502  0
H  H18  1  0.78998348  0.48123222  0.30793857  1  0  0.296412  0  0.944224  0  0  0.272982  0  1.012257  0  0  0.283632  0  1.003203  0  0.564493  0  0.307724  0.26524  0  1.019303  0
H  H19  1  0.71004230  0.51878432  0.80793709  1  0  0.296345  0  0.944208  0  0  0.272806  0  1.012434  0  0  0.283453  0  1.003385  0  0.564471  0  0.30769  0.265077  0  1.019466  0
H  H20  1  0.32033803  0.49892172  0.97161828  1  0  0.306492  0  0.837402  0  0  0.309228  0  0.871113  0  0  0.313563  0  0.869428  0  0.443166  0  0.333547  0.305928  0  0.872675  0
H  H21  1  0.17966051  0.50107427  0.47161976  1  0  0.306438  0  0.837362  0  0  0.309186  0  0.871072  0  0  0.313519  0  0.869392  0  0.443081  0  0.333534  0.305886  0  0.872631  0
H  H22  1  0.67966455  0.50107998  0.02838024  1  0  0.306464  0  0.837442  0  0  0.309194  0  0.871163  0  0  0.313532  0  0.86947  0  0.443143  0  0.333527  0.305893  0  0.872725  0
H  H23  1  0.82034256  0.49892857  0.52838221  1  0  0.306446  0  0.837415  0  0  0.309193  0  0.871131  0  0  0.313524  0  0.869458  0  0.443098  0  0.333548  0.305893  0  0.872691  0
H  H24  1  0.51629425  0.51029852  0.92976853  1  0  0.295029  0  0.920215  0  0  0.273871  0  0.993288  0  0  0.281717  0  0.987182  0  0.484174  0  0.301096  0.268342  0  0.99735  0
H  H25  1  0.98370763  0.48970433  0.42976952  1  0  0.295041  0  0.920205  0  0  0.273885  0  0.993279  0  0  0.281733  0  0.98717  0  0.483929  0  0.301103  0.268355  0  0.997344  0
H  H26  1  0.48370932  0.48970547  0.07023097  1  0  0.295068  0  0.920145  0  0  0.273896  0  0.993239  0  0  0.281742  0  0.987132  0  0.483959  0  0.301103  0.26837  0  0.997292  0
H  H27  1  0.01629406  0.51029852  0.57023147  1  0  0.295032  0  0.920207  0  0  0.273881  0  0.993282  0  0  0.281728  0  0.987173  0  0.48418  0  0.301103  0.268352  0  0.997344  0
H  H28  1  0.28913166  0.87954328  0.04871853  1  0  0.432971  0  0.865633  0  0  0.399693  0  0.931656  0  0  0.41096  0  0.915582  0  0.632872  0  0.291986  0.392156  0  0.942346  0
H  H29  1  0.21086944  0.12046185  0.54871853  1  0  0.433009  0  0.865581  0  0  0.399723  0  0.931615  0  0  0.41099  0  0.915541  0  0.633108  0  0.29199  0.392187  0  0.942304  0
H  H30  1  0.71086628  0.12045728  0.95128048  1  0  0.433008  0  0.86559  0  0  0.399722  0  0.931624  0  0  0.410991  0  0.915547  0  0.633072  0  0.292009  0.392185  0  0.942314  0
H  H31  1  0.78912711  0.87953871  0.45128246  1  0  0.433002  0  0.8656  0  0  0.399716  0  0.931638  0  0  0.410984  0  0.915562  0  0.633082  0  0.291977  0.392179  0  0.942329  0
H  H32  1  0.28084667  0.71568457  0.07382363  1  0  0.400787  0  0.877907  0  0  0.36703  0  0.963485  0  0  0.37669  0  0.95287  0  0.623993  0  0.297078  0.36016  0  0.971016  0
H  H33  1  0.21914178  0.28431371  0.57382264  1  0  0.400799  0  0.87792  0  0  0.367033  0  0.963514  0  0  0.376692  0  0.952902  0  0.623462  0  0.29708  0.360165  0  0.971043  0
H  H34  1  0.71915403  0.28431599  0.92617637  1  0  0.400787  0  0.877907  0  0  0.367028  0  0.963485  0  0  0.376688  0  0.952871  0  0.62399  0  0.297069  0.360159  0  0.971015  0
H  H35  1  0.78086268  0.71568914  0.42617686  1  0  0.40079  0  0.877931  0  0  0.367024  0  0.963524  0  0  0.376685  0  0.95291  0  0.623381  0  0.297078  0.360155  0  0.971054  0
C  C36  1  0.58501050  0.88933019  0.86678718  1  0  0.426261  0  3.907825  0  0  0.384939  0  4.197407  0  0  0.405068  0  4.206967  0  1.281291  0  0.19883  0.371404  0  4.190413  0
C  C37  1  0.91497015  0.11065553  0.36678471  1  0  0.426019  0  3.907812  0  0  0.384645  0  4.197378  0  0  0.404766  0  4.206939  0  1.281583  0  0.198699  0.371116  0  4.190376  0
C  C38  1  0.41498783  0.11066808  0.13321331  1  0  0.426178  0  3.907838  0  0  0.384872  0  4.197388  0  0  0.405  0  4.206943  0  1.281281  0  0.198797  0.371329  0  4.190403  0
C  C39  1  0.08502395  0.88933932  0.63321777  1  0  0.426144  0  3.907636  0  0  0.384662  0  4.197383  0  0  0.404782  0  4.206944  0  1.281592  0  0.198691  0.371136  0  4.190376  0
C  C40  1  0.66329773  0.97763731  0.80778970  1  0  -0.034859  0  3.760419  0  0  -0.023196  0  3.999324  0  0  -0.024778  0  4.019561  0  0.026333  0  -0.002579  -0.022479  0  3.986294  0
C  C41  1  0.83668113  0.02235070  0.30778525  1  0  -0.034928  0  3.760455  0  0  -0.02297  0  3.998894  0  0  -0.024549  0  4.019122  0  0.026581  0  -0.002509  -0.022256  0  3.98587  0
C  C42  1  0.33669783  0.02236097  0.19221030  1  0  -0.034902  0  3.76048  0  0  -0.023198  0  3.999306  0  0  -0.024782  0  4.019542  0  0.026338  0  -0.002595  -0.022478  0  3.986277  0
C  C43  1  0.16331028  0.97764758  0.69221673  1  0  -0.034799  0  3.760486  0  0  -0.022887  0  3.999028  0  0  -0.024463  0  4.019261  0  0.026992  0  -0.002475  -0.022175  0  3.985999  0
C  C44  1  0.58905532  0.91294092  0.74546071  1  0  -0.056953  0  3.751033  0  0  -0.044764  0  3.989609  0  0  -0.049453  0  4.010692  0  -0.044363  0  -0.001765  -0.041541  0  3.975744  0
C  C45  1  0.91093283  0.08704937  0.24545774  1  0  -0.056852  0  3.751007  0  0  -0.044763  0  3.989578  0  0  -0.04947  0  4.010708  0  -0.04493  0  -0.001902  -0.041544  0  3.975712  0
C  C46  1  0.41094400  0.08705964  0.25453929  1  0  -0.056972  0  3.751105  0  0  -0.044809  0  3.989647  0  0  -0.0495  0  4.010725  0  -0.044363  0  -0.001777  -0.041591  0  3.975792  0
C  C47  1  0.08906046  0.91295005  0.75454226  1  0  -0.05706  0  3.751196  0  0  -0.044931  0  3.989751  0  0  -0.049629  0  4.010855  0  -0.045474  0  -0.001893  -0.041708  0  3.975884  0
C  C48  1  0.43800088  0.76170078  0.74318760  1  0  0.477413  0  3.871874  0  0  0.426665  0  4.170849  0  0  0.453549  0  4.1743  0  1.320203  0  0.223396  0.408088  0  4.169141  0
C  C49  1  0.06198382  0.23829521  0.24318067  1  0  0.477499  0  3.871897  0  0  0.426672  0  4.170982  0  0  0.453552  0  4.174432  0  1.321259  0  0.223413  0.408097  0  4.16927  0
C  C50  1  0.56199746  0.23829750  0.25681240  1  0  0.477398  0  3.871923  0  0  0.426683  0  4.170848  0  0  0.453569  0  4.174296  0  1.320751  0  0.223412  0.408107  0  4.16914  0
C  C51  1  0.93800759  0.76170306  0.75682081  1  0  0.477815  0  3.871568  0  0  0.426916  0  4.170661  0  0  0.453798  0  4.174108  0  1.321153  0  0.223544  0.408339  0  4.168955  0
C  C52  1  0.88087212  0.22212939  0.62901281  1  0  0.452517  0  3.91687  0  0  0.41021  0  4.2084  0  0  0.434147  0  4.215019  0  1.25952  0  0.201823  0.394269  0  4.203069  0
C  C53  1  0.61910657  0.77785177  0.12901281  1  0  0.452386  0  3.917292  0  0  0.410085  0  4.208724  0  0  0.434021  0  4.215348  0  1.25937  0  0.201803  0.39415  0  4.203383  0
C  C54  1  0.11913096  0.77787345  0.37098571  1  0  0.452742  0  3.916734  0  0  0.410368  0  4.208329  0  0  0.434304  0  4.214948  0  1.259811  0  0.201889  0.394427  0  4.202999  0
C  C55  1  0.38089454  0.22214651  0.87098571  1  0  0.452493  0  3.917338  0  0  0.410204  0  4.208767  0  0  0.434143  0  4.215391  0  1.259251  0  0.20185  0.394267  0  4.203429  0
C  C56  1  0.80251048  0.13595999  0.68918839  1  0  -0.039166  0  3.743369  0  0  -0.026684  0  3.981195  0  0  -0.029983  0  4.001557  0  0.029969  0  -0.002706  -0.024901  0  3.967993  0
C  C57  1  0.69747749  0.86402345  0.18918690  1  0  -0.039168  0  3.743549  0  0  -0.026534  0  3.981114  0  0  -0.029832  0  4.001477  0  0.029139  0  -0.00274  -0.024757  0  3.967902  0
C  C58  1  0.19749398  0.86404285  0.31081062  1  0  -0.039283  0  3.743411  0  0  -0.026759  0  3.981206  0  0  -0.030057  0  4.001566  0  0.029975  0  -0.002756  -0.024976  0  3.968002  0
C  C59  1  0.30252491  0.13597141  0.81081161  1  0  -0.039257  0  3.743335  0  0  -0.026672  0  3.98096  0  0  -0.029977  0  4.001325  0  0.029555  0  -0.002741  -0.024892  0  3.96775  0
C  C60  1  0.87889697  0.19926624  0.75116574  1  0  -0.052964  0  3.771016  0  0  -0.042627  0  4.012428  0  0  -0.046232  0  4.033231  0  -0.024466  0  -0.00448  -0.039968  0  3.998698  0
C  C61  1  0.62109110  0.80072063  0.25116722  1  0  -0.053025  0  3.770966  0  0  -0.042737  0  4.012399  0  0  -0.046336  0  4.033168  0  -0.025001  0  -0.004525  -0.04009  0  3.998711  0
C  C62  1  0.12110601  0.80073318  0.24883426  1  0  -0.052934  0  3.771054  0  0  -0.042603  0  4.012434  0  0  -0.0462  0  4.033205  0  -0.024514  0  -0.004454  -0.039944  0  3.998706  0
C  C63  1  0.37891238  0.19927993  0.74883130  1  0  -0.052973  0  3.770939  0  0  -0.042687  0  4.012393  0  0  -0.046267  0  4.033143  0  -0.025126  0  -0.00453  -0.040033  0  3.998689  0
C  C64  1  0.03472985  0.34807077  0.75327168  1  0  0.482036  0  3.878007  0  0  0.42989  0  4.179665  0  0  0.456817  0  4.182726  0  1.340148  0  0.22194  0.411225  0  4.178436  0
C  C65  1  0.46525516  0.65191951  0.25326920  1  0  0.482325  0  3.877839  0  0  0.430125  0  4.179585  0  0  0.457056  0  4.182645  0  1.340185  0  0.221986  0.411477  0  4.178348  0
C  C66  1  0.96528005  0.65192864  0.24672931  1  0  0.48205  0  3.877981  0  0  0.429899  0  4.17963  0  0  0.456827  0  4.182692  0  1.34007  0  0.221963  0.411236  0  4.178399  0
C  C67  1  0.53474229  0.34807991  0.74672981  1  0  0.482271  0  3.877721  0  0  0.430081  0  4.179452  0  0  0.457006  0  4.182521  0  1.340155  0  0.221986  0.41143  0  4.178222  0
C  C68  1  0.65867246  0.99157525  0.68678520  1  0  -0.053698  0  3.64431  0  0  -0.088028  0  3.898132  0  0  -0.086601  0  3.913358  0  -0.001493  0  -0.061797  -0.088827  0  3.888223  0
C  C69  1  0.84132569  0.00840933  0.18678372  1  0  -0.05381  0  3.644598  0  0  -0.088047  0  3.898323  0  0  -0.08662  0  3.91355  0  -0.00134  0  -0.061709  -0.08884  0  3.888416  0
C  C70  1  0.34133427  0.00842645  0.31321381  1  0  -0.053685  0  3.644375  0  0  -0.087989  0  3.898158  0  0  -0.086549  0  3.913391  0  -0.001617  0  -0.061791  -0.088785  0  3.888247  0
C  C71  1  0.15867957  0.99158895  0.81321678  1  0  -0.053714  0  3.644671  0  0  -0.087975  0  3.898394  0  0  -0.086525  0  3.913629  0  -0.001544  0  -0.061752  -0.088775  0  3.888488  0
C  C72  1  0.81062165  0.12049152  0.80975122  1  0  -0.073152  0  3.675976  0  0  -0.108442  0  3.933438  0  0  -0.108619  0  3.950412  0  -0.079256  0  -0.070702  -0.108276  0  3.922384  0
C  C73  1  0.68936700  0.87949990  0.30975073  1  0  -0.073165  0  3.675783  0  0  -0.108475  0  3.933184  0  0  -0.108635  0  3.950144  0  -0.078377  0  -0.07069  -0.108312  0  3.922131  0
C  C74  1  0.18937668  0.87950675  0.19024878  1  0  -0.073132  0  3.676017  0  0  -0.108413  0  3.933451  0  0  -0.108585  0  3.950425  0  -0.079253  0  -0.070691  -0.108246  0  3.922396  0
C  C75  1  0.31063045  0.12049951  0.69024878  1  0  -0.073149  0  3.675929  0  0  -0.108459  0  3.933289  0  0  -0.108645  0  3.95027  0  -0.078481  0  -0.070672  -0.108296  0  3.922235  0
N  N76  1  0.44698458  0.75482882  0.86349424  1  0  -0.323144  0  3.030273  0  0  -0.302017  0  3.315537  0  0  -0.314077  0  3.328167  0  -0.794429  0  -0.24365  -0.293508  0  3.306689  0
N  N77  1  0.05299391  0.24515918  0.36349226  1  0  -0.322875  0  3.030142  0  0  -0.30174  0  3.315401  0  0  -0.313801  0  3.328041  0  -0.794602  0  -0.24352  -0.293233  0  3.30654  0
N  N78  1  0.55301416  0.24516717  0.13650675  1  0  -0.323092  0  3.030235  0  0  -0.301976  0  3.315477  0  0  -0.314039  0  3.328107  0  -0.794369  0  -0.24361  -0.293465  0  3.306632  0
N  N79  1  0.94700107  0.75483453  0.63650873  1  0  -0.322969  0  3.030169  0  0  -0.30187  0  3.315401  0  0  -0.31393  0  3.328036  0  -0.794502  0  -0.2436  -0.293366  0  3.306549  0
N  N80  1  0.37885974  0.69607764  0.80312676  1  0  -0.242629  0  3.416707  0  0  -0.186127  0  3.667943  0  0  -0.204576  0  3.68208  0  -0.825282  0  -0.276721  -0.173673  0  3.659775  0
N  N81  1  0.12112022  0.30391379  0.30312478  1  0  -0.2428  0  3.41653  0  0  -0.186305  0  3.667716  0  0  -0.204768  0  3.681857  0  -0.825976  0  -0.276718  -0.173832  0  3.659574  0
N  N82  1  0.62113958  0.30392292  0.19687373  1  0  -0.24261  0  3.41663  0  0  -0.186086  0  3.66787  0  0  -0.204531  0  3.682005  0  -0.825866  0  -0.276697  -0.173633  0  3.6597  0
N  N83  1  0.87887387  0.69608106  0.69687670  1  0  -0.243097  0  3.416615  0  0  -0.186365  0  3.66767  0  0  -0.204825  0  3.681807  0  -0.825886  0  -0.276782  -0.173909  0  3.659503  0
N  N84  1  0.03141223  0.35287578  0.63231317  1  0  -0.382159  0  3.045377  0  0  -0.346675  0  3.314116  0  0  -0.361537  0  3.32624  0  -0.802265  0  -0.253413  -0.336458  0  3.305524  0
N  N85  1  0.46856715  0.64711108  0.13231614  1  0  -0.382288  0  3.045439  0  0  -0.346815  0  3.314134  0  0  -0.361684  0  3.326266  0  -0.801688  0  -0.253563  -0.336581  0  3.305546  0
N  N86  1  0.96859233  0.64713049  0.36768633  1  0  -0.382232  0  3.045424  0  0  -0.346745  0  3.314202  0  0  -0.36161  0  3.326325  0  -0.802453  0  -0.253425  -0.336525  0  3.305612  0
N  N87  1  0.53143168  0.35288834  0.86768287  1  0  -0.382345  0  3.045491  0  0  -0.346868  0  3.31419  0  0  -0.361739  0  3.326324  0  -0.801709  0  -0.25358  -0.336635  0  3.305602  0
N  N88  1  0.10011437  0.41042058  0.69361145  1  0  -0.25538  0  3.415948  0  0  -0.201317  0  3.667355  0  0  -0.219763  0  3.681065  0  -0.872924  0  -0.288474  -0.188881  0  3.659569  0
N  N89  1  0.39986907  0.58956286  0.19361244  1  0  -0.255176  0  3.416206  0  0  -0.201029  0  3.66768  0  0  -0.219465  0  3.681391  0  -0.873401  0  -0.288238  -0.188639  0  3.659927  0
N  N90  1  0.89988772  0.58957998  0.30638855  1  0  -0.255391  0  3.415958  0  0  -0.20131  0  3.667343  0  0  -0.219755  0  3.681051  0  -0.872883  0  -0.288439  -0.188877  0  3.659558  0
N  N91  1  0.60013105  0.41043314  0.80638706  1  0  -0.255125  0  3.416033  0  0  -0.20099  0  3.667517  0  0  -0.219426  0  3.681232  0  -0.873341  0  -0.288224  -0.188595  0  3.659758  0
N  N92  1  0.47083808  0.54404427  0.97442603  1  0  -0.473927  0  3.059838  0  0  -0.433713  0  3.334291  0  0  -0.448807  0  3.328061  0  -0.799095  0  -0.519262  -0.423667  0  3.338391  0
N  N93  1  0.02915918  0.45595515  0.47442801  1  0  -0.473902  0  3.059808  0  0  -0.433686  0  3.334287  0  0  -0.448782  0  3.328056  0  -0.817158  0  -0.51929  -0.423639  0  3.338385  0
N  N94  1  0.52916451  0.45595743  0.02557248  1  0  -0.47395  0  3.059777  0  0  -0.433715  0  3.334249  0  0  -0.44881  0  3.328022  0  -0.817297  0  -0.51927  -0.423671  0  3.338349  0
N  N95  1  0.97084162  0.54404883  0.52557347  1  0  -0.473875  0  3.059866  0  0  -0.433696  0  3.334365  0  0  -0.448793  0  3.328131  0  -0.799006  0  -0.51927  -0.423651  0  3.338465  0
O  O96  1  0.65240211  0.94024728  0.92655769  1  0  -0.652505  0  2.05808  0  0  -0.563935  0  2.31439  0  0  -0.593497  0  2.300487  0  -1.159976  0  -0.332701  -0.543524  0  2.323193  0
O  O97  1  0.84757497  0.05974301  0.42655621  1  0  -0.652389  0  2.057998  0  0  -0.563896  0  2.314377  0  0  -0.593444  0  2.300473  0  -1.159792  0  -0.332718  -0.543485  0  2.323172  0
O  O98  1  0.34759592  0.05975670  0.07344231  1  0  -0.652455  0  2.058056  0  0  -0.563917  0  2.314374  0  0  -0.593473  0  2.300466  0  -1.159981  0  -0.332706  -0.543505  0  2.32318  0
O  O99  1  0.15242140  0.94025071  0.57344676  1  0  -0.652476  0  2.057998  0  0  -0.563917  0  2.314383  0  0  -0.593463  0  2.300481  0  -1.159757  0  -0.332703  -0.543506  0  2.323176  0
O  O100  1  0.36545220  0.69602399  0.68995549  1  0  -0.555232  0  1.935603  0  0  -0.518196  0  2.155972  0  0  -0.539398  0  2.14975  0  -1.160144  0  -0.317162  -0.502976  0  2.160543  0
O  O101  1  0.13452450  0.30396630  0.18995747  1  0  -0.555092  0  1.936121  0  0  -0.517994  0  2.156569  0  0  -0.539189  0  2.150348  0  -1.160456  0  -0.317049  -0.50278  0  2.161136  0
O  O102  1  0.63454525  0.30397543  0.31004550  1  0  -0.55528  0  1.935572  0  0  -0.518252  0  2.155919  0  0  -0.539454  0  2.149693  0  -1.160116  0  -0.317188  -0.503032  0  2.16049  0
O  O103  1  0.86547245  0.69603198  0.81004600  1  0  -0.555169  0  1.935876  0  0  -0.518105  0  2.156397  0  0  -0.539299  0  2.15017  0  -1.160528  0  -0.317127  -0.502891  0  2.160967  0
O  O104  1  0.80583096  0.16717427  0.57216974  1  0  -0.631008  0  2.019517  0  0  -0.560849  0  2.283669  0  0  -0.588612  0  2.270076  0  -1.159081  0  -0.34464  -0.541416  0  2.292251  0
O  O105  1  0.69415821  0.83280232  0.07217172  1  0  -0.630926  0  2.019684  0  0  -0.560797  0  2.283811  0  0  -0.588551  0  2.270201  0  -1.158757  0  -0.344545  -0.541366  0  2.292387  0
O  O106  1  0.19416984  0.83282971  0.42782828  1  0  -0.631069  0  2.019436  0  0  -0.560891  0  2.283616  0  0  -0.588652  0  2.270014  0  -1.159136  0  -0.34463  -0.54146  0  2.292199  0
O  O107  1  0.30584508  0.16719139  0.92782581  1  0  -0.630979  0  2.019844  0  0  -0.560851  0  2.283979  0  0  -0.588603  0  2.270359  0  -1.1587  0  -0.344596  -0.541419  0  2.292558  0
O  O108  1  0.10614041  0.41331728  0.80682675  1  0  -0.563022  0  1.930845  0  0  -0.52435  0  2.152272  0  0  -0.545223  0  2.14565  0  -1.161185  0  -0.319779  -0.509444  0  2.157303  0
O  O109  1  0.39383353  0.58667301  0.30682971  1  0  -0.563237  0  1.930351  0  0  -0.524606  0  2.151814  0  0  -0.545494  0  2.145196  0  -1.161258  0  -0.319876  -0.509684  0  2.156849  0
O  O110  1  0.89386258  0.58668214  0.19317325  1  0  -0.563068  0  1.930763  0  0  -0.524382  0  2.152201  0  0  -0.545256  0  2.145582  0  -1.161125  0  -0.319821  -0.509477  0  2.157232  0
O  O111  1  0.60616253  0.41332641  0.69316880  1  0  -0.56324  0  1.930284  0  0  -0.524578  0  2.151754  0  0  -0.545459  0  2.145134  0  -1.161306  0  -0.319879  -0.509671  0  2.156782  0
O  O112  1  0.27294479  0.77256626  0.03322617  1  0  -0.80054  0  1.870341  0  0  -0.733161  0  2.074631  0  0  -0.754877  0  2.042108  0  -1.224945  0  -0.568243  -0.718202  0  2.096633  0
O  O113  1  0.22704653  0.22743544  0.53322469  1  0  -0.80057  0  1.870286  0  0  -0.733189  0  2.074601  0  0  -0.754905  0  2.042083  0  -1.224557  0  -0.568229  -0.71823  0  2.096603  0
O  O114  1  0.72705453  0.22743430  0.96677383  1  0  -0.800571  0  1.8703  0  0  -0.73319  0  2.0746  0  0  -0.754907  0  2.042078  0  -1.225103  0  -0.568259  -0.718231  0  2.096603  0
O  O115  1  0.77295230  0.77256398  0.46677580  1  0  -0.800589  0  1.870277  0  0  -0.733192  0  2.074568  0  0  -0.75491  0  2.042045  0  -1.22447  0  -0.568241  -0.718234  0  2.096571  0
