# generated using pymatgen
data_Zn4H30C62O15
_symmetry_space_group_name_H-M   'P 1'
_cell_length_a   17.58745595
_cell_length_b   18.03944754
_cell_length_c   17.99247759
_cell_angle_alpha   63.53506750
_cell_angle_beta   68.24909150
_cell_angle_gamma   86.86247652
_symmetry_Int_Tables_number   1
_chemical_formula_structural   Zn4H30C62O15
_chemical_formula_sum   'Zn4 H30 C62 O15'
_cell_volume   4704.37020284
_cell_formula_units_Z   1
loop_
 _symmetry_equiv_pos_site_id
 _symmetry_equiv_pos_as_xyz
  1  'x, y, z'
loop_
 _atom_site_type_symbol
 _atom_site_label
 _atom_site_symmetry_multiplicity
 _atom_site_fract_x
 _atom_site_fract_y
 _atom_site_fract_z
 _atom_site_occupancy
 _atom_site_pbe_bader_charge
 _atom_site_pbe_bader_spin_density
 _atom_site_pbe_cm5_charge
 _atom_site_pbe_ddec_charge
 _atom_site_pbe_ddec_spin_density
 _atom_site_pbe_ddec_sum_bond_order
 _atom_site_pbe_magmom
Zn  Zn0  1  0.56816315  0.42738860  0.56332581  1  1.31586  0  0.673616  0.964743  0  2.386869  0
Zn  Zn1  1  0.41796503  0.53569595  0.57680934  1  1.309365  0  0.669429  0.962235  0  2.369514  0
Zn  Zn2  1  0.45873337  0.43216941  0.45895918  1  1.313712  0  0.669435  0.960161  0  2.390391  0
Zn  Zn3  1  0.56821349  0.60221040  0.39098694  1  1.315521  0  0.670873  0.965022  0  2.357581  0
H  H4  1  0.04969698  0.74147189  0.37238137  1  0.11143  0  0.112305  0.118356  0  0.991102  0
H  H5  1  0.56431325  0.84973566  0.57240940  1  0.047727  0  0.101726  0.101023  0  1.014391  0
H  H6  1  0.44423858  0.14948218  0.41798873  1  0.058369  0  0.103137  0.105475  0  1.011401  0
H  H7  1  0.19354964  0.54820817  0.49203899  1  0.082224  0  0.10996  0.113734  0  1.020865  0
H  H8  1  0.37187236  0.96620255  0.32491340  1  0.065225  0  0.104855  0.104036  0  0.99039  0
H  H9  1  0.62623850  0.70110243  0.84965559  1  0.048657  0  0.100969  0.101354  0  0.997562  0
H  H10  1  0.51408146  0.53558368  0.78716589  1  0.043681  0  0.103153  0.104151  0  1.015195  0
H  H11  1  0.39267218  0.29298773  0.87825794  1  0.065009  0  0.107238  0.107998  0  0.985859  0
H  H12  1  0.38761087  0.29130855  0.14539124  1  0.06424  0  0.101873  0.101165  0  0.996295  0
H  H13  1  0.64871593  0.73347512  0.95884035  1  0.084878  0  0.10325  0.102713  0  0.994089  0
H  H14  1  0.62708248  0.69471416  0.11769663  1  0.105283  0  0.108045  0.114955  0  0.992071  0
H  H15  1  0.03996565  0.27210545  0.73923438  1  0.070702  0  0.110246  0.110665  0  0.982299  0
H  H16  1  0.48203734  0.46507226  0.21061061  1  0.097477  0  0.105879  0.109853  0  1.02403  0
H  H17  1  0.56737927  0.60775557  0.81407900  1  0.07249  0  0.10172  0.100124  0  1.014188  0
H  H18  1  0.44149317  0.38722922  0.18176827  1  0.035004  0  0.102788  0.104859  0  1.011803  0
H  H19  1  0.19249918  0.30063347  0.68904880  1  0.081035  0  0.111825  0.114952  0  0.979406  0
H  H20  1  0.37010817  0.25619878  0.03636437  1  0.042564  0  0.104065  0.102025  0  0.993154  0
H  H21  1  0.90768032  0.32227493  0.73449123  1  0.132953  0  0.113732  0.118933  0  0.990055  0
H  H22  1  0.93870582  0.76460237  0.31455962  1  0.057358  0  0.109041  0.110748  0  0.983734  0
H  H23  1  0.80113637  0.71609610  0.32842625  1  0.109984  0  0.110848  0.117625  0  0.987874  0
H  H24  1  0.79704784  0.47752156  0.54034836  1  0.127936  0  0.110152  0.117664  0  1.026858  0
H  H25  1  0.14138348  0.63756233  0.53457753  1  0.041164  0  0.104748  0.042965  0  0.964886  0
H  H26  1  0.62222421  0.91592726  0.63563222  1  0.04407  0  0.100351  0.099638  0  0.996195  0
H  H27  1  0.77477058  0.47680957  0.66634137  1  0.075712  0  0.099884  0.035673  0  0.971892  0
H  H28  1  0.51197527  0.79499022  0.52757804  1  0.06446  0  0.103911  0.104982  0  1.017699  0
H  H29  1  0.39504387  0.82182008  0.34726805  1  0.088779  0  0.110635  0.116151  0  0.983416  0
H  H30  1  0.39036562  0.08468676  0.35065817  1  0.051201  0  0.101953  0.101972  0  0.997235  0
H  H31  1  0.64472124  0.03636166  0.65718416  1  0.028282  0  0.103444  0.103674  0  0.99509  0
H  H32  1  0.62536356  0.18317889  0.62984811  1  0.10154  0  0.110237  0.11871  0  0.990062  0
H  H33  1  0.48720758  0.20061605  0.47213300  1  0.094413  0  0.105249  0.110097  0  1.026324  0
C  C34  1  0.46865468  0.71337850  0.45522103  1  1.575758  0  0.230677  0.616716  0  4.151726  0
C  C35  1  0.89874576  0.43693121  0.63106359  1  -0.064924  0  -0.022401  -0.035584  0  3.990158  0
C  C36  1  0.94217614  0.37982866  0.67475607  1  -0.096574  0  -0.065454  -0.122766  0  3.928135  0
C  C37  1  0.54176850  0.28630990  0.53275690  1  1.540826  0  0.226835  0.603627  0  4.167059  0
C  C38  1  0.02888426  0.39541042  0.64577707  1  0.030474  0  -0.003431  0.073833  0  4.024188  0
C  C39  1  0.07115779  0.47627135  0.57574200  1  -0.063313  0  0.003905  0.044341  0  3.956359  0
C  C40  1  0.07361022  0.33316455  0.68607602  1  0.019176  0  -0.07906  -0.114356  0  3.977026  0
C  C41  1  0.15796203  0.34875925  0.65852901  1  -0.001669  0  -0.082413  -0.104516  0  3.992181  0
C  C42  1  0.15759064  0.48989328  0.54861267  1  -0.009232  0  -0.082549  -0.158103  0  3.949197  0
C  C43  1  0.55476036  0.19910734  0.54871729  1  -0.014845  0  -0.020803  -0.043446  0  4.004638  0
C  C44  1  0.45611286  0.80121936  0.43866340  1  -0.046932  0  -0.014361  -0.015805  0  3.988869  0
C  C45  1  0.83081532  0.67598017  0.37282685  1  -0.068724  0  -0.079434  -0.087891  0  3.985887  0
C  C46  1  0.61030890  0.07252510  0.61635608  1  -0.008808  0  -0.08995  -0.135497  0  4.00309  0
C  C47  1  0.59991453  0.15349591  0.60151292  1  -0.03562  0  -0.0876  -0.096197  0  3.999083  0
C  C48  1  0.52152485  0.16273819  0.51187044  1  -0.049863  0  -0.077299  -0.126299  0  3.933368  0
C  C49  1  0.46612666  0.43991119  0.72976287  1  1.565896  0  0.232278  0.617988  0  4.15708  0
C  C50  1  0.53138130  0.08013890  0.52558011  1  0.024498  0  -9.7e-05  0.033999  0  3.940576  0
C  C51  1  0.57673813  0.03420527  0.57949334  1  -0.059854  0  -0.005591  0.081518  0  4.015584  0
C  C52  1  0.49756851  0.04104242  0.48739872  1  0.017606  0  -0.002157  0.036387  0  3.951966  0
C  C53  1  0.50901300  0.95719115  0.50486638  1  0.029489  0  -0.002341  0.030934  0  3.952785  0
C  C54  1  0.55448709  0.91374422  0.55926551  1  -0.034794  0  -0.089927  -0.123181  0  4.023679  0
C  C55  1  0.58717687  0.95050225  0.59488018  1  -0.04563  0  -0.091798  -0.137076  0  4.030592  0
C  C56  1  0.82775614  0.54126866  0.49535534  1  -0.081515  0  -0.075475  -0.136513  0  3.936524  0
C  C57  1  0.45350679  0.08529054  0.43163397  1  -0.082201  0  -0.092136  -0.132011  0  4.027896  0
C  C58  1  0.42318067  0.04930752  0.39376028  1  -0.046237  0  -0.090298  -0.132214  0  4.032024  0
C  C59  1  0.43393963  0.96567326  0.40884242  1  0.001559  0  -0.004837  0.077039  0  4.02021  0
C  C60  1  0.47592856  0.91824254  0.46606510  1  0.027908  0  -0.002519  0.036717  0  3.947386  0
C  C61  1  0.53849006  0.55420199  0.26715406  1  1.524506  0  0.226369  0.608251  0  4.157485  0
C  C62  1  0.40447316  0.92929057  0.36761375  1  -0.007691  0  -0.086536  -0.126264  0  3.995234  0
C  C63  1  0.41694970  0.84913782  0.38005362  1  -0.029524  0  -0.084303  -0.102945  0  3.999169  0
C  C64  1  0.48349350  0.83467912  0.48173385  1  -0.033628  0  -0.084799  -0.150554  0  3.949386  0
C  C65  1  0.55268677  0.57700977  0.17222546  1  0.012762  0  -0.020785  -0.044457  0  4.001215  0
C  C66  1  0.45460346  0.41734975  0.82446768  1  0.002818  0  -0.011676  -0.010118  0  3.986791  0
C  C67  1  0.90289372  0.56791884  0.49304612  1  -0.008728  0  0.001332  0.034673  0  3.95641  0
C  C68  1  0.61244023  0.67436517  0.01408137  1  -0.099427  0  -0.090419  -0.135575  0  4.0047  0
C  C69  1  0.60070947  0.65346529  0.10148033  1  -0.032448  0  -0.086498  -0.093258  0  3.99992  0
C  C70  1  0.51853526  0.52289948  0.15366058  1  -0.040222  0  -0.076715  -0.126098  0  3.928861  0
C  C71  1  0.53049231  0.54201561  0.06473686  1  0.006354  0  -0.001746  0.033687  0  3.938729  0
C  C72  1  0.57801037  0.62007979  0.99370524  1  -0.026369  0  -0.002772  0.084599  0  4.016975  0
C  C73  1  0.29074225  0.44794139  0.56159483  1  1.585604  0  0.233501  0.619975  0  4.155292  0
C  C74  1  0.49671663  0.48594706  0.04343367  1  -0.032013  0  1.6e-05  0.038799  0  3.952711  0
C  C75  1  0.50940875  0.50999675  0.95257754  1  0.019737  0  -0.004052  0.027434  0  3.954971  0
C  C76  1  0.55654507  0.58887863  0.88407406  1  -0.088868  0  -0.090145  -0.12198  0  4.02455  0
C  C77  1  0.58978972  0.64151496  0.90352822  1  -0.041521  0  -0.093442  -0.141224  0  4.031863  0
C  C78  1  0.94387987  0.64977125  0.42461481  1  0.004168  0  -0.002138  0.082027  0  4.021773  0
C  C79  1  0.45152689  0.40625936  0.11196862  1  0.008852  0  -0.092633  -0.132723  0  4.031685  0
C  C80  1  0.42119807  0.35234301  0.09199930  1  -0.027151  0  -0.090632  -0.132041  0  4.034456  0
C  C81  1  0.43272068  0.37384658  0.00184384  1  -0.023017  0  -0.007227  0.074663  0  4.023313  0
C  C82  1  0.47587853  0.45387944  0.93116756  1  0.01397  0  0.002538  0.045394  0  3.939682  0
C  C83  1  0.40263745  0.31703537  0.98143969  1  -0.020972  0  -0.086741  -0.125345  0  4.002555  0
C  C84  1  0.41453434  0.33738850  0.89407563  1  -0.041045  0  -0.087541  -0.106488  0  4.008093  0
C  C85  1  0.70953617  0.56376028  0.44723331  1  1.568065  0  0.227857  0.604666  0  4.169007  0
C  C86  1  0.48394768  0.47439474  0.84274962  1  0.006  0  -0.085374  -0.154013  0  3.946037  0
C  C87  1  0.79141483  0.59425457  0.43794141  1  0.017355  0  -0.016687  -0.032407  0  3.9844  0
C  C88  1  0.19984673  0.42836217  0.58993207  1  -0.055001  0  -0.005395  -0.000765  0  3.975325  0
C  C89  1  0.94157900  0.51461102  0.55284092  1  0.012006  0  0.005559  0.008398  0  3.929128  0
C  C90  1  0.90628836  0.70249900  0.36589733  1  0.008432  0  -0.082697  -0.12497  0  3.978251  0
C  C91  1  0.13292062  0.66520999  0.46951017  1  0.95706  0  0.092639  0.263376  0  3.997957  0
C  C92  1  0.80713701  0.42022143  0.67879781  1  0.931443  0  0.093646  0.266701  0  3.993864  0
C  C93  1  0.02501128  0.53850434  0.53348114  1  0.018362  0  0.002305  -0.000435  0  3.929173  0
C  C94  1  0.06105408  0.62414340  0.47050807  1  -0.053038  0  -0.01835  -0.024915  0  3.979898  0
C  C95  1  0.02117878  0.67682745  0.41815005  1  -0.062458  0  -0.066853  -0.130781  0  3.92664  0
O  O96  1  0.50334473  0.49936667  0.49778388  1  -1.236946  0  -0.5746  -1.034528  0  2.548028  0
O  O97  1  0.31201642  0.50474082  0.57660456  1  -1.161791  0  -0.312625  -0.544234  0  2.299366  0
O  O98  1  0.67650646  0.61558178  0.39590501  1  -1.172721  0  -0.314179  -0.544901  0  2.322291  0
O  O99  1  0.33752808  0.40647813  0.52593411  1  -1.166302  0  -0.311006  -0.537867  0  2.295283  0
O  O100  1  0.67937267  0.48870313  0.50675452  1  -1.1805  0  -0.31485  -0.543152  0  2.350977  0
O  O101  1  0.17740999  0.72848578  0.40522480  1  -1.085256  0  -0.277731  -0.365551  0  2.085735  0
O  O102  1  0.76848973  0.35068515  0.73329359  1  -1.079648  0  -0.273975  -0.357023  0  2.083932  0
O  O103  1  0.52110093  0.40631356  0.69016006  1  -1.166563  0  -0.310646  -0.541915  0  2.31145  0
O  O104  1  0.58034441  0.60044120  0.27934149  1  -1.159949  0  -0.316437  -0.546164  0  2.33308  0
O  O105  1  0.43402410  0.65657562  0.53637576  1  -1.176291  0  -0.314264  -0.542789  0  2.305989  0
O  O106  1  0.49815176  0.32315431  0.48690478  1  -1.17808  0  -0.318889  -0.551518  0  2.349514  0
O  O107  1  0.51314478  0.70221026  0.38760150  1  -1.168112  0  -0.315052  -0.549062  0  2.285795  0
O  O108  1  0.57506930  0.31782224  0.56635130  1  -1.166705  0  -0.315693  -0.542754  0  2.33568  0
O  O109  1  0.41954849  0.49006972  0.69775263  1  -1.166595  0  -0.312187  -0.540093  0  2.304559  0
O  O110  1  0.48565976  0.49033325  0.32913359  1  -1.179676  0  -0.31981  -0.553814  0  2.339417  0
