# generated using pymatgen
data_CdH26C16S2(N2O3)2
_symmetry_space_group_name_H-M   'P 1'
_cell_length_a   8.11320152
_cell_length_b   9.41502193
_cell_length_c   13.80133740
_cell_angle_alpha   90.00043574
_cell_angle_beta   89.92762409
_cell_angle_gamma   89.99988661
_symmetry_Int_Tables_number   1
_chemical_formula_structural   CdH26C16S2(N2O3)2
_chemical_formula_sum   'Cd2 H52 C32 S4 N8 O12'
_cell_volume   1054.22770601
_cell_formula_units_Z   2
loop_
 _symmetry_equiv_pos_site_id
 _symmetry_equiv_pos_as_xyz
  1  'x, y, z'
loop_
 _atom_site_type_symbol
 _atom_site_label
 _atom_site_symmetry_multiplicity
 _atom_site_fract_x
 _atom_site_fract_y
 _atom_site_fract_z
 _atom_site_occupancy
 _atom_site_hle17_bader_spin_density
 _atom_site_hle17_ddec_charge
 _atom_site_hle17_ddec_spin_density
 _atom_site_hle17_ddec_sum_bond_order
 _atom_site_hle17_magmom
 _atom_site_hse06_10hf_bader_spin_density
 _atom_site_hse06_10hf_ddec_charge
 _atom_site_hse06_10hf_ddec_spin_density
 _atom_site_hse06_10hf_ddec_sum_bond_order
 _atom_site_hse06_10hf_magmom
 _atom_site_hse06_bader_spin_density
 _atom_site_hse06_ddec_charge
 _atom_site_hse06_ddec_spin_density
 _atom_site_hse06_ddec_sum_bond_order
 _atom_site_hse06_magmom
 _atom_site_pbe_bader_spin_density
 _atom_site_pbe_cm5_charge
 _atom_site_pbe_ddec_charge
 _atom_site_pbe_ddec_spin_density
 _atom_site_pbe_ddec_sum_bond_order
 _atom_site_pbe_magmom
Cd  Cd0  1  0.00000124  0.00000064  0.50000003  1  0  1.059544  0  1.673198  0  0  0.874235  0  2.097639  0  0  0.92212  0  2.056474  0  0  0.775446  0.841105  0  2.125687  0
Cd  Cd1  1  0.50000143  0.50000181  0.99999883  1  0  1.059513  0  1.673204  0  0  0.87422  0  2.097628  0  0  0.922105  0  2.056466  0  0  0.775437  0.841089  0  2.125678  0
H  H2  1  0.73082753  0.89225326  0.38157008  1  0  0.296344  0  0.926519  0  0  0.283801  0  0.989789  0  0  0.289247  0  0.986791  0  0  0.287078  0.279898  0  0.99203  0
H  H3  1  0.23082834  0.60774728  0.88157119  1  0  0.296346  0  0.926499  0  0  0.283795  0  0.989785  0  0  0.289241  0  0.986786  0  0  0.287087  0.279891  0  0.992026  0
H  H4  1  0.26917406  0.10774696  0.61843041  1  0  0.296344  0  0.926491  0  0  0.283795  0  0.989768  0  0  0.289241  0  0.986771  0  0  0.287084  0.279891  0  0.992009  0
H  H5  1  0.76917569  0.39225612  0.11843148  1  0  0.296346  0  0.926541  0  0  0.283801  0  0.989815  0  0  0.289245  0  0.986821  0  0  0.287071  0.279897  0  0.992059  0
H  H6  1  0.90161338  0.80968275  0.34701961  1  0  0.292966  0  0.888358  0  0  0.294132  0  0.926484  0  0  0.298911  0  0.924156  0  0  0.302462  0.290966  0  0.9279  0
H  H7  1  0.40161403  0.69031075  0.84701753  1  0  0.292982  0  0.888382  0  0  0.29414  0  0.926515  0  0  0.298919  0  0.92419  0  0  0.302458  0.290975  0  0.927933  0
H  H8  1  0.09838819  0.19031322  0.65298378  1  0  0.292984  0  0.888378  0  0  0.294155  0  0.926489  0  0  0.298933  0  0.924165  0  0  0.302486  0.290989  0  0.927903  0
H  H9  1  0.59838877  0.30969160  0.15298514  1  0  0.292858  0  0.88862  0  0  0.29403  0  0.926729  0  0  0.298809  0  0.924405  0  0  0.302401  0.290864  0  0.928142  0
H  H10  1  0.90338988  0.80916713  0.64546146  1  0  0.254647  0  0.904486  0  0  0.248458  0  0.956159  0  0  0.253004  0  0.954295  0  0  0.295578  0.244931  0  0.958084  0
H  H11  1  0.40339051  0.69083581  0.14545932  1  0  0.25462  0  0.904519  0  0  0.248422  0  0.956231  0  0  0.252972  0  0.954358  0  0  0.295553  0.244896  0  0.958152  0
H  H12  1  0.09661169  0.19082990  0.35454193  1  0  0.254669  0  0.904465  0  0  0.248474  0  0.956164  0  0  0.253021  0  0.954292  0  0  0.295596  0.244948  0  0.958088  0
H  H13  1  0.59660615  0.30916334  0.85453971  1  0  0.254626  0  0.904528  0  0  0.248441  0  0.95624  0  0  0.252991  0  0.954366  0  0  0.295564  0.244915  0  0.958163  0
H  H14  1  0.34899504  0.31220921  0.37170435  1  0  0.119828  0  0.9723  0  0  0.130903  0  1.030305  0  0  0.134634  0  1.027885  0  0  0.106486  0.128058  0  1.032576  0
H  H15  1  0.84900449  0.18779654  0.87171385  1  0  0.119902  0  0.971994  0  0  0.130986  0  1.029969  0  0  0.13472  0  1.027546  0  0  0.106523  0.128142  0  1.032242  0
H  H16  1  0.65098934  0.68779632  0.62828814  1  0  0.119873  0  0.971989  0  0  0.130959  0  1.029977  0  0  0.134691  0  1.027558  0  0  0.106503  0.128116  0  1.03225  0
H  H17  1  0.15100071  0.81220580  0.12829824  1  0  0.119808  0  0.972278  0  0  0.130889  0  1.030272  0  0  0.134618  0  1.027857  0  0  0.10646  0.128044  0  1.032542  0
H  H18  1  0.30480241  0.56995993  0.34018963  1  0  0.115533  0  0.949201  0  0  0.121913  0  1.015828  0  0  0.126144  0  1.012305  0  0  0.10857  0.118833  0  1.018239  0
H  H19  1  0.80482120  0.93003047  0.84019388  1  0  0.115753  0  0.949071  0  0  0.122069  0  1.01579  0  0  0.12629  0  1.012265  0  0  0.108678  0.118992  0  1.018201  0
H  H20  1  0.69518074  0.43003816  0.65980431  1  0  0.115731  0  0.949114  0  0  0.122043  0  1.015849  0  0  0.126262  0  1.012323  0  0  0.10864  0.118963  0  1.01826  0
H  H21  1  0.19519759  0.06995701  0.15981316  1  0  0.115548  0  0.949145  0  0  0.121949  0  1.015763  0  0  0.126181  0  1.012237  0  0  0.108575  0.118867  0  1.018178  0
H  H22  1  0.54212681  0.87901791  0.52461593  1  0  0.110811  0  0.976495  0  0  0.11623  0  1.045589  0  0  0.120143  0  1.042708  0  0  0.103717  0.114185  0  1.046721  0
H  H23  1  0.04213368  0.62098113  0.02462575  1  0  0.110841  0  0.976454  0  0  0.116242  0  1.045567  0  0  0.120163  0  1.042677  0  0  0.103697  0.114193  0  1.046707  0
H  H24  1  0.45786871  0.12098230  0.47537151  1  0  0.110817  0  0.976418  0  0  0.116185  0  1.04558  0  0  0.120096  0  1.042702  0  0  0.103691  0.114137  0  1.046716  0
H  H25  1  0.95786903  0.37901378  0.97538923  1  0  0.110822  0  0.976467  0  0  0.116221  0  1.045588  0  0  0.120131  0  1.042709  0  0  0.103721  0.114175  0  1.046721  0
H  H26  1  0.99410952  0.99250383  0.25513603  1  0  0.061348  0  0.959815  0  0  0.076867  0  1.027827  0  0  0.076499  0  1.028944  0  0  0.103271  0.077128  0  1.027192  0
H  H27  1  0.49410196  0.50748531  0.75513369  1  0  0.061287  0  0.95989  0  0  0.076809  0  1.027893  0  0  0.076453  0  1.028985  0  0  0.103244  0.07706  0  1.027268  0
H  H28  1  0.00589698  0.00749002  0.74486737  1  0  0.06132  0  0.959954  0  0  0.076848  0  1.027954  0  0  0.076489  0  1.029053  0  0  0.103241  0.077098  0  1.027331  0
H  H29  1  0.50589840  0.49252022  0.24486607  1  0  0.061331  0  0.959823  0  0  0.076839  0  1.02786  0  0  0.076479  0  1.028956  0  0  0.10326  0.077089  0  1.027232  0
H  H30  1  0.77959243  0.98891705  0.22980676  1  0  0.059893  0  0.926618  0  0  0.079357  0  0.986565  0  0  0.079657  0  0.986853  0  0  0.100837  0.079332  0  0.986081  0
H  H31  1  0.27958360  0.51107536  0.72980879  1  0  0.059887  0  0.92661  0  0  0.07936  0  0.986528  0  0  0.079659  0  0.986818  0  0  0.100817  0.07933  0  0.986043  0
H  H32  1  0.22041409  0.01107892  0.77019301  1  0  0.059847  0  0.92667  0  0  0.079336  0  0.986597  0  0  0.079636  0  0.986887  0  0  0.100817  0.079307  0  0.986115  0
H  H33  1  0.72041551  0.48893123  0.27019314  1  0  0.05989  0  0.926634  0  0  0.079386  0  0.98654  0  0  0.079688  0  0.986828  0  0  0.100841  0.079356  0  0.986056  0
H  H34  1  0.14414698  0.76603191  0.73939632  1  0  0.059954  0  0.954656  0  0  0.072739  0  1.024034  0  0  0.073368  0  1.024263  0  0  0.097339  0.072495  0  1.023592  0
H  H35  1  0.64414655  0.73397782  0.23939293  1  0  0.059974  0  0.954608  0  0  0.072722  0  1.023996  0  0  0.073351  0  1.024225  0  0  0.097306  0.072478  0  1.023552  0
H  H36  1  0.85585955  0.23396405  0.26060129  1  0  0.059967  0  0.954617  0  0  0.072713  0  1.023989  0  0  0.073344  0  1.024204  0  0  0.097335  0.072465  0  1.023557  0
H  H37  1  0.35584889  0.26602877  0.76060610  1  0  0.060036  0  0.954575  0  0  0.072752  0  1.024012  0  0  0.073385  0  1.024233  0  0  0.097341  0.072505  0  1.023576  0
H  H38  1  0.26492537  0.82603325  0.63967831  1  0  0.073763  0  0.926475  0  0  0.09329  0  0.982406  0  0  0.093004  0  0.984231  0  0  0.105566  0.093171  0  0.981671  0
H  H39  1  0.76492630  0.67396881  0.13967534  1  0  0.073731  0  0.926457  0  0  0.093228  0  0.982392  0  0  0.092938  0  0.984223  0  0  0.105543  0.093108  0  0.981661  0
H  H40  1  0.73507624  0.17396378  0.36031856  1  0  0.073785  0  0.926433  0  0  0.093248  0  0.982381  0  0  0.092959  0  0.984203  0  0  0.105552  0.093127  0  0.981648  0
H  H41  1  0.23507161  0.32603353  0.86032298  1  0  0.073723  0  0.9265  0  0  0.093253  0  0.982412  0  0  0.092965  0  0.984242  0  0  0.105543  0.093131  0  0.981681  0
H  H42  1  0.03133618  0.57840250  0.62410805  1  0  0.088902  0  0.945428  0  0  0.106574  0  1.012613  0  0  0.108309  0  1.011178  0  0  0.092905  0.105154  0  1.013611  0
H  H43  1  0.53133039  0.92159872  0.12410347  1  0  0.088817  0  0.945525  0  0  0.1065  0  1.012732  0  0  0.108233  0  1.011302  0  0  0.092863  0.105103  0  1.013706  0
H  H44  1  0.96866293  0.42159666  0.37589389  1  0  0.088938  0  0.945523  0  0  0.106602  0  1.012688  0  0  0.108336  0  1.011256  0  0  0.09294  0.105205  0  1.013665  0
H  H45  1  0.46865765  0.07840255  0.87589555  1  0  0.088863  0  0.945572  0  0  0.106546  0  1.012748  0  0  0.10828  0  1.011318  0  0  0.092924  0.10515  0  1.013725  0
H  H46  1  0.92312950  0.63974462  0.51959826  1  0  0.083527  0  0.949983  0  0  0.106641  0  1.010723  0  0  0.106385  0  1.012547  0  0  0.096624  0.106388  0  1.010083  0
H  H47  1  0.42312235  0.86025584  0.01959627  1  0  0.083575  0  0.95004  0  0  0.106677  0  1.010783  0  0  0.106419  0  1.012609  0  0  0.096658  0.106423  0  1.010146  0
H  H48  1  0.07686962  0.36025347  0.48040222  1  0  0.083482  0  0.949987  0  0  0.10659  0  1.010739  0  0  0.106335  0  1.012562  0  0  0.096594  0.106335  0  1.010103  0
H  H49  1  0.57686691  0.13974650  0.98040420  1  0  0.083475  0  0.949926  0  0  0.106593  0  1.010684  0  0  0.106339  0  1.012504  0  0  0.096593  0.106339  0  1.010048  0
H  H50  1  0.14197976  0.65402355  0.52395560  1  0  0.082804  0  0.976261  0  0  0.101607  0  1.044076  0  0  0.101083  0  1.046707  0  0  0.092693  0.101758  0  1.042484  0
H  H51  1  0.64197784  0.84597956  0.02395207  1  0  0.082806  0  0.976187  0  0  0.101636  0  1.043997  0  0  0.101112  0  1.046627  0  0  0.092703  0.101785  0  1.042413  0
H  H52  1  0.85801936  0.34597666  0.47604489  1  0  0.082801  0  0.976222  0  0  0.101587  0  1.044057  0  0  0.101063  0  1.046688  0  0  0.092695  0.101737  0  1.042467  0
H  H53  1  0.35801512  0.15402809  0.97604768  1  0  0.082804  0  0.976196  0  0  0.101593  0  1.044039  0  0  0.101068  0  1.046672  0  0  0.092711  0.101744  0  1.042449  0
C  C54  1  0.41967610  0.33775910  0.43652326  1  0  -0.106452  0  3.704921  0  0  -0.126244  0  3.952815  0  0  -0.12807  0  3.971574  0  0  -0.087397  -0.124342  0  3.941077  0
C  C55  1  0.91969178  0.16224193  0.93653190  1  0  -0.106406  0  3.704976  0  0  -0.126197  0  3.952864  0  0  -0.128026  0  3.971628  0  0  -0.087433  -0.124295  0  3.941129  0
C  C56  1  0.58029225  0.66224537  0.56347138  1  0  -0.106417  0  3.705024  0  0  -0.126219  0  3.952909  0  0  -0.128048  0  3.971674  0  0  -0.087416  -0.124317  0  3.941176  0
C  C57  1  0.08032824  0.83774979  0.06347587  1  0  -0.106344  0  3.704756  0  0  -0.126141  0  3.952638  0  0  -0.127967  0  3.971404  0  0  -0.087324  -0.124236  0  3.940898  0
C  C58  1  0.44970332  0.48267017  0.45898111  1  0  0.056003  0  3.786062  0  0  0.073133  0  4.011964  0  0  0.072552  0  4.036249  0  0  -0.00763  0.072789  0  3.995749  0
C  C59  1  0.94972302  0.01732999  0.95899045  1  0  0.0557  0  3.786173  0  0  0.072854  0  4.012034  0  0  0.07227  0  4.036322  0  0  -0.007738  0.07251  0  3.995824  0
C  C60  1  0.55027242  0.51733429  0.54101354  1  0  0.055853  0  3.786121  0  0  0.073012  0  4.011991  0  0  0.072429  0  4.036279  0  0  -0.007712  0.072667  0  3.995779  0
C  C61  1  0.05029450  0.98266385  0.04102166  1  0  0.056007  0  3.785814  0  0  0.073159  0  4.011709  0  0  0.072577  0  4.035994  0  0  -0.007618  0.072814  0  3.995497  0
C  C62  1  0.38421516  0.59430215  0.40165257  1  0  -0.123191  0  3.742859  0  0  -0.153182  0  3.992203  0  0  -0.152448  0  4.009544  0  0  -0.084203  -0.152293  0  3.979676  0
C  C63  1  0.88423399  0.90569728  0.90166032  1  0  -0.12327  0  3.743105  0  0  -0.153207  0  3.992563  0  0  -0.152457  0  4.009891  0  0  -0.084295  -0.152321  0  3.980038  0
C  C64  1  0.61576181  0.40570231  0.59834281  1  0  -0.123326  0  3.742966  0  0  -0.153299  0  3.992349  0  0  -0.152547  0  4.009674  0  0  -0.084242  -0.152415  0  3.979832  0
C  C65  1  0.11578232  0.09429975  0.09834889  1  0  -0.123214  0  3.742845  0  0  -0.153218  0  3.992206  0  0  -0.152483  0  4.009547  0  0  -0.084255  -0.152333  0  3.979687  0
C  C66  1  0.42044445  0.73352125  0.42413901  1  0  -0.129235  0  3.792072  0  0  -0.103878  0  4.04116  0  0  -0.109448  0  4.061653  0  0  -0.026374  -0.10062  0  4.027874  0
C  C67  1  0.92046237  0.76648262  0.92414530  1  0  -0.129251  0  3.792351  0  0  -0.103989  0  4.041554  0  0  -0.109563  0  4.062055  0  0  -0.026251  -0.100731  0  4.028265  0
C  C68  1  0.57954117  0.26648321  0.57585276  1  0  -0.129313  0  3.792452  0  0  -0.103889  0  4.041424  0  0  -0.10946  0  4.061918  0  0  -0.026289  -0.100631  0  4.02813  0
C  C69  1  0.07954534  0.23351654  0.07586027  1  0  -0.129299  0  3.792107  0  0  -0.103993  0  4.041284  0  0  -0.109564  0  4.06178  0  0  -0.026298  -0.100736  0  4.027997  0
C  C70  1  0.51746477  0.76863678  0.50602922  1  0  -0.082417  0  3.769315  0  0  -0.106816  0  4.025128  0  0  -0.107101  0  4.043574  0  0  -0.094212  -0.107826  0  4.013756  0
C  C71  1  0.01748250  0.73135785  0.00603674  1  0  -0.08239  0  3.769021  0  0  -0.106747  0  4.02487  0  0  -0.107038  0  4.043316  0  0  -0.094261  -0.107756  0  4.013495  0
C  C72  1  0.48252951  0.23136237  0.49395967  1  0  -0.082253  0  3.768937  0  0  -0.106626  0  4.024735  0  0  -0.106911  0  4.043188  0  0  -0.094178  -0.107635  0  4.013357  0
C  C73  1  0.98253507  0.26863069  0.99397030  1  0  -0.082286  0  3.769235  0  0  -0.106649  0  4.025069  0  0  -0.106933  0  4.043516  0  0  -0.094168  -0.107657  0  4.013694  0
C  C74  1  0.87156685  0.00839487  0.28679450  1  0  0.058596  0  3.654191  0  0  -0.002947  0  3.924794  0  0  0.001239  0  3.937435  0  0  -0.078126  -0.005803  0  3.916008  0
C  C75  1  0.37155940  0.49159927  0.78679470  1  0  0.058556  0  3.654347  0  0  -0.002908  0  3.924833  0  0  0.001274  0  3.937501  0  0  -0.078068  -0.005744  0  3.916019  0
C  C76  1  0.12843842  0.99160216  0.71320745  1  0  0.058561  0  3.65438  0  0  -0.002969  0  3.925005  0  0  0.001221  0  3.937654  0  0  -0.07809  -0.005807  0  3.916196  0
C  C77  1  0.62844466  0.50840519  0.21320507  1  0  0.058484  0  3.654368  0  0  -0.003041  0  3.924945  0  0  0.001142  0  3.937605  0  0  -0.078155  -0.005879  0  3.916132  0
C  C78  1  0.85385990  0.16059654  0.32282555  1  0  -0.00444  0  3.636598  0  0  -0.056062  0  3.891484  0  0  -0.053333  0  3.904883  0  0  -0.077758  -0.05777  0  3.882243  0
C  C79  1  0.35385156  0.33939697  0.82282640  1  0  -0.004317  0  3.636547  0  0  -0.056064  0  3.891585  0  0  -0.053353  0  3.905009  0  0  -0.077729  -0.057773  0  3.882338  0
C  C80  1  0.14614539  0.83940049  0.67717495  1  0  -0.004224  0  3.636424  0  0  -0.056056  0  3.891519  0  0  -0.053343  0  3.90494  0  0  -0.07773  -0.057763  0  3.882274  0
C  C81  1  0.64614635  0.66060218  0.17717118  1  0  -0.004271  0  3.636669  0  0  -0.055965  0  3.891609  0  0  -0.05325  0  3.905026  0  0  -0.077691  -0.057673  0  3.882362  0
C  C82  1  0.02870233  0.66057937  0.56717696  1  0  -0.139756  0  3.688225  0  0  -0.234659  0  3.944838  0  0  -0.231982  0  3.956311  0  0  -0.153633  -0.236314  0  3.937488  0
C  C83  1  0.52869796  0.83942229  0.06717267  1  0  -0.139762  0  3.688227  0  0  -0.234705  0  3.944938  0  0  -0.232023  0  3.956404  0  0  -0.153663  -0.236383  0  3.937586  0
C  C84  1  0.97129682  0.33942403  0.43281918  1  0  -0.139772  0  3.688274  0  0  -0.234626  0  3.944918  0  0  -0.231952  0  3.956395  0  0  -0.153664  -0.236303  0  3.937558  0
C  C85  1  0.47129380  0.16057793  0.93282273  1  0  -0.139646  0  3.68816  0  0  -0.234538  0  3.94482  0  0  -0.231862  0  3.956295  0  0  -0.15362  -0.236213  0  3.937457  0
S  S86  1  0.34906179  0.87511059  0.34970281  1  0  1.290933  0  5.696339  0  0  1.193573  0  6.220153  0  0  1.241733  0  6.195575  0  0  0.499295  1.160359  0  6.236024  0
S  S87  1  0.84907386  0.62488833  0.84971126  1  0  1.290769  0  5.696463  0  0  1.193503  0  6.220256  0  0  1.24166  0  6.195688  0  0  0.499205  1.160291  0  6.236123  0
S  S88  1  0.65093248  0.12489813  0.65028607  1  0  1.290733  0  5.696534  0  0  1.193378  0  6.220344  0  0  1.241536  0  6.195775  0  0  0.499107  1.160165  0  6.236209  0
S  S89  1  0.15094001  0.37510763  0.15029578  1  0  1.290898  0  5.696341  0  0  1.193577  0  6.220158  0  0  1.241735  0  6.195585  0  0  0.49931  1.160364  0  6.236025  0
N  N90  1  0.85397555  0.90566356  0.36720276  1  0  -0.636686  0  3.067598  0  0  -0.583896  0  3.312018  0  0  -0.603283  0  3.312183  0  0  -0.628749  -0.570482  0  3.311758  0
N  N91  1  0.35397393  0.59433236  0.86720307  1  0  -0.636679  0  3.067677  0  0  -0.583909  0  3.312099  0  0  -0.603297  0  3.312265  0  0  -0.628758  -0.5705  0  3.311832  0
N  N92  1  0.14602604  0.09433454  0.63279773  1  0  -0.636695  0  3.067612  0  0  -0.583912  0  3.312059  0  0  -0.603301  0  3.312224  0  0  -0.628789  -0.570501  0  3.31179  0
N  N93  1  0.64602765  0.40567104  0.13279742  1  0  -0.636546  0  3.067748  0  0  -0.583777  0  3.31217  0  0  -0.603166  0  3.312335  0  0  -0.62868  -0.570368  0  3.311905  0
N  N94  1  0.98695505  0.19600724  0.39156414  1  0  -0.383483  0  3.241366  0  0  -0.301339  0  3.490262  0  0  -0.320296  0  3.504155  0  0  -0.491747  -0.288528  0  3.480872  0
N  N95  1  0.48695295  0.30398999  0.89156482  1  0  -0.383515  0  3.241266  0  0  -0.301357  0  3.490189  0  0  -0.320308  0  3.50408  0  0  -0.491763  -0.288547  0  3.480799  0
N  N96  1  0.01304407  0.80399192  0.60843707  1  0  -0.383575  0  3.241274  0  0  -0.301325  0  3.490135  0  0  -0.320276  0  3.504017  0  0  -0.491763  -0.288515  0  3.48074  0
N  N97  1  0.51304370  0.69601235  0.10843566  1  0  -0.383452  0  3.241285  0  0  -0.301243  0  3.49013  0  0  -0.320189  0  3.504005  0  0  -0.491681  -0.288434  0  3.480739  0
O  O98  1  0.49890051  0.94414568  0.31298419  1  0  -0.664262  0  1.927189  0  0  -0.614755  0  2.171325  0  0  -0.6357  0  2.158186  0  0  -0.346078  -0.599409  0  2.179579  0
O  O99  1  0.99888940  0.55584515  0.81298064  1  0  -0.664274  0  1.927433  0  0  -0.614736  0  2.171537  0  0  -0.635677  0  2.158398  0  0  -0.346113  -0.599389  0  2.179784  0
O  O100  1  0.50110234  0.05586197  0.68701123  1  0  -0.664229  0  1.927292  0  0  -0.614663  0  2.171387  0  0  -0.635609  0  2.158253  0  0  -0.346025  -0.599317  0  2.179637  0
O  O101  1  0.00110730  0.44414551  0.18701405  1  0  -0.664303  0  1.92718  0  0  -0.614793  0  2.171301  0  0  -0.635736  0  2.158165  0  0  -0.346117  -0.599447  0  2.179553  0
O  O102  1  0.25777560  0.97041936  0.41639212  1  0  -0.705941  0  2.029473  0  0  -0.639874  0  2.305171  0  0  -0.663251  0  2.288705  0  0  -0.35753  -0.62306  0  2.315676  0
O  O103  1  0.75778054  0.52957726  0.91639353  1  0  -0.705804  0  2.029523  0  0  -0.639815  0  2.305249  0  0  -0.663197  0  2.28879  0  0  -0.357472  -0.622985  0  2.315716  0
O  O104  1  0.74221494  0.02958192  0.58360110  1  0  -0.705725  0  2.029535  0  0  -0.639749  0  2.305288  0  0  -0.663129  0  2.288825  0  0  -0.357409  -0.622929  0  2.315775  0
O  O105  1  0.24222351  0.47041870  0.08360696  1  0  -0.705957  0  2.02942  0  0  -0.639893  0  2.305106  0  0  -0.663274  0  2.288644  0  0  -0.357549  -0.623073  0  2.315592  0
O  O106  1  0.24448206  0.81174982  0.27483319  1  0  -0.659808  0  1.925293  0  0  -0.612636  0  2.167747  0  0  -0.632006  0  2.152823  0  0  -0.346667  -0.599504  0  2.178083  0
O  O107  1  0.74447920  0.68825483  0.77484049  1  0  -0.659858  0  1.924931  0  0  -0.612736  0  2.167401  0  0  -0.632105  0  2.152476  0  0  -0.34673  -0.599605  0  2.177742  0
O  O108  1  0.75552453  0.18826102  0.72515644  1  0  -0.659897  0  1.924995  0  0  -0.612738  0  2.167461  0  0  -0.632106  0  2.152533  0  0  -0.346739  -0.599604  0  2.177796  0
O  O109  1  0.25552603  0.31175282  0.22516653  1  0  -0.659736  0  1.925372  0  0  -0.612593  0  2.167835  0  0  -0.631963  0  2.152912  0  0  -0.346655  -0.59945  0  2.17815  0
