# generated using pymatgen
data_KH4C4N9O5
_symmetry_space_group_name_H-M   'P 1'
_cell_length_a   6.65118235
_cell_length_b   9.89936634
_cell_length_c   16.48502042
_cell_angle_alpha   107.18658025
_cell_angle_beta   89.99995718
_cell_angle_gamma   90.00005421
_symmetry_Int_Tables_number   1
_chemical_formula_structural   KH4C4N9O5
_chemical_formula_sum   'K4 H16 C16 N36 O20'
_cell_volume   1036.94842322
_cell_formula_units_Z   4
loop_
 _symmetry_equiv_pos_site_id
 _symmetry_equiv_pos_as_xyz
  1  'x, y, z'
loop_
 _atom_site_type_symbol
 _atom_site_label
 _atom_site_symmetry_multiplicity
 _atom_site_fract_x
 _atom_site_fract_y
 _atom_site_fract_z
 _atom_site_occupancy
 _atom_site_hle17_bader_spin_density
 _atom_site_hle17_ddec_charge
 _atom_site_hle17_ddec_spin_density
 _atom_site_hle17_ddec_sum_bond_order
 _atom_site_hle17_magmom
 _atom_site_hse06_10hf_bader_spin_density
 _atom_site_hse06_10hf_ddec_charge
 _atom_site_hse06_10hf_ddec_spin_density
 _atom_site_hse06_10hf_ddec_sum_bond_order
 _atom_site_hse06_10hf_magmom
 _atom_site_hse06_bader_spin_density
 _atom_site_hse06_ddec_charge
 _atom_site_hse06_ddec_spin_density
 _atom_site_hse06_ddec_sum_bond_order
 _atom_site_hse06_magmom
 _atom_site_pbe_bader_spin_density
 _atom_site_pbe_cm5_charge
 _atom_site_pbe_ddec_charge
 _atom_site_pbe_ddec_spin_density
 _atom_site_pbe_ddec_sum_bond_order
 _atom_site_pbe_magmom
K  K0  1  0.08561464  0.78551981  0.84347012  1  0  0.878395  0  0.484766  0  0  0.798935  0  0.700834  0  0  0.817009  0  0.675758  0  0  0.819342  0.786058  0  0.717811  0
K  K1  1  0.58561759  0.71448207  0.65653092  1  0  0.878386  0  0.484779  0  0  0.798919  0  0.700849  0  0  0.816998  0  0.675767  0  0  0.819327  0.786035  0  0.717823  0
K  K2  1  0.91438330  0.21448054  0.15652972  1  0  0.878405  0  0.484745  0  0  0.798939  0  0.700824  0  0  0.817017  0  0.675737  0  0  0.819326  0.786037  0  0.717795  0
K  K3  1  0.41437884  0.28551933  0.34347093  1  0  0.878394  0  0.484763  0  0  0.798916  0  0.700859  0  0  0.816995  0  0.675776  0  0  0.819321  0.786012  0  0.717831  0
H  H4  1  0.66500174  0.80542502  0.98500990  1  0  0.333037  0  0.913484  0  0  0.30927  0  0.988094  0  0  0.316855  0  0.982081  0  0  0.308416  0.303909  0  0.99234  0
H  H5  1  0.16500527  0.69457480  0.51499075  1  0  0.333064  0  0.913458  0  0  0.3093  0  0.988066  0  0  0.316885  0  0.982051  0  0  0.308413  0.303942  0  0.992305  0
H  H6  1  0.33499620  0.19458062  0.01498845  1  0  0.333039  0  0.913546  0  0  0.309251  0  0.988163  0  0  0.316835  0  0.982149  0  0  0.308429  0.303889  0  0.992403  0
H  H7  1  0.83499568  0.30542027  0.48501180  1  0  0.333029  0  0.91357  0  0  0.309231  0  0.988199  0  0  0.316816  0  0.982185  0  0  0.308414  0.303869  0  0.992445  0
H  H8  1  0.78231161  0.63910018  0.95784504  1  0  0.365255  0  0.89349  0  0  0.347411  0  0.949666  0  0  0.356144  0  0.942386  0  0  0.310177  0.341245  0  0.9549  0
H  H9  1  0.28231382  0.86089970  0.54215498  1  0  0.365283  0  0.893478  0  0  0.347448  0  0.949644  0  0  0.35618  0  0.942363  0  0  0.310194  0.341281  0  0.954883  0
H  H10  1  0.21768933  0.36090334  0.04215294  1  0  0.365262  0  0.893562  0  0  0.347414  0  0.94972  0  0  0.356147  0  0.942437  0  0  0.310181  0.341245  0  0.954957  0
H  H11  1  0.71769013  0.13909748  0.45784673  1  0  0.365263  0  0.893566  0  0  0.347375  0  0.949784  0  0  0.356107  0  0.942504  0  0  0.31017  0.341207  0  0.955017  0
H  H12  1  0.04564254  0.48330157  0.89768421  1  0  0.40839  0  0.889963  0  0  0.376682  0  0.95875  0  0  0.386543  0  0.944271  0  0  0.292172  0.369683  0  0.969037  0
H  H13  1  0.54564531  0.01670030  0.60231641  1  0  0.408305  0  0.890035  0  0  0.376699  0  0.958714  0  0  0.386561  0  0.944232  0  0  0.292205  0.369699  0  0.969004  0
H  H14  1  0.95435690  0.51669984  0.10231582  1  0  0.408373  0  0.890002  0  0  0.376662  0  0.958784  0  0  0.386524  0  0.944302  0  0  0.292152  0.369661  0  0.969073  0
H  H15  1  0.45435713  0.98330005  0.39768404  1  0  0.408395  0  0.889966  0  0  0.376673  0  0.95877  0  0  0.386534  0  0.94429  0  0  0.292162  0.369671  0  0.96906  0
H  H16  1  0.93263078  0.49474647  0.81611252  1  0  0.411534  0  0.877406  0  0  0.380183  0  0.952656  0  0  0.388573  0  0.940329  0  0  0.293764  0.374238  0  0.961381  0
H  H17  1  0.43262923  0.00525350  0.68388703  1  0  0.411393  0  0.877521  0  0  0.380032  0  0.952848  0  0  0.388423  0  0.940523  0  0  0.293705  0.374088  0  0.96157  0
H  H18  1  0.06736866  0.50525177  0.18388695  1  0  0.411655  0  0.877275  0  0  0.380267  0  0.952568  0  0  0.388658  0  0.940247  0  0  0.29381  0.374317  0  0.961302  0
H  H19  1  0.56737020  0.99474685  0.31611342  1  0  0.411556  0  0.877375  0  0  0.380207  0  0.952618  0  0  0.388598  0  0.94029  0  0  0.29379  0.374261  0  0.961343  0
C  C20  1  0.60741706  0.56208811  0.16223592  1  0  0.411881  0  3.873886  0  0  0.367329  0  4.162689  0  0  0.38586  0  4.175276  0  0  0.346907  0.354915  0  4.154412  0
C  C21  1  0.10741734  0.93791053  0.33776382  1  0  0.41187  0  3.873899  0  0  0.367277  0  4.162731  0  0  0.385809  0  4.175319  0  0  0.346823  0.354862  0  4.154452  0
C  C22  1  0.39258388  0.43791118  0.83776312  1  0  0.411893  0  3.873655  0  0  0.367414  0  4.162373  0  0  0.385944  0  4.174961  0  0  0.346961  0.355011  0  4.154077  0
C  C23  1  0.89258511  0.06208876  0.66223705  1  0  0.411858  0  3.873703  0  0  0.367361  0  4.162461  0  0  0.385891  0  4.175049  0  0  0.346934  0.354952  0  4.15418  0
C  C24  1  0.62368502  0.69156251  0.06960042  1  0  0.468224  0  3.785649  0  0  0.420769  0  4.07541  0  0  0.442971  0  4.082787  0  0  0.265151  0.406187  0  4.069827  0
C  C25  1  0.12368795  0.80843509  0.43039914  1  0  0.468078  0  3.785743  0  0  0.420686  0  4.075403  0  0  0.44289  0  4.082774  0  0  0.265112  0.406097  0  4.069837  0
C  C26  1  0.37631593  0.30843995  0.93039252  1  0  0.468235  0  3.785475  0  0  0.420814  0  4.075152  0  0  0.44302  0  4.082517  0  0  0.265223  0.406229  0  4.069569  0
C  C27  1  0.87631599  0.19155998  0.56960705  1  0  0.468186  0  3.785577  0  0  0.420775  0  4.075214  0  0  0.442982  0  4.082579  0  0  0.265193  0.406189  0  4.069636  0
C  C28  1  0.48032406  0.79217284  0.12444800  1  0  0.077459  0  3.72265  0  0  0.075558  0  3.995811  0  0  0.080893  0  4.00615  0  0  0.156283  0.071419  0  3.98962  0
C  C29  1  0.98032660  0.70782495  0.37555208  1  0  0.077696  0  3.722743  0  0  0.075761  0  3.995868  0  0  0.081083  0  4.00625  0  0  0.15634  0.071621  0  3.989677  0
C  C30  1  0.51967839  0.20782856  0.87555082  1  0  0.077373  0  3.722707  0  0  0.07549  0  3.995787  0  0  0.080809  0  4.006182  0  0  0.15624  0.071349  0  3.98959  0
C  C31  1  0.01967885  0.29217329  0.62444981  1  0  0.077377  0  3.722723  0  0  0.075524  0  3.99573  0  0  0.08084  0  4.006127  0  0  0.156264  0.071385  0  3.989535  0
C  C32  1  0.40599452  0.91635577  0.10195121  1  0  -0.035045  0  3.554205  0  0  -0.082673  0  3.841465  0  0  -0.092047  0  3.857034  0  0  0.172791  -0.077093  0  3.83202  0
C  C33  1  0.90599836  0.58364198  0.39804949  1  0  -0.035069  0  3.554272  0  0  -0.082685  0  3.841535  0  0  -0.092057  0  3.8571  0  0  0.172813  -0.077108  0  3.832096  0
C  C34  1  0.59400191  0.08364564  0.89804821  1  0  -0.035134  0  3.554276  0  0  -0.082766  0  3.841533  0  0  -0.092146  0  3.857104  0  0  0.172751  -0.077179  0  3.832089  0
C  C35  1  0.09400258  0.41635520  0.60195161  1  0  -0.035095  0  3.554256  0  0  -0.082731  0  3.841495  0  0  -0.092112  0  3.857069  0  0  0.172771  -0.077147  0  3.832052  0
N  N36  1  0.63615470  0.46249701  0.20117876  1  0  -0.38117  0  2.935751  0  0  -0.365179  0  3.240317  0  0  -0.37848  0  3.250003  0  0  -0.274143  -0.356557  0  3.233707  0
N  N37  1  0.13615450  0.03750165  0.29882116  1  0  -0.381158  0  2.935717  0  0  -0.365167  0  3.24031  0  0  -0.378467  0  3.249988  0  0  -0.274118  -0.356545  0  3.233697  0
N  N38  1  0.36384774  0.53750334  0.79881745  1  0  -0.381192  0  2.935531  0  0  -0.36523  0  3.240104  0  0  -0.378526  0  3.249778  0  0  -0.274167  -0.356614  0  3.233511  0
N  N39  1  0.86384795  0.96249764  0.70118214  1  0  -0.381188  0  2.935573  0  0  -0.36521  0  3.240125  0  0  -0.378514  0  3.249817  0  0  -0.274168  -0.356589  0  3.233523  0
N  N40  1  0.52725373  0.50576585  0.27421260  1  0  -0.077906  0  3.045437  0  0  -0.067801  0  3.368824  0  0  -0.064657  0  3.377389  0  0  -0.147496  -0.069512  0  3.362518  0
N  N41  1  0.02725278  0.99423275  0.22578716  1  0  -0.077887  0  3.045331  0  0  -0.067781  0  3.368706  0  0  -0.064637  0  3.377274  0  0  -0.147515  -0.069493  0  3.3624  0
N  N42  1  0.47274872  0.49423238  0.72578383  1  0  -0.07794  0  3.04534  0  0  -0.06783  0  3.368726  0  0  -0.064688  0  3.377296  0  0  -0.147554  -0.069547  0  3.362434  0
N  N43  1  0.97274816  0.00576866  0.77421590  1  0  -0.077899  0  3.045319  0  0  -0.067787  0  3.368698  0  0  -0.064643  0  3.377266  0  0  -0.147527  -0.069507  0  3.362407  0
N  N44  1  0.43261950  0.62471472  0.28355172  1  0  -0.111573  0  2.815276  0  0  -0.118477  0  3.112023  0  0  -0.118449  0  3.121191  0  0  -0.074714  -0.118451  0  3.105999  0
N  N45  1  0.93261805  0.87528410  0.21644917  1  0  -0.111612  0  2.815181  0  0  -0.118513  0  3.111913  0  0  -0.118486  0  3.121081  0  0  -0.074705  -0.118488  0  3.105889  0
N  N46  1  0.56737994  0.37528245  0.71644513  1  0  -0.111585  0  2.815434  0  0  -0.118494  0  3.112184  0  0  -0.118466  0  3.121352  0  0  -0.074659  -0.118461  0  3.106164  0
N  N47  1  0.06737988  0.12471837  0.78355469  1  0  -0.111608  0  2.815401  0  0  -0.11852  0  3.112151  0  0  -0.118492  0  3.121316  0  0  -0.074677  -0.118484  0  3.106124  0
N  N48  1  0.48116735  0.66166933  0.21306014  1  0  0.110876  0  3.591308  0  0  0.164011  0  3.867649  0  0  0.155516  0  3.885284  0  0  -0.004122  0.16912  0  3.855985  0
N  N49  1  0.98117023  0.83832952  0.28694013  1  0  0.110885  0  3.59129  0  0  0.164029  0  3.867637  0  0  0.155537  0  3.885269  0  0  -0.004086  0.169135  0  3.855975  0
N  N50  1  0.51883359  0.33833102  0.78693728  1  0  0.110862  0  3.59145  0  0  0.163986  0  3.867768  0  0  0.155495  0  3.885404  0  0  -0.004166  0.169094  0  3.856096  0
N  N51  1  0.01883221  0.16166977  0.71306255  1  0  0.110848  0  3.591436  0  0  0.163977  0  3.867756  0  0  0.155487  0  3.885393  0  0  -0.004124  0.169088  0  3.856084  0
N  N52  1  0.68455830  0.57657691  0.09047805  1  0  -0.463761  0  2.986624  0  0  -0.418791  0  3.24766  0  0  -0.439008  0  3.255673  0  0  -0.306135  -0.405381  0  3.24194  0
N  N53  1  0.18456294  0.92342178  0.40952168  1  0  -0.463737  0  2.986653  0  0  -0.418735  0  3.247641  0  0  -0.438954  0  3.255652  0  0  -0.306068  -0.405321  0  3.241922  0
N  N54  1  0.31544264  0.42342450  0.90952198  1  0  -0.463667  0  2.986684  0  0  -0.418799  0  3.247745  0  0  -0.439013  0  3.255753  0  0  -0.306166  -0.405391  0  3.242018  0
N  N55  1  0.81544100  0.07657646  0.59047839  1  0  -0.463577  0  2.986675  0  0  -0.418732  0  3.247726  0  0  -0.438946  0  3.255734  0  0  -0.306136  -0.405323  0  3.242006  0
N  N56  1  0.41233607  0.77630504  0.19575535  1  0  -0.153459  0  2.96598  0  0  -0.158952  0  3.250302  0  0  -0.157049  0  3.259726  0  0  -0.154405  -0.160205  0  3.244504  0
N  N57  1  0.91233877  0.72369377  0.30424555  1  0  -0.153594  0  2.966215  0  0  -0.159086  0  3.250545  0  0  -0.157175  0  3.259958  0  0  -0.1545  -0.160334  0  3.244741  0
N  N58  1  0.58766337  0.22369531  0.80424085  1  0  -0.153353  0  2.965868  0  0  -0.158863  0  3.250198  0  0  -0.156952  0  3.259611  0  0  -0.154338  -0.160128  0  3.244436  0
N  N59  1  0.08766368  0.27630553  0.69575835  1  0  -0.153355  0  2.965934  0  0  -0.158885  0  3.250261  0  0  -0.156974  0  3.259677  0  0  -0.154412  -0.160149  0  3.244497  0
N  N60  1  0.69401154  0.71426754  0.99964872  1  0  -0.606277  0  3.106275  0  0  -0.56743  0  3.339918  0  0  -0.589323  0  3.338143  0  0  -0.540957  -0.552516  0  3.340882  0
N  N61  1  0.19401522  0.78573335  0.50035150  1  0  -0.606294  0  3.106273  0  0  -0.567494  0  3.339899  0  0  -0.589384  0  3.338118  0  0  -0.540946  -0.552578  0  3.340866  0
N  N62  1  0.30598489  0.28573493  0.00035453  1  0  -0.606329  0  3.106033  0  0  -0.567417  0  3.339567  0  0  -0.58931  0  3.337784  0  0  -0.540999  -0.552493  0  3.340523  0
N  N63  1  0.80598422  0.21426700  0.49964591  1  0  -0.606334  0  3.106114  0  0  -0.567389  0  3.339676  0  0  -0.589284  0  3.337895  0  0  -0.540961  -0.552464  0  3.340634  0
N  N64  1  0.28351860  0.88985357  0.03052687  1  0  0.47707  0  3.986433  0  0  0.50933  0  4.285231  0  0  0.531863  0  4.295101  0  0  -0.000776  0.494197  0  4.278492  0
N  N65  1  0.78352084  0.61014623  0.46947303  1  0  0.477086  0  3.986475  0  0  0.509331  0  4.285286  0  0  0.531868  0  4.295149  0  0  -0.000775  0.494197  0  4.27855  0
N  N66  1  0.71647933  0.11014784  0.96947195  1  0  0.477256  0  3.98636  0  0  0.509497  0  4.285174  0  0  0.532039  0  4.295033  0  0  -0.000708  0.494354  0  4.278439  0
N  N67  1  0.21647860  0.38985201  0.53052766  1  0  0.477245  0  3.986311  0  0  0.509485  0  4.285117  0  0  0.532027  0  4.294977  0  0  -0.000703  0.494344  0  4.27838  0
N  N68  1  0.44553722  0.05180900  0.15249191  1  0  0.485366  0  4.001215  0  0  0.513288  0  4.305351  0  0  0.535449  0  4.316835  0  0  -0.009728  0.498387  0  4.297835  0
N  N69  1  0.94553715  0.44818983  0.34750733  1  0  0.485178  0  4.00117  0  0  0.513087  0  4.305343  0  0  0.53525  0  4.316823  0  0  -0.009809  0.498192  0  4.297824  0
N  N70  1  0.55446071  0.94819135  0.84750733  1  0  0.485336  0  4.001288  0  0  0.513249  0  4.305443  0  0  0.535414  0  4.316919  0  0  -0.009737  0.498357  0  4.297921  0
N  N71  1  0.05446229  0.55180946  0.65249232  1  0  0.48532  0  4.001266  0  0  0.513235  0  4.305424  0  0  0.535401  0  4.316901  0  0  -0.00976  0.498336  0  4.297908  0
O  O72  1  0.23686444  0.98377061  0.99616895  1  0  -0.441093  0  1.802426  0  0  -0.427916  0  2.030819  0  0  -0.442012  0  2.027076  0  0  -0.202512  -0.417829  0  2.033163  0
O  O73  1  0.73686739  0.51622819  0.50383149  1  0  -0.441108  0  1.802413  0  0  -0.427934  0  2.030825  0  0  -0.442019  0  2.02706  0  0  -0.202519  -0.417849  0  2.033169  0
O  O74  1  0.76313049  0.01623185  0.00383005  1  0  -0.441112  0  1.802389  0  0  -0.427973  0  2.030862  0  0  -0.442023  0  2.027026  0  0  -0.202508  -0.417878  0  2.033207  0
O  O75  1  0.26313055  0.48376899  0.49616900  1  0  -0.441154  0  1.802389  0  0  -0.427999  0  2.030844  0  0  -0.442064  0  2.027034  0  0  -0.20252  -0.417899  0  2.033185  0
O  O76  1  0.22878903  0.76277309  0.99940532  1  0  -0.402862  0  1.741371  0  0  -0.388726  0  1.960522  0  0  -0.402578  0  1.956897  0  0  -0.198576  -0.37829  0  1.962348  0
O  O77  1  0.72878928  0.73722570  0.50059453  1  0  -0.40286  0  1.741406  0  0  -0.388706  0  1.960546  0  0  -0.402561  0  1.956927  0  0  -0.198559  -0.378269  0  1.96237  0
O  O78  1  0.77121041  0.23722937  0.00059308  1  0  -0.402909  0  1.741317  0  0  -0.388764  0  1.960495  0  0  -0.402626  0  1.956878  0  0  -0.198578  -0.378319  0  1.962314  0
O  O79  1  0.27121166  0.26277148  0.49940657  1  0  -0.402879  0  1.741314  0  0  -0.388747  0  1.960466  0  0  -0.402602  0  1.956843  0  0  -0.198584  -0.378302  0  1.962287  0
O  O80  1  0.35807015  0.15886832  0.14292356  1  0  -0.434096  0  1.784327  0  0  -0.417904  0  2.014689  0  0  -0.430856  0  2.010018  0  0  -0.193439  -0.409006  0  2.017245  0
O  O81  1  0.85806841  0.34113046  0.35707691  1  0  -0.433952  0  1.78416  0  0  -0.41774  0  2.014507  0  0  -0.430703  0  2.009859  0  0  -0.193366  -0.408827  0  2.017025  0
O  O82  1  0.64192778  0.84113203  0.85707568  1  0  -0.434042  0  1.784383  0  0  -0.417851  0  2.014748  0  0  -0.430806  0  2.010075  0  0  -0.193423  -0.408958  0  2.017316  0
O  O83  1  0.14192803  0.65886777  0.64292377  1  0  -0.434042  0  1.784398  0  0  -0.417851  0  2.014762  0  0  -0.430804  0  2.010089  0  0  -0.193416  -0.408956  0  2.017333  0
O  O84  1  0.57576967  0.06524740  0.21121326  1  0  -0.503215  0  1.830346  0  0  -0.482695  0  2.070433  0  0  -0.500349  0  2.067333  0  0  -0.256188  -0.470034  0  2.072011  0
O  O85  1  0.07577003  0.43475123  0.28878545  1  0  -0.503202  0  1.83043  0  0  -0.482657  0  2.070489  0  0  -0.500308  0  2.067388  0  0  -0.256199  -0.469996  0  2.072067  0
O  O86  1  0.42422677  0.93475400  0.78878555  1  0  -0.503249  0  1.830358  0  0  -0.482714  0  2.070439  0  0  -0.500364  0  2.067332  0  0  -0.25621  -0.470055  0  2.07202  0
O  O87  1  0.92422791  0.56524701  0.71121462  1  0  -0.503248  0  1.830348  0  0  -0.482703  0  2.070397  0  0  -0.500355  0  2.067293  0  0  -0.256193  -0.470042  0  2.071986  0
O  O88  1  0.91820323  0.51364776  0.87753409  1  0  -0.817032  0  1.803154  0  0  -0.7662  0  1.960528  0  0  -0.78287  0  1.933629  0  0  -0.601812  -0.754452  0  1.979545  0
O  O89  1  0.41820396  0.98635324  0.62246548  1  0  -0.816828  0  1.803283  0  0  -0.766074  0  1.960619  0  0  -0.782748  0  1.933717  0  0  -0.601787  -0.754324  0  1.979635  0
O  O90  1  0.08179471  0.48635153  0.12246556  1  0  -0.817138  0  1.803033  0  0  -0.766289  0  1.960415  0  0  -0.782966  0  1.933504  0  0  -0.601843  -0.754547  0  1.97944  0
O  O91  1  0.58179698  0.01364922  0.37753413  1  0  -0.81705  0  1.80314  0  0  -0.766213  0  1.960538  0  0  -0.782883  0  1.933636  0  0  -0.601839  -0.754473  0  1.979555  0
