# generated using pymatgen
data_CdH18C24SN3O4
_symmetry_space_group_name_H-M   'P 1'
_cell_length_a   9.48060886
_cell_length_b   11.06392261
_cell_length_c   11.44920928
_cell_angle_alpha   96.19310943
_cell_angle_beta   103.80479229
_cell_angle_gamma   106.09140840
_symmetry_Int_Tables_number   1
_chemical_formula_structural   CdH18C24SN3O4
_chemical_formula_sum   'Cd2 H36 C48 S2 N6 O8'
_cell_volume   1100.89587163
_cell_formula_units_Z   2
loop_
 _symmetry_equiv_pos_site_id
 _symmetry_equiv_pos_as_xyz
  1  'x, y, z'
loop_
 _atom_site_type_symbol
 _atom_site_label
 _atom_site_symmetry_multiplicity
 _atom_site_fract_x
 _atom_site_fract_y
 _atom_site_fract_z
 _atom_site_occupancy
 _atom_site_hle17_bader_spin_density
 _atom_site_hle17_ddec_charge
 _atom_site_hle17_ddec_spin_density
 _atom_site_hle17_ddec_sum_bond_order
 _atom_site_hle17_magmom
 _atom_site_hse06_10hf_bader_spin_density
 _atom_site_hse06_10hf_ddec_charge
 _atom_site_hse06_10hf_ddec_spin_density
 _atom_site_hse06_10hf_ddec_sum_bond_order
 _atom_site_hse06_10hf_magmom
 _atom_site_hse06_bader_spin_density
 _atom_site_hse06_ddec_charge
 _atom_site_hse06_ddec_spin_density
 _atom_site_hse06_ddec_sum_bond_order
 _atom_site_hse06_magmom
 _atom_site_pbe_bader_spin_density
 _atom_site_pbe_cm5_charge
 _atom_site_pbe_ddec_charge
 _atom_site_pbe_ddec_spin_density
 _atom_site_pbe_ddec_sum_bond_order
 _atom_site_pbe_magmom
Cd  Cd0  1  0.45150367  0.95674046  0.83485634  1  0  1.138403  0  1.700402  0  0  0.943151  0  2.154205  0  0  1.002883  0  2.100513  0  0  0.777709  0.900847  0  2.189632  0
Cd  Cd1  1  0.54849650  0.04326036  0.16514692  1  0  1.138364  0  1.700487  0  0  0.943104  0  2.154292  0  0  1.002836  0  2.1006  0  0  0.777676  0.900802  0  2.189726  0
H  H2  1  0.10580419  0.83299220  0.58593234  1  0  0.112594  0  0.964884  0  0  0.120767  0  1.02849  0  0  0.123249  0  1.028056  0  0  0.104291  0.119101  0  1.028441  0
H  H3  1  0.89419454  0.16700767  0.41406790  1  0  0.112612  0  0.964866  0  0  0.120784  0  1.02847  0  0  0.123268  0  1.028035  0  0  0.104297  0.119118  0  1.028419  0
H  H4  1  0.92191858  0.80704146  0.38165007  1  0  0.085129  0  0.952094  0  0  0.097971  0  1.010127  0  0  0.100341  0  1.009836  0  0  0.096625  0.095782  0  1.011639  0
H  H5  1  0.07808087  0.19296031  0.61835052  1  0  0.085121  0  0.952112  0  0  0.097956  0  1.010154  0  0  0.100326  0  1.009862  0  0  0.09662  0.095768  0  1.011667  0
H  H6  1  0.98342515  0.95312784  0.23814367  1  0  0.093941  0  0.949122  0  0  0.108039  0  1.003996  0  0  0.110064  0  1.003804  0  0  0.102294  0.106695  0  1.00388  0
H  H7  1  0.01657503  0.04687585  0.76185902  1  0  0.093926  0  0.94908  0  0  0.108036  0  1.003948  0  0  0.110059  0  1.003761  0  0  0.102268  0.106694  0  1.003837  0
H  H8  1  0.23463090  0.12134365  0.28655837  1  0  0.133329  0  0.962907  0  0  0.142611  0  1.023105  0  0  0.146414  0  1.020248  0  0  0.110184  0.140003  0  1.025291  0
H  H9  1  0.76536855  0.87866100  0.71344602  1  0  0.133365  0  0.962861  0  0  0.142603  0  1.023117  0  0  0.146404  0  1.020264  0  0  0.110198  0.139992  0  1.025307  0
H  H10  1  0.78771383  0.35446661  0.66570356  1  0  0.146502  0  0.967293  0  0  0.154486  0  1.028573  0  0  0.157209  0  1.028087  0  0  0.119209  0.15278  0  1.028538  0
H  H11  1  0.21228707  0.64553037  0.33429595  1  0  0.146524  0  0.967265  0  0  0.154495  0  1.028569  0  0  0.15722  0  1.02808  0  0  0.119217  0.152792  0  1.028538  0
H  H12  1  0.84119886  0.16491323  0.99983499  1  0  0.148108  0  0.952386  0  0  0.154898  0  1.00908  0  0  0.158842  0  1.0052  0  0  0.134522  0.15206  0  1.011771  0
H  H13  1  0.15880023  0.83508759  0.00016543  1  0  0.148117  0  0.952356  0  0  0.154908  0  1.009048  0  0  0.158852  0  1.005168  0  0  0.134532  0.15207  0  1.011736  0
H  H14  1  0.50079641  0.20899514  0.36273804  1  0  0.103384  0  0.938706  0  0  0.116072  0  1.00704  0  0  0.117957  0  1.004446  0  0  0.120583  0.114768  0  1.008824  0
H  H15  1  0.49920087  0.79100089  0.63726065  1  0  0.103354  0  0.93878  0  0  0.116089  0  1.00707  0  0  0.11798  0  1.004475  0  0  0.120607  0.114788  0  1.008852  0
H  H16  1  0.66108417  0.25646208  0.49013529  1  0  0.089607  0  0.930045  0  0  0.105568  0  0.992778  0  0  0.105846  0  0.993684  0  0  0.114845  0.105237  0  0.99263  0
H  H17  1  0.33891384  0.74353587  0.50986287  1  0  0.089574  0  0.930042  0  0  0.105548  0  0.992794  0  0  0.105828  0  0.993699  0  0  0.114841  0.10522  0  0.992646  0
H  H18  1  0.52808314  0.38550453  0.67465992  1  0  0.07713  0  0.993242  0  0  0.085862  0  1.061983  0  0  0.087697  0  1.062408  0  0  0.09015  0.08465  0  1.061457  0
H  H19  1  0.47191379  0.61449342  0.32533628  1  0  0.077133  0  0.993231  0  0  0.085874  0  1.061962  0  0  0.087698  0  1.062398  0  0  0.090135  0.084661  0  1.061439  0
H  H20  1  0.49661867  0.39759973  0.29435091  1  0  0.115599  0  0.948929  0  0  0.123672  0  1.011439  0  0  0.127164  0  1.009636  0  0  0.10557  0.121154  0  1.012995  0
H  H21  1  0.50337936  0.60239822  0.70564463  1  0  0.115634  0  0.948837  0  0  0.123707  0  1.011349  0  0  0.127199  0  1.009544  0  0  0.105581  0.121192  0  1.012899  0
H  H22  1  0.14823457  0.53846571  0.81511201  1  0  0.101607  0  0.946826  0  0  0.113176  0  1.014683  0  0  0.11518  0  1.013984  0  0  0.093852  0.111912  0  1.015029  0
H  H23  1  0.85176780  0.46153222  0.18488353  1  0  0.101616  0  0.946843  0  0  0.113139  0  1.01472  0  0  0.115144  0  1.014021  0  0  0.093831  0.111873  0  1.015066  0
H  H24  1  0.99601783  0.60794063  0.79669619  1  0  0.098481  0  0.933851  0  0  0.112202  0  0.994901  0  0  0.114541  0  0.99296  0  0  0.092299  0.110398  0  0.99664  0
H  H25  1  0.00398742  0.39205921  0.20330187  1  0  0.098454  0  0.933843  0  0  0.112158  0  0.994875  0  0  0.114501  0  0.99293  0  0  0.092278  0.110352  0  0.996619  0
H  H26  1  0.21222221  0.44853632  0.63699839  1  0  0.091138  0  0.955893  0  0  0.104862  0  1.013284  0  0  0.107585  0  1.012243  0  0  0.098837  0.102583  0  1.014978  0
H  H27  1  0.78777871  0.55146066  0.36299763  1  0  0.091152  0  0.955876  0  0  0.104864  0  1.01328  0  0  0.107587  0  1.012237  0  0  0.098817  0.102584  0  1.014969  0
H  H28  1  0.85989610  0.62938250  0.58692676  1  0  0.096823  0  0.94335  0  0  0.10989  0  0.999261  0  0  0.112611  0  0.999016  0  0  0.100275  0.108017  0  0.999686  0
H  H29  1  0.14010518  0.37061544  0.41306856  1  0  0.096795  0  0.943334  0  0  0.10985  0  0.999271  0  0  0.11257  0  0.999027  0  0  0.100261  0.107981  0  0.999689  0
H  H30  1  0.71515553  0.80486239  0.16569242  1  0  0.106648  0  0.927151  0  0  0.121774  0  0.98632  0  0  0.124259  0  0.984515  0  0  0.098169  0.120053  0  0.987517  0
H  H31  1  0.28484170  0.19513651  0.83431703  1  0  0.106631  0  0.927197  0  0  0.12179  0  0.986362  0  0  0.124277  0  0.984555  0  0  0.098161  0.120074  0  0.987552  0
H  H32  1  0.82905673  0.76251464  0.07418445  1  0  0.089167  0  0.972826  0  0  0.098936  0  1.04389  0  0  0.100979  0  1.042826  0  0  0.088166  0.097499  0  1.0445  0
H  H33  1  0.17094557  0.23748616  0.92582534  1  0  0.089125  0  0.97284  0  0  0.098904  0  1.043928  0  0  0.100946  0  1.042866  0  0  0.088158  0.097469  0  1.044541  0
H  H34  1  0.74207934  0.55312968  0.94044103  1  0  0.077777  0  0.965646  0  0  0.086219  0  1.033565  0  0  0.089285  0  1.032005  0  0  0.089414  0.083848  0  1.035106  0
H  H35  1  0.25791905  0.44687498  0.05955790  1  0  0.077795  0  0.965638  0  0  0.086228  0  1.033565  0  0  0.089285  0  1.032014  0  0  0.089411  0.083859  0  1.035109  0
H  H36  1  0.43970366  0.66748679  0.12277341  1  0  0.0832  0  0.982627  0  0  0.092387  0  1.050341  0  0  0.094456  0  1.05065  0  0  0.090472  0.09097  0  1.050032  0
H  H37  1  0.56029293  0.33251596  0.87722234  1  0  0.083184  0  0.982579  0  0  0.092366  0  1.050301  0  0  0.094435  0  1.050609  0  0  0.090468  0.09095  0  1.049991  0
C  C38  1  0.27406367  0.99246669  0.55091077  1  0  0.158862  0  3.839628  0  0  0.153744  0  4.089847  0  0  0.157626  0  4.112801  0  0  0.086678  0.150967  0  4.07555  0
C  C39  1  0.72593578  0.00753221  0.44909039  1  0  0.158933  0  3.839527  0  0  0.153751  0  4.089827  0  0  0.15767  0  4.112732  0  0  0.086689  0.150938  0  4.075578  0
C  C40  1  0.13392090  0.89452486  0.52133754  1  0  -0.140403  0  3.734512  0  0  -0.158327  0  3.986781  0  0  -0.161046  0  4.007797  0  0  -0.093623  -0.155631  0  3.972385  0
C  C41  1  0.86608036  0.10547595  0.47866419  1  0  -0.140433  0  3.734497  0  0  -0.158335  0  3.986775  0  0  -0.161068  0  4.007782  0  0  -0.093629  -0.155623  0  3.972381  0
C  C42  1  0.03240329  0.88177901  0.40737223  1  0  -0.078343  0  3.801633  0  0  -0.097236  0  4.063196  0  0  -0.100503  0  4.088243  0  0  -0.099337  -0.096338  0  4.048084  0
C  C43  1  0.96759688  0.11822181  0.59262841  1  0  -0.078361  0  3.801672  0  0  -0.097253  0  4.063239  0  0  -0.10052  0  4.088289  0  0  -0.099336  -0.096354  0  4.048125  0
C  C44  1  0.06756110  0.96407869  0.32523083  1  0  -0.063892  0  3.770789  0  0  -0.08301  0  4.030743  0  0  -0.085328  0  4.054841  0  0  -0.094006  -0.080969  0  4.015158  0
C  C45  1  0.93243727  0.03592309  0.67477042  1  0  -0.06388  0  3.770771  0  0  -0.083003  0  4.030707  0  0  -0.08532  0  4.054803  0  0  -0.093996  -0.080967  0  4.015129  0
C  C46  1  0.20718307  0.06080178  0.35230482  1  0  -0.144216  0  3.724041  0  0  -0.163489  0  3.97705  0  0  -0.166634  0  3.996987  0  0  -0.094836  -0.162966  0  3.964988  0
C  C47  1  0.79281783  0.93920095  0.64769879  1  0  -0.144229  0  3.724176  0  0  -0.163476  0  3.977199  0  0  -0.166621  0  3.997136  0  0  -0.09483  -0.162945  0  3.965131  0
C  C48  1  0.30932574  0.07229538  0.46629257  1  0  0.099841  0  3.773638  0  0  0.088653  0  4.020481  0  0  0.091897  0  4.043461  0  0  0.090628  0.086903  0  4.005928  0
C  C49  1  0.69067443  0.92770544  0.53370894  1  0  0.099815  0  3.773712  0  0  0.088602  0  4.020537  0  0  0.091837  0  4.043505  0  0  0.090632  0.086862  0  4.005986  0
C  C50  1  0.50569702  0.12511397  0.63417819  1  0  0.281729  0  3.746362  0  0  0.241276  0  4.021397  0  0  0.259373  0  4.033456  0  0  0.226863  0.229605  0  4.013434  0
C  C51  1  0.49430243  0.87488493  0.36582210  1  0  0.281719  0  3.746432  0  0  0.241219  0  4.021441  0  0  0.259314  0  4.033505  0  0  0.226842  0.229553  0  4.013475  0
C  C52  1  0.65185878  0.18517487  0.72641288  1  0  0.111116  0  3.848387  0  0  0.109657  0  4.104904  0  0  0.110855  0  4.125942  0  0  0.089642  0.108465  0  4.091266  0
C  C53  1  0.34814140  0.81482595  0.27358775  1  0  0.111193  0  3.848375  0  0  0.10974  0  4.104886  0  0  0.110938  0  4.125925  0  0  0.089692  0.108553  0  4.091251  0
C  C54  1  0.77268106  0.29167863  0.73132472  1  0  -0.22442  0  3.634382  0  0  -0.248705  0  3.910149  0  0  -0.248432  0  3.925716  0  0  -0.083707  -0.248615  0  3.899173  0
C  C55  1  0.22731840  0.70832027  0.26867382  1  0  -0.224477  0  3.634372  0  0  -0.248759  0  3.910133  0  0  -0.248486  0  3.925698  0  0  -0.083725  -0.248678  0  3.899174  0
C  C56  1  0.80449133  0.19006276  0.91023202  1  0  0.061123  0  3.58935  0  0  0.024601  0  3.867017  0  0  0.035298  0  3.878314  0  0  0.067349  0.017254  0  3.859434  0
C  C57  1  0.19550848  0.80993710  0.08976932  1  0  0.061149  0  3.589311  0  0  0.024642  0  3.866979  0  0  0.035338  0  3.878278  0  0  0.067351  0.017303  0  3.859381  0
C  C58  1  0.53920869  0.24829424  0.46095702  1  0  -0.035461  0  3.641916  0  0  -0.102537  0  3.889248  0  0  -0.097556  0  3.898951  0  0  -0.047882  -0.105804  0  3.882786  0
C  C59  1  0.46079077  0.75170466  0.53904153  1  0  -0.035359  0  3.641903  0  0  -0.102568  0  3.889271  0  0  -0.097588  0  3.898978  0  0  -0.047888  -0.105838  0  3.882813  0
C  C60  1  0.51499979  0.37709530  0.48209196  1  0  0.067533  0  3.747788  0  0  0.085626  0  3.988985  0  0  0.084638  0  4.013738  0  0  -0.015213  0.086861  0  3.972051  0
C  C61  1  0.48500039  0.62290265  0.51790664  1  0  0.067451  0  3.747878  0  0  0.085604  0  3.989033  0  0  0.084595  0  4.013812  0  0  -0.015252  0.086832  0  3.972108  0
C  C62  1  0.51612710  0.43511707  0.59734671  1  0  -0.126388  0  3.772221  0  0  -0.145756  0  4.02068  0  0  -0.148695  0  4.043541  0  0  -0.099713  -0.143712  0  4.00486  0
C  C63  1  0.48387129  0.56488184  0.40264900  1  0  -0.126394  0  3.772198  0  0  -0.145782  0  4.020636  0  0  -0.148706  0  4.04351  0  0  -0.099692  -0.143736  0  4.004821  0
C  C64  1  0.49777227  0.44262606  0.38433603  1  0  -0.107074  0  3.736144  0  0  -0.124889  0  3.980914  0  0  -0.127327  0  4.001662  0  0  -0.087335  -0.123211  0  3.967323  0
C  C65  1  0.50222612  0.55737285  0.61565968  1  0  -0.107089  0  3.736164  0  0  -0.124907  0  3.980892  0  0  -0.12734  0  4.001651  0  0  -0.087354  -0.123233  0  3.967301  0
C  C66  1  0.21131195  0.73111533  0.78603422  1  0  0.680525  0  3.88442  0  0  0.641173  0  4.174493  0  0  0.673665  0  4.170345  0  0  0.1917  0.619218  0  4.175994  0
C  C67  1  0.78868932  0.26887973  0.21396167  1  0  0.680509  0  3.88436  0  0  0.641093  0  4.174498  0  0  0.673583  0  4.170354  0  0  0.191636  0.619142  0  4.175993  0
C  C68  1  0.09235478  0.59867294  0.76298884  1  0  -0.307355  0  3.722494  0  0  -0.352987  0  3.968849  0  0  -0.357947  0  3.9757  0  0  -0.167146  -0.349281  0  3.9636  0
C  C69  1  0.90764722  0.40132403  0.23700740  1  0  -0.307346  0  3.722654  0  0  -0.352782  0  3.968737  0  0  -0.357747  0  3.975596  0  0  -0.167042  -0.349072  0  3.963481  0
C  C70  1  0.04036993  0.54308549  0.62789817  1  0  0.100021  0  3.770119  0  0  0.120851  0  4.007534  0  0  0.120972  0  4.031643  0  0  -0.019161  0.121082  0  3.990772  0
C  C71  1  0.95962810  0.45691246  0.37209649  1  0  0.100172  0  3.770086  0  0  0.120931  0  4.007522  0  0  0.121053  0  4.031634  0  0  -0.019142  0.121162  0  3.990761  0
C  C72  1  0.11806890  0.47025747  0.57703225  1  0  -0.10992  0  3.753636  0  0  -0.131763  0  4.002992  0  0  -0.133383  0  4.023777  0  0  -0.095099  -0.131  0  3.990022  0
C  C73  1  0.88192983  0.52973952  0.42296508  1  0  -0.110053  0  3.753567  0  0  -0.131885  0  4.002967  0  0  -0.133506  0  4.02375  0  0  -0.095137  -0.131124  0  3.98999  0
C  C74  1  0.92142379  0.57224313  0.54911167  1  0  -0.131998  0  3.756496  0  0  -0.148838  0  4.003016  0  0  -0.151548  0  4.024288  0  0  -0.098309  -0.147138  0  3.989038  0
C  C75  1  0.07857532  0.42775482  0.45088496  1  0  -0.13202  0  3.756435  0  0  -0.148852  0  4.002987  0  0  -0.151561  0  4.02426  0  0  -0.098306  -0.147156  0  3.989023  0
C  C76  1  0.65822740  0.83907022  0.98060013  1  0  0.713334  0  3.84099  0  0  0.6716  0  4.127992  0  0  0.704958  0  4.122153  0  0  0.203925  0.648603  0  4.131878  0
C  C77  1  0.34177710  0.16093633  0.01940896  1  0  0.713112  0  3.840921  0  0  0.671464  0  4.127855  0  0  0.704819  0  4.122022  0  0  0.203882  0.648458  0  4.131749  0
C  C78  1  0.71299457  0.76119300  0.07417260  1  0  -0.304493  0  3.702198  0  0  -0.347708  0  3.944833  0  0  -0.352587  0  3.950649  0  0  -0.164271  -0.344278  0  3.940593  0
C  C79  1  0.28700451  0.23881070  0.92583248  1  0  -0.304343  0  3.702177  0  0  -0.347656  0  3.944915  0  0  -0.352531  0  3.950724  0  0  -0.164244  -0.344232  0  3.940689  0
C  C80  1  0.60520759  0.62559240  0.03839527  1  0  0.119675  0  3.747223  0  0  0.139999  0  3.980242  0  0  0.140404  0  4.004484  0  0  -0.011054  0.140262  0  3.963444  0
C  C81  1  0.39478682  0.37441036  0.96160266  1  0  0.119764  0  3.747215  0  0  0.140046  0  3.980333  0  0  0.140452  0  4.004575  0  0  -0.01105  0.140308  0  3.96354  0
C  C82  1  0.63620427  0.53002357  0.96750719  1  0  -0.122837  0  3.768927  0  0  -0.141025  0  4.016495  0  0  -0.143427  0  4.037696  0  0  -0.098205  -0.139443  0  4.001944  0
C  C83  1  0.36379306  0.46998110  0.03248804  1  0  -0.122931  0  3.769039  0  0  -0.141095  0  4.016613  0  0  -0.143489  0  4.03782  0  0  -0.098197  -0.139512  0  4.002068  0
C  C84  1  0.46709576  0.59364006  0.06973745  1  0  -0.117901  0  3.746482  0  0  -0.134925  0  3.990865  0  0  -0.13715  0  4.012491  0  0  -0.098434  -0.133412  0  3.975666  0
C  C85  1  0.53289867  0.40636558  0.93025817  1  0  -0.117945  0  3.746297  0  0  -0.134939  0  3.990699  0  0  -0.137165  0  4.012328  0  0  -0.098461  -0.133427  0  3.975501  0
S  S86  1  0.91190971  0.32060539  0.86635149  1  0  0.187811  0  2.605421  0  0  0.201038  0  2.9398  0  0  0.197971  0  2.943922  0  0  0.138806  0.203005  0  2.937271  0
S  S87  1  0.08809083  0.67939351  0.13364902  1  0  0.187822  0  2.605441  0  0  0.201045  0  2.939814  0  0  0.19798  0  2.943936  0  0  0.138809  0.203012  0  2.937286  0
N  N88  1  0.39768904  0.02869606  0.65441321  1  0  -0.474506  0  3.169366  0  0  -0.411872  0  3.455732  0  0  -0.434228  0  3.468623  0  0  -0.353714  -0.396494  0  3.446297  0
N  N89  1  0.60231221  0.97130188  0.34558734  1  0  -0.47452  0  3.169378  0  0  -0.41186  0  3.45574  0  0  -0.434227  0  3.468619  0  0  -0.35368  -0.396472  0  3.446317  0
N  N90  1  0.45735188  0.15406978  0.52112244  1  0  -0.137227  0  3.47934  0  0  -0.052166  0  3.701388  0  0  -0.068702  0  3.724552  0  0  -0.231741  -0.041269  0  3.685771  0
N  N91  1  0.54264721  0.84593104  0.47887885  1  0  -0.137247  0  3.479331  0  0  -0.052023  0  3.701236  0  0  -0.068557  0  3.724401  0  0  -0.231758  -0.041129  0  3.685619  0
N  N92  1  0.67305722  0.12976667  0.82937558  1  0  -0.328774  0  3.236597  0  0  -0.269643  0  3.511384  0  0  -0.287639  0  3.529204  0  0  -0.321131  -0.256228  0  3.497963  0
N  N93  1  0.32694259  0.87023319  0.17062576  1  0  -0.328859  0  3.236679  0  0  -0.269749  0  3.511479  0  0  -0.287744  0  3.529292  0  0  -0.321178  -0.25634  0  3.498065  0
O  O94  1  0.18082079  0.83024159  0.82505112  1  0  -0.651919  0  1.90167  0  0  -0.593895  0  2.122343  0  0  -0.620888  0  2.112847  0  0  -0.340491  -0.574488  0  2.127557  0
O  O95  1  0.81918447  0.16975537  0.17494490  1  0  -0.651922  0  1.901538  0  0  -0.593896  0  2.122248  0  0  -0.620889  0  2.112754  0  0  -0.340431  -0.574492  0  2.127463  0
O  O96  1  0.33686811  0.73517479  0.76212293  1  0  -0.642883  0  1.972116  0  0  -0.578098  0  2.212082  0  0  -0.608167  0  2.205913  0  0  -0.330815  -0.557034  0  2.215673  0
O  O97  1  0.66313678  0.26482409  0.23787670  1  0  -0.64284  0  1.97212  0  0  -0.578039  0  2.212095  0  0  -0.608112  0  2.205942  0  0  -0.330802  -0.556975  0  2.215685  0
O  O98  1  0.56860152  0.90081106  0.00873228  1  0  -0.707437  0  2.107656  0  0  -0.616749  0  2.37892  0  0  -0.652169  0  2.366834  0  0  -0.353559  -0.592208  0  2.386347  0
O  O99  1  0.43139792  0.09919071  0.99127268  1  0  -0.707446  0  2.107674  0  0  -0.616746  0  2.378857  0  0  -0.652167  0  2.366773  0  0  -0.35356  -0.592195  0  2.38628  0
O  O100  1  0.69092717  0.83517104  0.88157235  1  0  -0.612611  0  1.880805  0  0  -0.56709  0  2.095596  0  0  -0.590812  0  2.087161  0  0  -0.324268  -0.551012  0  2.101267  0
O  O101  1  0.30908710  0.16484121  0.11844016  1  0  -0.612498  0  1.880838  0  0  -0.566988  0  2.095571  0  0  -0.590708  0  2.08714  0  0  -0.324212  -0.55091  0  2.101259  0
