# generated using pymatgen
data_Zr3H16C45(Br5O4)4
_symmetry_space_group_name_H-M   'P 1'
_cell_length_a   11.60504328
_cell_length_b   20.55514782
_cell_length_c   34.72972059
_cell_angle_alpha   91.13729640
_cell_angle_beta   99.71338908
_cell_angle_gamma   89.79873158
_symmetry_Int_Tables_number   1
_chemical_formula_structural   Zr3H16C45(Br5O4)4
_chemical_formula_sum   'Zr6 H32 C90 Br40 O32'
_cell_volume   8164.16953290
_cell_formula_units_Z   2
loop_
 _symmetry_equiv_pos_site_id
 _symmetry_equiv_pos_as_xyz
  1  'x, y, z'
loop_
 _atom_site_type_symbol
 _atom_site_label
 _atom_site_symmetry_multiplicity
 _atom_site_fract_x
 _atom_site_fract_y
 _atom_site_fract_z
 _atom_site_occupancy
 _atom_site_pbe_bader_charge
 _atom_site_pbe_bader_spin_density
 _atom_site_pbe_cm5_charge
 _atom_site_pbe_ddec_charge
 _atom_site_pbe_ddec_spin_density
 _atom_site_pbe_ddec_sum_bond_order
 _atom_site_pbe_magmom
Zr  Zr0  1  0.01349044  0.10108548  0.95742635  1  2.613282  0  1.574635  2.362036  0  2.769399  0
Zr  Zr1  1  0.05210688  0.91007118  0.03761685  1  2.605721  0  1.567404  2.346933  0  2.756162  0
Zr  Zr2  1  0.86506629  0.95122374  0.95093407  1  2.630305  0  1.558725  2.395216  0  2.763349  0
Zr  Zr3  1  0.20838002  0.05757740  0.04279091  1  2.632206  0  1.568765  2.401463  0  2.71557  0
Zr  Zr4  1  0.89331095  0.05809578  0.04008648  1  2.61513  0  1.527185  2.392582  0  2.724122  0
Zr  Zr5  1  0.18379468  0.95513386  0.95777177  1  2.621101  0  1.555723  2.39714  0  2.725824  0
H  H6  1  0.03888353  0.16295947  0.03100408  1  0.588881  0  0.317887  0.414231  0  0.877237  0
H  H7  1  0.81257864  0.93017509  0.03433721  1  0.633981  0  0.325793  0.432196  0  0.852079  0
H  H8  1  0.29379806  0.93011898  0.03721089  1  0.594736  0  0.321514  0.421812  0  0.872025  0
H  H9  1  0.00704705  0.00396601  0.89646769  1  0.57397  0  0.31805  0.411255  0  0.889702  0
H  H10  1  0.66262060  0.08322378  0.00537298  1  0.609169  0  0.321505  0.408157  0  0.879233  0
H  H11  1  0.84405954  0.91079955  0.87594306  1  0.594178  0  0.294682  0.386062  0  0.919021  0
H  H12  1  0.14037186  0.89601282  0.88505953  1  0.604199  0  0.318417  0.400284  0  0.891197  0
H  H13  1  0.92893409  0.12462389  0.10823948  1  0.591926  0  0.286305  0.379753  0  0.931389  0
H  H14  1  0.21138305  0.17107237  0.08685086  1  0.594555  0  0.291057  0.376315  0  0.948938  0
H  H15  1  0.44934278  0.04151545  0.06167843  1  0.605831  0  0.313392  0.41929  0  0.865951  0
H  H16  1  0.39500776  0.00455087  0.00361922  1  0.654066  0  0.285289  0.405713  0  0.933007  0
H  H17  1  0.87934751  0.00999094  0.10989733  1  0.58413  0  0.272193  0.368834  0  0.953628  0
H  H18  1  0.94968017  0.81928509  0.07999385  1  0.625472  0  0.317086  0.408835  0  0.897937  0
H  H19  1  0.14253669  0.16836015  0.90759357  1  0.626676  0  0.294437  0.381529  0  0.946923  0
H  H20  1  0.22505119  0.01976128  0.89364696  1  0.589593  0  0.28257  0.390256  0  0.918971  0
H  H21  1  0.09271060  0.12946118  0.09259090  1  0.627215  0  0.272579  0.405749  0  0.94231  0
H  H22  1  0.04531578  0.85969622  0.10967256  1  0.635531  0  0.322378  0.415933  0  0.883487  0
H  H23  1  0.64995044  0.91955460  0.96316042  1  0.594745  0  0.272916  0.365084  0  0.968553  0
H  H24  1  0.68563511  0.00933728  0.99136442  1  0.655238  0  0.282897  0.404433  0  0.935661  0
H  H25  1  0.39836929  0.99551274  0.95686646  1  0.644132  0  0.310578  0.409139  0  0.888849  0
H  H26  1  0.01514588  0.88607208  0.90128494  1  0.631287  0  0.280474  0.411721  0  0.92808  0
H  H27  1  0.02296780  0.14628197  0.88090520  1  0.613369  0  0.284527  0.368851  0  0.970507  0
H  H28  1  0.31978035  0.50757645  0.00077339  1  0.078789  0  0.094071  0.111443  0  1.017501  0
H  H29  1  0.72819699  0.50380749  0.97888087  1  0.08873  0  0.095784  0.113303  0  1.008531  0
H  H30  1  0.37859706  0.05923272  0.72471593  1  0.085581  0  0.098614  0.114621  0  1.006393  0
H  H31  1  0.49081050  0.01853747  0.61503030  1  0.050826  0  0.103461  0.116643  0  0.983073  0
H  H32  1  0.74649694  0.05405230  0.71761280  1  0.074905  0  0.098893  0.112585  0  1.001717  0
H  H33  1  0.53791182  0.93483867  0.28928567  1  0.088573  0  0.098338  0.112726  0  1.002344  0
H  H34  1  0.41948915  0.94455235  0.39999424  1  0.102722  0  0.100881  0.114347  0  0.987231  0
H  H35  1  0.16877518  0.94101979  0.29393449  1  0.098689  0  0.101146  0.117063  0  0.994102  0
H  H36  1  0.74497989  0.97874301  0.50393050  1  0.037321  0  0.098706  0.114469  0  0.99423  0
H  H37  1  0.17200803  0.98054388  0.51208134  1  0.039261  0  0.098744  0.114511  0  0.993701  0
C  C38  1  0.83027513  0.19643240  0.99063355  1  1.61421  0  0.225712  0.643675  0  4.120448  0
C  C39  1  0.22673978  0.19697786  0.99766535  1  1.645273  0  0.221655  0.639471  0  4.171401  0
C  C40  1  0.79263466  0.06856396  0.88703270  1  1.625952  0  0.223735  0.639948  0  4.130903  0
C  C41  1  0.85124314  0.80879895  0.99111367  1  1.643763  0  0.225454  0.642985  0  4.133983  0
C  C42  1  0.22720822  0.81527494  0.99972836  1  1.610184  0  0.224305  0.639752  0  4.175969  0
C  C43  1  0.23794905  0.95438483  0.11643081  1  1.650248  0  0.223247  0.645618  0  4.160128  0
C  C44  1  0.46413314  0.44663060  0.99276259  1  0.000295  0  -0.017024  0.038357  0  3.979293  0
C  C45  1  0.58202816  0.44583599  0.98701161  1  0.07698  0  -0.017027  0.042212  0  3.982272  0
C  C46  1  0.63806532  0.50481098  0.98382308  1  -0.078944  0  -0.095878  -0.160462  0  3.980349  0
C  C47  1  0.58471556  0.56512629  0.98769769  1  0.034853  0  -0.013374  0.046182  0  3.955238  0
C  C48  1  0.46714414  0.56616728  0.99404081  1  0.011664  0  -0.014787  0.044507  0  3.95839  0
C  C49  1  0.41020095  0.50677119  0.99617988  1  0.023948  0  -0.09611  -0.162343  0  3.980936  0
C  C50  1  0.56585839  0.05854972  0.72576332  1  0.089294  0  -0.017907  0.08543  0  4.004207  0
C  C51  1  0.44860237  0.05222016  0.70779945  1  0.022274  0  -0.091429  -0.165743  0  3.940252  0
C  C52  1  0.42213178  0.03584720  0.66809464  1  -0.070763  0  -0.021795  0.083792  0  4.044265  0
C  C53  1  0.51219149  0.02995904  0.64620833  1  0.028956  0  -0.091219  -0.167969  0  3.952371  0
C  C54  1  0.62881514  0.03772609  0.66345727  1  0.047725  0  -0.021653  0.084695  0  4.06134  0
C  C55  1  0.65554053  0.05023955  0.70348805  1  -0.091738  0  -0.092311  -0.168031  0  3.95111  0
C  C56  1  0.35056658  0.93768035  0.28706353  1  -0.075564  0  -0.018679  0.086006  0  4.010011  0
C  C57  1  0.46710896  0.93603985  0.30623282  1  0.00035  0  -0.089934  -0.165301  0  3.941555  0
C  C58  1  0.49195127  0.93685644  0.34698774  1  0.014016  0  -0.019621  0.087607  0  4.038892  0
C  C59  1  0.40002565  0.94159885  0.36818085  1  -0.032409  0  -0.093421  -0.173593  0  3.956976  0
C  C60  1  0.28399222  0.94397538  0.34953182  1  -0.004659  0  -0.022831  0.084663  0  4.054786  0
C  C61  1  0.25912046  0.94022554  0.30885849  1  0.010975  0  -0.09106  -0.168293  0  3.946073  0
C  C62  1  0.90889931  0.99151349  0.54210833  1  0.051697  0  -0.018347  0.039357  0  3.986745  0
C  C63  1  0.03138045  0.99046846  0.54456721  1  0.053253  0  -0.017042  0.038397  0  3.98143  0
C  C64  1  0.07736091  0.98012311  0.51024164  1  -0.031373  0  -0.094998  -0.160641  0  3.974238  0
C  C65  1  0.00787756  0.97011649  0.47363037  1  0.03938  0  -0.017031  0.038876  0  3.981604  0
C  C66  1  0.88555538  0.96806501  0.47151634  1  0.019  0  -0.015668  0.042395  0  3.983265  0
C  C67  1  0.83960298  0.97920710  0.50575918  1  -0.01944  0  -0.095209  -0.163136  0  3.982693  0
C  C68  1  0.13509553  0.89944939  0.38707231  1  -0.07605  0  -0.022134  0.026844  0  3.939904  0
C  C69  1  0.19690176  0.95255467  0.37609601  1  0.117984  0  -0.012734  0.005511  0  3.966165  0
C  C70  1  0.19185297  0.01221828  0.39643139  1  -0.042471  0  -0.023089  0.020797  0  3.930805  0
C  C71  1  0.13217759  0.01761455  0.42826471  1  -0.062897  0  -0.024853  0.016059  0  3.934543  0
C  C72  1  0.06911394  0.96428354  0.43926297  1  0.053744  0  -0.016562  0.001005  0  3.967328  0
C  C73  1  0.07335151  0.90501414  0.41842561  1  -0.024095  0  -0.025143  0.020565  0  3.937006  0
C  C74  1  0.63975308  0.88891252  0.39950095  1  -0.039135  0  -0.023029  0.02114  0  3.933753  0
C  C75  1  0.60959842  0.93799692  0.37178914  1  0.073495  0  -0.012976  0.004483  0  3.960914  0
C  C76  1  0.68014447  0.99385816  0.37484765  1  -0.049875  0  -0.021544  0.026525  0  3.932047  0
C  C77  1  0.77280044  0.00237045  0.40620194  1  -0.061989  0  -0.02423  0.022012  0  3.930101  0
C  C78  1  0.79848236  0.95531074  0.43540219  1  0.084389  0  -0.016974  0.000273  0  3.970754  0
C  C79  1  0.72886968  0.89854740  0.43175689  1  -0.051782  0  -0.024653  0.015786  0  3.935804  0
C  C80  1  0.78208692  0.97339072  0.63599083  1  -0.054134  0  -0.024257  0.023175  0  3.938635  0
C  C81  1  0.71533767  0.03029608  0.63671211  1  0.099163  0  -0.013335  0.005543  0  3.973785  0
C  C82  1  0.71672255  0.07559640  0.60688466  1  -0.062904  0  -0.023486  0.020098  0  3.935226  0
C  C83  1  0.77750120  0.06260937  0.57593736  1  -0.043294  0  -0.024338  0.01614  0  3.938339  0
C  C84  1  0.84658687  0.00589927  0.57549209  1  0.081767  0  -0.014712  0.002775  0  3.966622  0
C  C85  1  0.84620382  0.96127992  0.60578004  1  -0.063068  0  -0.023375  0.023793  0  3.937393  0
C  C86  1  0.28101435  0.95973028  0.62858999  1  -0.050965  0  -0.022566  0.020923  0  3.934232  0
C  C87  1  0.30464306  0.02272639  0.64472087  1  0.077879  0  -0.014821  0.001331  0  3.969885  0
C  C88  1  0.22915927  0.07338344  0.63046785  1  -0.074509  0  -0.023429  0.026482  0  3.941609  0
C  C89  1  0.13723837  0.06239093  0.59916938  1  -0.02686  0  -0.024311  0.020817  0  3.931158  0
C  C90  1  0.11801034  0.00038546  0.58113242  1  0.090956  0  -0.015754  0.002429  0  3.964783  0
C  C91  1  0.19302211  0.94919530  0.59611899  1  -0.057303  0  -0.02469  0.015806  0  3.935288  0
C  C92  1  0.34390312  0.36849645  0.02648203  1  -0.017348  0  -0.018732  0.022206  0  3.914733  0
C  C93  1  0.39619182  0.38557117  0.99415781  1  0.0346  0  -0.012008  0.006284  0  3.94961  0
C  C94  1  0.37882264  0.34251377  0.96145517  1  0.024637  0  -0.020045  0.021897  0  3.931824  0
C  C95  1  0.33369194  0.27995097  0.96395876  1  -0.087833  0  -0.018915  0.047884  0  3.929565  0
C  C96  1  0.28472248  0.26259051  0.99645292  1  0.05973  0  -0.016442  -0.084661  0  3.927852  0
C  C97  1  0.28425942  0.30909842  0.02654656  1  -0.018961  0  -0.017957  0.046985  0  3.915297  0
C  C98  1  0.67809262  0.73523739  0.96366028  1  -0.033977  0  -0.013869  0.055734  0  3.895815  0
C  C99  1  0.78647070  0.74414948  0.98892994  1  0.088434  0  -0.021598  -0.11173  0  3.879468  0
C  C100  1  0.83138911  0.69027047  0.01169543  1  -0.059851  0  -0.01978  0.047162  0  3.914258  0
C  C101  1  0.76444750  0.63350686  0.01240465  1  -0.037687  0  -0.026287  0.010135  0  3.919369  0
C  C102  1  0.65745281  0.62443970  0.98659500  1  0.073663  0  -0.015613  0.005993  0  3.976207  0
C  C103  1  0.62276398  0.67414588  0.95986453  1  -0.059939  0  -0.023477  0.016571  0  3.927181  0
C  C104  1  0.29392255  0.64009640  0.97178140  1  -0.046687  0  -0.023837  0.01396  0  3.929814  0
C  C105  1  0.39993921  0.62733397  0.99735921  1  0.043191  0  -0.018072  -0.003018  0  3.969013  0
C  C106  1  0.44122324  0.67577866  0.02565190  1  -0.049397  0  -0.024387  0.017788  0  3.93871  0
C  C107  1  0.39010097  0.73769142  0.02422746  1  -0.023942  0  -0.023306  0.040475  0  3.953475  0
C  C108  1  0.28511768  0.74933680  0.99920463  1  0.136619  0  -0.018449  -0.08855  0  3.955934  0
C  C109  1  0.23486984  0.69949685  0.97384578  1  -0.056286  0  -0.022169  0.036097  0  3.959329  0
C  C110  1  0.69123713  0.35932403  0.95395112  1  -0.03207  0  -0.024932  0.016096  0  3.930079  0
C  C111  1  0.65194406  0.38487050  0.98729767  1  0.077728  0  -0.014808  0.005783  0  3.97617  0
C  C112  1  0.68778105  0.35247125  0.02276421  1  -0.039848  0  -0.025406  0.016296  0  3.923013  0
C  C113  1  0.75197095  0.29439461  0.02417131  1  -0.084688  0  -0.019974  0.049314  0  3.940764  0
C  C114  1  0.77178869  0.26288973  0.98935154  1  0.085883  0  -0.021669  -0.103307  0  3.888932  0
C  C115  1  0.74081646  0.29674016  0.95411412  1  -0.04283  0  -0.020485  0.050821  0  3.924857  0
C  C116  1  0.21926182  0.99228927  0.18489750  1  -0.055787  0  -0.021646  0.037711  0  3.960659  0
C  C117  1  0.26702856  0.94801950  0.16066452  1  0.027367  0  -0.021871  -0.098431  0  3.931759  0
C  C118  1  0.33961851  0.89847778  0.17831906  1  -0.052558  0  -0.026094  0.042372  0  3.955647  0
C  C119  1  0.36268460  0.89309818  0.21915516  1  -0.018221  0  -0.022046  0.021894  0  3.917484  0
C  C120  1  0.32262545  0.94048670  0.24374996  1  0.095848  0  -0.011492  0.005767  0  3.954633  0
C  C121  1  0.25278793  0.99134699  0.22560837  1  -0.036089  0  -0.020957  0.020366  0  3.919373  0
C  C122  1  0.68455078  0.12169139  0.78108641  1  -0.013642  0  -0.025442  0.009107  0  3.921235  0
C  C123  1  0.60209281  0.07219642  0.76820974  1  0.066158  0  -0.008561  0.015303  0  3.954461  0
C  C124  1  0.56412070  0.03495600  0.79734669  1  -0.078787  0  -0.021902  0.015945  0  3.916541  0
C  C125  1  0.61067984  0.04480288  0.83705535  1  -0.02169  0  -0.015449  0.050633  0  3.931187  0
C  C126  1  0.71365545  0.08253497  0.84830730  1  0.057039  0  -0.025309  -0.114469  0  3.892823  0
C  C127  1  0.74544764  0.12338468  0.81969476  1  -0.074772  0  -0.020769  0.046116  0  3.913188  0
Br  Br128  1  0.00701450  0.82990686  0.43627650  1  -0.012276  0  0.040752  -0.032762  0  1.642719  0
Br  Br129  1  0.14458598  0.81867918  0.36046129  1  -0.020757  0  0.034718  -0.035504  0  1.466611  0
Br  Br130  1  0.14350548  0.09659227  0.45810573  1  -0.023856  0  0.036803  -0.033785  0  1.600583  0
Br  Br131  1  0.27025480  0.08506943  0.38021390  1  -0.019195  0  0.035674  -0.034577  0  1.507881  0
Br  Br132  1  0.74703831  0.83726956  0.47263158  1  -0.016912  0  0.035843  -0.033418  0  1.593093  0
Br  Br133  1  0.55389650  0.80984346  0.39287122  1  -0.026377  0  0.03387  -0.039625  0  1.489612  0
Br  Br134  1  0.85383048  0.08251383  0.41268421  1  -0.011768  0  0.041653  -0.03237  0  1.652675  0
Br  Br135  1  0.64098379  0.06085785  0.33814018  1  -0.014554  0  0.039376  -0.032234  0  1.482636  0
Br  Br136  1  0.92164934  0.88022232  0.60279039  1  -0.012101  0  0.042242  -0.031357  0  1.651009  0
Br  Br137  1  0.77647925  0.91058443  0.67495725  1  -0.022824  0  0.034149  -0.037087  0  1.476709  0
Br  Br138  1  0.75865029  0.11997245  0.53308563  1  -0.017508  0  0.040141  -0.028724  0  1.599147  0
Br  Br139  1  0.63276803  0.15464204  0.60924440  1  -0.024062  0  0.034829  -0.037528  0  1.494497  0
Br  Br140  1  0.18458978  0.86692973  0.56986954  1  -0.021173  0  0.038452  -0.029745  0  1.593194  0
Br  Br141  1  0.37538307  0.88986301  0.65080588  1  -0.018982  0  0.034583  -0.038077  0  1.496748  0
Br  Br142  1  0.04845550  0.13378292  0.57710652  1  -0.01492  0  0.042837  -0.030083  0  1.653561  0
Br  Br143  1  0.26146263  0.15831359  0.65181356  1  -0.025474  0  0.033097  -0.038223  0  1.466044  0
Br  Br144  1  0.19324810  0.29273755  0.06611070  1  -0.024048  0  0.066857  -0.017295  0  1.542479  0
Br  Br145  1  0.34965726  0.42675139  0.06981155  1  -0.010041  0  0.047889  -0.024644  0  1.556267  0
Br  Br146  1  0.34323562  0.21768959  0.92325467  1  -0.029889  0  0.068152  -0.014142  0  1.532494  0
Br  Br147  1  0.40226805  0.37263351  0.91233129  1  -0.006031  0  0.049716  -0.026313  0  1.647249  0
Br  Br148  1  0.50378721  0.65552726  0.91655453  1  -0.012496  0  0.047301  -0.02923  0  1.614745  0
Br  Br149  1  0.59303356  0.80351834  0.93557230  1  0.01455  0  0.080611  0.010381  0  1.621077  0
Br  Br150  1  0.81656204  0.56903576  0.05005095  1  -0.021579  0  0.036328  -0.040309  0  1.624686  0
Br  Br151  1  0.98459569  0.69044265  0.04165783  1  -0.005643  0  0.046806  -0.019823  0  1.6396  0
Br  Br152  1  0.08999488  0.71689620  0.94165999  1  0.005847  0  0.066289  0.01853  0  1.531957  0
Br  Br153  1  0.23111151  0.57838575  0.93241776  1  -0.020495  0  0.038466  -0.038411  0  1.561013  0
Br  Br154  1  0.46443214  0.80810762  0.05467716  1  -0.017582  0  0.059323  0.002097  0  1.601796  0
Br  Br155  1  0.55952186  0.65557462  0.06830330  1  -0.013265  0  0.044732  -0.03108  0  1.607054  0
Br  Br156  1  0.75953964  0.25854980  0.90556574  1  0.005553  0  0.028113  -0.04037  0  1.723317  0
Br  Br157  1  0.68641413  0.41198564  0.90930268  1  -0.027119  0  0.03238  -0.040182  0  1.585907  0
Br  Br158  1  0.82153526  0.26241912  0.07333813  1  0.005357  0  0.044629  -0.017411  0  1.60562  0
Br  Br159  1  0.65718618  0.39267523  0.06956480  1  -0.020057  0  0.039605  -0.036751  0  1.623402  0
Br  Br160  1  0.20828038  0.06223648  0.25595331  1  -0.022831  0  0.037027  -0.048456  0  1.521993  0
Br  Br161  1  0.10322785  0.05076053  0.16161301  1  -0.007626  0  0.074269  0.003595  0  1.66734  0
Br  Br162  1  0.44450476  0.81898056  0.24145817  1  -0.030221  0  0.033205  -0.042887  0  1.477375  0
Br  Br163  1  0.40483068  0.83889044  0.14566645  1  -0.010976  0  0.023081  -0.051159  0  1.628508  0
Br  Br164  1  0.87381146  0.18279031  0.83029641  1  -0.028619  0  0.070918  -0.002071  0  1.672826  0
Br  Br165  1  0.70944654  0.18723562  0.74541257  1  -0.018424  0  0.038016  -0.041178  0  1.508553  0
Br  Br166  1  0.53042228  0.00996746  0.87496671  1  0.039031  0  0.066162  0.017621  0  1.628648  0
Br  Br167  1  0.45441618  0.96653474  0.78300746  1  -0.016241  0  0.041985  -0.039205  0  1.503468  0
O  O168  1  0.08842748  0.13164769  0.90068329  1  -1.234979  0  -0.590092  -0.774503  0  2.109668  0
O  O169  1  0.90658485  0.18799101  0.96862193  1  -1.165158  0  -0.355603  -0.604344  0  2.354305  0
O  O170  1  0.86510543  0.11104202  0.90323212  1  -1.192358  0  -0.347652  -0.623876  0  2.377164  0
O  O171  1  0.26589520  0.16064474  0.02564532  1  -1.177857  0  -0.329199  -0.596731  0  2.316035  0
O  O172  1  0.78446400  0.01117907  0.89876527  1  -1.183444  0  -0.344158  -0.613784  0  2.411669  0
O  O173  1  0.14215467  0.18550982  0.96995111  1  -1.18659  0  -0.356025  -0.629613  0  2.345043  0
O  O174  1  0.80133693  0.15480146  0.01369338  1  -1.194681  0  -0.332064  -0.620772  0  2.310993  0
O  O175  1  0.89800389  0.04370719  0.97714634  1  -1.219406  0  -0.780511  -1.171491  0  2.065831  0
O  O176  1  0.04049396  0.11824968  0.02148765  1  -1.230807  0  -0.697096  -1.043788  0  2.310264  0
O  O177  1  0.02347962  0.00773782  0.92471443  1  -1.239796  0  -0.683842  -1.067432  0  2.240163  0
O  O178  1  0.16217998  0.04843978  0.98238411  1  -1.218481  0  -0.773556  -1.151158  0  2.001486  0
O  O179  1  0.38503772  0.04769639  0.04030360  1  -1.240643  0  -0.664402  -0.946997  0  1.876642  0
O  O180  1  0.69580433  0.04183478  0.01493588  1  -1.249983  0  -0.603365  -0.789854  0  2.01952  0
O  O181  1  0.05655609  0.00775724  0.05244536  1  -1.222904  0  -0.772696  -1.160119  0  2.025273  0
O  O182  1  0.87370776  0.94874104  0.02194010  1  -1.275713  0  -0.679202  -1.044587  0  2.189697  0
O  O183  1  0.03221613  0.92216744  0.97890772  1  -1.216805  0  -0.780794  -1.147854  0  2.035632  0
O  O184  1  0.22162863  0.95132279  0.02556066  1  -1.227931  0  -0.694034  -1.065991  0  2.298282  0
O  O185  1  0.69117271  0.95908660  0.95859166  1  -1.240201  0  -0.663681  -0.932475  0  1.964487  0
O  O186  1  0.82482623  0.84662856  0.96286999  1  -1.190497  0  -0.343734  -0.603661  0  2.424162  0
O  O187  1  0.92663071  0.82136419  0.02134532  1  -1.198156  0  -0.349359  -0.632314  0  2.421819  0
O  O188  1  0.25995703  0.98776713  0.91222639  1  -1.253118  0  -0.697424  -0.993473  0  1.799549  0
O  O189  1  0.16419625  0.82474208  0.02596392  1  -1.17807  0  -0.353577  -0.61986  0  2.305868  0
O  O190  1  0.88941781  0.89662409  0.90039758  1  -1.235453  0  -0.655587  -0.91994  0  1.917135  0
O  O191  1  0.10715456  0.88433487  0.90787134  1  -1.229778  0  -0.609995  -0.826117  0  2.077207  0
O  O192  1  0.38095492  0.97301689  0.97979398  1  -1.282188  0  -0.610437  -0.805844  0  2.031375  0
O  O193  1  0.24901431  0.85466611  0.97442195  1  -1.156588  0  -0.338925  -0.586848  0  2.300207  0
O  O194  1  0.97441882  0.86291027  0.08989970  1  -1.220589  0  -0.584419  -0.773601  0  2.030562  0
O  O195  1  0.18541225  0.12721518  0.09155318  1  -1.227  0  -0.620778  -0.831886  0  2.096542  0
O  O196  1  0.17436344  0.90922034  0.09807488  1  -1.196164  0  -0.349338  -0.642145  0  2.325132  0
O  O197  1  0.27672459  0.00346570  0.10170901  1  -1.173759  0  -0.32682  -0.588787  0  2.262737  0
O  O198  1  0.96881636  0.12697152  0.08588128  1  -1.249963  0  -0.649989  -0.939965  0  2.034478  0
O  O199  1  0.82908354  0.02079788  0.08557346  1  -1.226826  0  -0.709121  -0.966164  0  1.791238  0
