# generated using pymatgen
data_SnH13C9NO3
_symmetry_space_group_name_H-M   'P 1'
_cell_length_a   8.20696901
_cell_length_b   12.69644595
_cell_length_c   12.82791923
_cell_angle_alpha   101.72113856
_cell_angle_beta   108.64487376
_cell_angle_gamma   108.86889799
_symmetry_Int_Tables_number   1
_chemical_formula_structural   SnH13C9NO3
_chemical_formula_sum   'Sn4 H52 C36 N4 O12'
_cell_volume   1126.22960424
_cell_formula_units_Z   4
loop_
 _symmetry_equiv_pos_site_id
 _symmetry_equiv_pos_as_xyz
  1  'x, y, z'
loop_
 _atom_site_type_symbol
 _atom_site_label
 _atom_site_symmetry_multiplicity
 _atom_site_fract_x
 _atom_site_fract_y
 _atom_site_fract_z
 _atom_site_occupancy
 _atom_site_hle17_bader_spin_density
 _atom_site_hle17_ddec_charge
 _atom_site_hle17_ddec_spin_density
 _atom_site_hle17_ddec_sum_bond_order
 _atom_site_hle17_magmom
 _atom_site_hse06_10hf_bader_spin_density
 _atom_site_hse06_10hf_ddec_charge
 _atom_site_hse06_10hf_ddec_spin_density
 _atom_site_hse06_10hf_ddec_sum_bond_order
 _atom_site_hse06_10hf_magmom
 _atom_site_hse06_bader_spin_density
 _atom_site_hse06_ddec_charge
 _atom_site_hse06_ddec_spin_density
 _atom_site_hse06_ddec_sum_bond_order
 _atom_site_hse06_magmom
 _atom_site_pbe_bader_spin_density
 _atom_site_pbe_cm5_charge
 _atom_site_pbe_ddec_charge
 _atom_site_pbe_ddec_spin_density
 _atom_site_pbe_ddec_sum_bond_order
 _atom_site_pbe_magmom
Sn  Sn0  1  0.30990544  0.05127910  0.74981970  1  0  1.355429  0  2.91328  0  0  1.228863  0  3.398171  0  0  1.265733  0  3.384032  0  0  0.517037  1.203565  0  3.407416  0
Sn  Sn1  1  0.00831138  0.44893527  0.75011706  1  0  1.354194  0  2.914176  0  0  1.227887  0  3.398999  0  0  1.264616  0  3.38516  0  0  0.517212  1.202709  0  3.408016  0
Sn  Sn2  1  0.69009136  0.94871995  0.25017681  1  0  1.355397  0  2.913299  0  0  1.228825  0  3.398214  0  0  1.2657  0  3.38407  0  0  0.517024  1.203529  0  3.407451  0
Sn  Sn3  1  0.99168859  0.55106814  0.24989549  1  0  1.35417  0  2.91417  0  0  1.227846  0  3.399048  0  0  1.264558  0  3.385243  0  0  0.517203  1.202666  0  3.408068  0
H  H4  1  0.41403780  0.40833242  0.21417441  1  0  0.32288  0  0.921188  0  0  0.299706  0  0.990437  0  0  0.309567  0  0.981635  0  0  0.312043  0.292791  0  0.996622  0
H  H5  1  0.29144820  0.09175026  0.28620731  1  0  0.324461  0  0.918306  0  0  0.300333  0  0.988889  0  0  0.31023  0  0.980046  0  0  0.312163  0.293393  0  0.9951  0
H  H6  1  0.58596010  0.59166750  0.78582422  1  0  0.322848  0  0.921236  0  0  0.299717  0  0.990431  0  0  0.309578  0  0.981629  0  0  0.312023  0.292802  0  0.996617  0
H  H7  1  0.70855185  0.90824788  0.71379280  1  0  0.324481  0  0.918288  0  0  0.300355  0  0.988871  0  0  0.310246  0  0.980038  0  0  0.31216  0.293415  0  0.995083  0
H  H8  1  0.84789128  0.32467585  0.99861496  1  0  0.140029  0  0.95877  0  0  0.147828  0  1.019888  0  0  0.152298  0  1.017829  0  0  0.117656  0.144677  0  1.02148  0
H  H9  1  0.02380445  0.17550890  0.50129753  1  0  0.139767  0  0.958588  0  0  0.147611  0  1.019798  0  0  0.152111  0  1.017681  0  0  0.118113  0.144438  0  1.021428  0
H  H10  1  0.15210423  0.67532319  0.00138285  1  0  0.140026  0  0.958822  0  0  0.147851  0  1.019911  0  0  0.152323  0  1.017849  0  0  0.117652  0.1447  0  1.021505  0
H  H11  1  0.97619099  0.82448659  0.49870140  1  0  0.139793  0  0.958559  0  0  0.147638  0  1.019767  0  0  0.152138  0  1.01765  0  0  0.11814  0.144465  0  1.021397  0
H  H12  1  0.07678076  0.06470805  0.96467562  1  0  0.121817  0  0.96081  0  0  0.128161  0  1.027944  0  0  0.132094  0  1.026351  0  0  0.112564  0.125372  0  1.029212  0
H  H13  1  0.54751588  0.43528228  0.53590014  1  0  0.122305  0  0.961499  0  0  0.12899  0  1.028103  0  0  0.132845  0  1.026587  0  0  0.112805  0.126187  0  1.029426  0
H  H14  1  0.92322204  0.93529189  0.03531888  1  0  0.121786  0  0.960804  0  0  0.12816  0  1.027911  0  0  0.132075  0  1.02634  0  0  0.112559  0.125368  0  1.029184  0
H  H15  1  0.45248147  0.56472028  0.46410484  1  0  0.122361  0  0.961444  0  0  0.128986  0  1.02811  0  0  0.132854  0  1.026576  0  0  0.112802  0.126198  0  1.029417  0
H  H16  1  0.38793311  0.21828339  0.12544602  1  0  0.091281  0  0.924597  0  0  0.104155  0  0.980145  0  0  0.107017  0  0.977293  0  0  0.129146  0.102011  0  0.982304  0
H  H17  1  0.54442915  0.28174621  0.37521267  1  0  0.091806  0  0.923844  0  0  0.104764  0  0.979357  0  0  0.10763  0  0.976472  0  0  0.129543  0.102589  0  0.981553  0
H  H18  1  0.61206667  0.78171743  0.87455162  1  0  0.091299  0  0.924489  0  0  0.104182  0  0.98004  0  0  0.107044  0  0.977187  0  0  0.129153  0.102025  0  0.982214  0
H  H19  1  0.45557156  0.71825369  0.62479012  1  0  0.091819  0  0.923842  0  0  0.104821  0  0.979288  0  0  0.107698  0  0.9764  0  0  0.129553  0.102652  0  0.981487  0
H  H20  1  0.19645343  0.22825453  0.74171260  1  0  0.160297  0  1.005328  0  0  0.175552  0  1.065894  0  0  0.178441  0  1.066496  0  0  0.086204  0.173448  0  1.065579  0
H  H21  1  0.72642417  0.27167833  0.75844969  1  0  0.160647  0  1.006016  0  0  0.176285  0  1.065784  0  0  0.179191  0  1.066357  0  0  0.086475  0.174185  0  1.065475  0
H  H22  1  0.80354900  0.77174716  0.25828872  1  0  0.160274  0  1.00535  0  0  0.175536  0  1.065907  0  0  0.178425  0  1.066508  0  0  0.086192  0.173432  0  1.065592  0
H  H23  1  0.27357031  0.72831804  0.24155187  1  0  0.16066  0  1.005992  0  0  0.17631  0  1.065753  0  0  0.179217  0  1.066321  0  0  0.086494  0.174209  0  1.065448  0
H  H24  1  0.45096002  0.28938170  0.80640186  1  0  0.160881  0  0.976812  0  0  0.178937  0  1.032173  0  0  0.181901  0  1.032029  0  0  0.086877  0.176798  0  1.032369  0
H  H25  1  0.85577061  0.21095346  0.69397294  1  0  0.161277  0  0.977201  0  0  0.179291  0  1.032585  0  0  0.182299  0  1.032377  0  0  0.08674  0.177128  0  1.032814  0
H  H26  1  0.54904114  0.71061734  0.19359648  1  0  0.160884  0  0.976834  0  0  0.178941  0  1.032193  0  0  0.181905  0  1.032046  0  0  0.086887  0.176801  0  1.03239  0
H  H27  1  0.14422985  0.78904644  0.30603088  1  0  0.161241  0  0.977185  0  0  0.179244  0  1.032596  0  0  0.182251  0  1.032389  0  0  0.086697  0.177082  0  1.032825  0
H  H28  1  0.32217034  0.24588510  0.89098054  1  0  0.137443  0  1.020444  0  0  0.153549  0  1.083191  0  0  0.155087  0  1.085831  0  0  0.077288  0.152453  0  1.081386  0
H  H29  1  0.68535809  0.25389135  0.60913176  1  0  0.137306  0  1.020533  0  0  0.153554  0  1.083087  0  0  0.155095  0  1.085715  0  0  0.07689  0.152453  0  1.081298  0
H  H30  1  0.67783186  0.75411394  0.10901755  1  0  0.137455  0  1.020425  0  0  0.153563  0  1.083174  0  0  0.155102  0  1.08581  0  0  0.077287  0.152466  0  1.08137  0
H  H31  1  0.31464340  0.74610855  0.39087181  1  0  0.137275  0  1.020477  0  0  0.153527  0  1.083038  0  0  0.155068  0  1.085662  0  0  0.076889  0.152427  0  1.081249  0
H  H32  1  0.33102363  0.89637021  0.57874823  1  0  0.147193  0  0.994574  0  0  0.164386  0  1.054509  0  0  0.166921  0  1.054916  0  0  0.081193  0.16259  0  1.054256  0
H  H33  1  0.35553840  0.60380474  0.92134835  1  0  0.147558  0  0.995274  0  0  0.16471  0  1.054881  0  0  0.167234  0  1.05531  0  0  0.081422  0.162923  0  1.054613  0
H  H34  1  0.66898864  0.10363503  0.42125147  1  0  0.147216  0  0.994606  0  0  0.164406  0  1.054539  0  0  0.166943  0  1.054946  0  0  0.081206  0.162608  0  1.054289  0
H  H35  1  0.64446181  0.39619785  0.07864912  1  0  0.147524  0  0.995357  0  0  0.164694  0  1.054946  0  0  0.167217  0  1.055376  0  0  0.081409  0.162906  0  1.054678  0
H  H36  1  0.47786146  0.04479636  0.59980396  1  0  0.163164  0  0.989588  0  0  0.182638  0  1.043957  0  0  0.185349  0  1.044941  0  0  0.086605  0.180672  0  1.043353  0
H  H37  1  0.33242608  0.45530024  0.90019773  1  0  0.16252  0  0.989112  0  0  0.181399  0  1.04436  0  0  0.184118  0  1.045339  0  0  0.085802  0.179448  0  1.043737  0
H  H38  1  0.52214718  0.95521153  0.40019897  1  0  0.163041  0  0.989725  0  0  0.182549  0  1.044049  0  0  0.18528  0  1.045009  0  0  0.086533  0.180582  0  1.043447  0
H  H39  1  0.66757601  0.54470324  0.09979874  1  0  0.162522  0  0.98906  0  0  0.181398  0  1.044321  0  0  0.184118  0  1.045302  0  0  0.085799  0.179446  0  1.043701  0
H  H40  1  0.22731140  0.98459636  0.51511054  1  0  0.157139  0  1.012354  0  0  0.17284  0  1.073222  0  0  0.175834  0  1.073609  0  0  0.082374  0.170697  0  1.072999  0
H  H41  1  0.22684721  0.51559174  0.98484073  1  0  0.156985  0  1.012307  0  0  0.17261  0  1.073201  0  0  0.175606  0  1.073566  0  0  0.082111  0.170433  0  1.073044  0
H  H42  1  0.77269799  0.01540535  0.48488613  1  0  0.157169  0  1.012244  0  0  0.172868  0  1.073128  0  0  0.175862  0  1.07352  0  0  0.082384  0.170725  0  1.072906  0
H  H43  1  0.77316326  0.48441082  0.01516195  1  0  0.156975  0  1.012303  0  0  0.172602  0  1.073197  0  0  0.175606  0  1.073549  0  0  0.082093  0.170419  0  1.073046  0
H  H44  1  0.31335743  0.98186304  0.93748958  1  0  0.152654  0  0.998046  0  0  0.172199  0  1.053193  0  0  0.174206  0  1.054981  0  0  0.083664  0.170749  0  1.051995  0
H  H45  1  0.89389504  0.51828497  0.56235733  1  0  0.15329  0  0.996621  0  0  0.172915  0  1.051676  0  0  0.174947  0  1.053403  0  0  0.084112  0.171449  0  1.050513  0
H  H46  1  0.68664681  0.01813866  0.06250837  1  0  0.152659  0  0.998021  0  0  0.172217  0  1.053155  0  0  0.174225  0  1.054941  0  0  0.083683  0.170768  0  1.051958  0
H  H47  1  0.10609820  0.48170609  0.43764087  1  0  0.153264  0  0.996587  0  0  0.172865  0  1.051687  0  0  0.174897  0  1.053413  0  0  0.084111  0.1714  0  1.050523  0
H  H48  1  0.35376120  0.88213231  0.83985344  1  0  0.149701  0  0.994727  0  0  0.167167  0  1.05291  0  0  0.170074  0  1.052733  0  0  0.080825  0.16508  0  1.053101  0
H  H49  1  0.13172272  0.61800906  0.66003692  1  0  0.148844  0  0.993151  0  0  0.166376  0  1.051684  0  0  0.169285  0  1.051503  0  0  0.080321  0.164276  0  1.051887  0
H  H50  1  0.64624484  0.11786939  0.16014504  1  0  0.149657  0  0.994812  0  0  0.167122  0  1.052999  0  0  0.170023  0  1.052829  0  0  0.080831  0.165038  0  1.053184  0
H  H51  1  0.86827240  0.38198289  0.33996030  1  0  0.148836  0  0.993113  0  0  0.166379  0  1.051633  0  0  0.169292  0  1.051444  0  0  0.080328  0.164273  0  1.051843  0
H  H52  1  0.11774781  0.86908254  0.80924955  1  0  0.146601  0  1.004297  0  0  0.164282  0  1.062568  0  0  0.166256  0  1.064845  0  0  0.078373  0.162862  0  1.061043  0
H  H53  1  0.93930177  0.63111293  0.69057244  1  0  0.147078  0  1.003794  0  0  0.164473  0  1.062373  0  0  0.166442  0  1.064649  0  0  0.078411  0.163063  0  1.060833  0
H  H54  1  0.88225720  0.13091648  0.19075269  1  0  0.146618  0  1.004193  0  0  0.164301  0  1.062477  0  0  0.166271  0  1.064757  0  0  0.078368  0.162879  0  1.060952  0
H  H55  1  0.06069375  0.36888613  0.30942148  1  0  0.147059  0  1.003784  0  0  0.164472  0  1.062351  0  0  0.166436  0  1.064631  0  0  0.07837  0.163063  0  1.06081  0
C  C56  1  0.74498292  0.09619349  0.88297568  1  0  0.653796  0  3.889473  0  0  0.604035  0  4.183345  0  0  0.637437  0  4.173159  0  0  0.228999  0.581438  0  4.189477  0
C  C57  1  0.26522756  0.40387225  0.61714406  1  0  0.6539  0  3.88872  0  0  0.603751  0  4.18381  0  0  0.637189  0  4.173555  0  0  0.228403  0.581138  0  4.189965  0
C  C58  1  0.25502013  0.90380644  0.11702167  1  0  0.653775  0  3.889547  0  0  0.60404  0  4.183375  0  0  0.637441  0  4.173195  0  0  0.228987  0.581444  0  4.18951  0
C  C59  1  0.73476774  0.59613032  0.38285754  1  0  0.653941  0  3.888675  0  0  0.603805  0  4.183777  0  0  0.637242  0  4.173522  0  0  0.228442  0.58119  0  4.189935  0
C  C60  1  0.14276971  0.38556542  0.11423989  1  0  0.536029  0  3.869281  0  0  0.497249  0  4.144764  0  0  0.523088  0  4.149528  0  0  0.223758  0.480032  0  4.141007  0
C  C61  1  0.14257518  0.11454476  0.38595674  1  0  0.534935  0  3.871161  0  0  0.496934  0  4.144821  0  0  0.522841  0  4.149625  0  0  0.223456  0.479659  0  4.14104  0
C  C62  1  0.85722741  0.61443449  0.88576185  1  0  0.536066  0  3.869284  0  0  0.497267  0  4.144785  0  0  0.523096  0  4.14956  0  0  0.223738  0.480049  0  4.141029  0
C  C63  1  0.85742913  0.88545515  0.61404710  1  0  0.534939  0  3.871099  0  0  0.496891  0  4.14481  0  0  0.522797  0  4.149613  0  0  0.223446  0.479616  0  4.141031  0
C  C64  1  0.96547209  0.29968333  0.02494450  1  0  -0.249218  0  3.651828  0  0  -0.273507  0  3.897819  0  0  -0.284372  0  3.915313  0  0  -0.084183  -0.266592  0  3.886237  0
C  C65  1  0.14028391  0.20047049  0.47513137  1  0  -0.24827  0  3.651933  0  0  -0.27291  0  3.898073  0  0  -0.283764  0  3.915561  0  0  -0.08491  -0.265997  0  3.886467  0
C  C66  1  0.03452668  0.70031483  0.97505302  1  0  -0.249224  0  3.65188  0  0  -0.273532  0  3.89787  0  0  -0.284397  0  3.915368  0  0  -0.084177  -0.266618  0  3.886292  0
C  C67  1  0.85971022  0.79952765  0.52486924  1  0  -0.24826  0  3.651936  0  0  -0.27286  0  3.898093  0  0  -0.283714  0  3.915581  0  0  -0.084902  -0.265947  0  3.886487  0
C  C68  1  0.94047203  0.18584313  0.97265257  1  0  0.030044  0  3.728863  0  0  0.046379  0  3.962758  0  0  0.048946  0  3.981035  0  0  0.008885  0.044867  0  3.950348  0
C  C69  1  0.28162799  0.31426256  0.52757746  1  0  0.030547  0  3.727368  0  0  0.046385  0  3.962461  0  0  0.048945  0  3.980697  0  0  0.009156  0.044909  0  3.949982  0
C  C70  1  0.05952889  0.81415592  0.02734292  1  0  0.030089  0  3.728911  0  0  0.046403  0  3.962811  0  0  0.04897  0  3.981085  0  0  0.008931  0.04489  0  3.950404  0
C  C71  1  0.71836672  0.68573645  0.47242735  1  0  0.030615  0  3.727451  0  0  0.046397  0  3.962599  0  0  0.048958  0  3.980837  0  0  0.009201  0.044923  0  3.95012  0
C  C72  1  0.09373061  0.15346801  0.00576376  1  0  -0.164629  0  3.740823  0  0  -0.192063  0  4.003522  0  0  -0.200198  0  4.023269  0  0  -0.092353  -0.186956  0  3.99042  0
C  C73  1  0.43440473  0.34658843  0.49466078  1  0  -0.165818  0  3.743011  0  0  -0.193138  0  4.005745  0  0  -0.201184  0  4.025504  0  0  -0.092165  -0.188056  0  3.992604  0
C  C74  1  0.90626732  0.84652927  0.99423060  1  0  -0.164608  0  3.740811  0  0  -0.192038  0  4.003481  0  0  -0.200159  0  4.023242  0  0  -0.092342  -0.18693  0  3.990375  0
C  C75  1  0.56558690  0.65341325  0.50534129  1  0  -0.165889  0  3.743106  0  0  -0.193133  0  4.00585  0  0  -0.201189  0  4.025602  0  0  -0.092177  -0.188064  0  3.992703  0
C  C76  1  0.26415586  0.23683814  0.09277404  1  0  0.146601  0  3.686548  0  0  0.104965  0  3.950307  0  0  0.11479  0  3.965157  0  0  0.053694  0.098647  0  3.940161  0
C  C77  1  0.43451197  0.26320649  0.40770035  1  0  0.146084  0  3.68847  0  0  0.104098  0  3.952344  0  0  0.113987  0  3.967194  0  0  0.052631  0.09777  0  3.942129  0
C  C78  1  0.73584284  0.76315914  0.90722110  1  0  0.146617  0  3.686527  0  0  0.104932  0  3.950342  0  0  0.114757  0  3.965188  0  0  0.053666  0.098623  0  3.940197  0
C  C79  1  0.56548788  0.73679518  0.59230356  1  0  0.145992  0  3.688513  0  0  0.103977  0  3.952338  0  0  0.113852  0  3.967205  0  0  0.05258  0.09764  0  3.942139  0
C  C80  1  0.32108730  0.22518657  0.80349995  1  0  -0.702448  0  3.514229  0  0  -0.741757  0  3.744848  0  0  -0.755344  0  3.752218  0  0  -0.33857  -0.732337  0  3.739829  0
C  C81  1  0.79242672  0.27484392  0.69669274  1  0  -0.703386  0  3.515952  0  0  -0.743124  0  3.746245  0  0  -0.756769  0  3.753552  0  0  -0.338347  -0.733674  0  3.741204  0
C  C82  1  0.67891361  0.77481246  0.19649943  1  0  -0.702451  0  3.514245  0  0  -0.741763  0  3.744867  0  0  -0.755347  0  3.752238  0  0  -0.338562  -0.732344  0  3.739852  0
C  C83  1  0.20757433  0.72515686  0.30331139  1  0  -0.703277  0  3.515867  0  0  -0.743038  0  3.74617  0  0  -0.756679  0  3.753481  0  0  -0.338301  -0.733588  0  3.741128  0
C  C84  1  0.33891679  0.98622057  0.59114845  1  0  -0.723337  0  3.512518  0  0  -0.761405  0  3.739961  0  0  -0.775002  0  3.746026  0  0  -0.339263  -0.751964  0  3.735834  0
C  C85  1  0.26090573  0.51397571  0.90882752  1  0  -0.723174  0  3.51336  0  0  -0.76033  0  3.740629  0  0  -0.773901  0  3.746684  0  0  -0.338766  -0.750896  0  3.736542  0
C  C86  1  0.66109103  0.01378379  0.40885094  1  0  -0.723235  0  3.512538  0  0  -0.761336  0  3.739966  0  0  -0.774958  0  3.746004  0  0  -0.339198  -0.751894  0  3.735843  0
C  C87  1  0.73909968  0.48602774  0.09117493  1  0  -0.723156  0  3.513309  0  0  -0.760347  0  3.740592  0  0  -0.77392  0  3.746636  0  0  -0.338752  -0.750902  0  3.736517  0
C  C88  1  0.26688677  0.93117532  0.84533887  1  0  -0.718167  0  3.531111  0  0  -0.756383  0  3.75798  0  0  -0.770554  0  3.766168  0  0  -0.341065  -0.746535  0  3.752289  0
C  C89  1  0.99023673  0.56900838  0.65450205  1  0  -0.718009  0  3.52729  0  0  -0.756056  0  3.754263  0  0  -0.770197  0  3.762418  0  0  -0.340956  -0.746212  0  3.748577  0
C  C90  1  0.73311678  0.06882461  0.15466029  1  0  -0.718151  0  3.531099  0  0  -0.756375  0  3.757981  0  0  -0.770544  0  3.766186  0  0  -0.341088  -0.746531  0  3.752286  0
C  C91  1  0.00975614  0.43098712  0.34549558  1  0  -0.71792  0  3.527255  0  0  -0.755966  0  3.754198  0  0  -0.7701  0  3.762364  0  0  -0.340879  -0.746117  0  3.748518  0
N  N92  1  0.28561759  0.34780203  0.14455812  1  0  -0.346066  0  3.365535  0  0  -0.276625  0  3.590659  0  0  -0.296092  0  3.601475  0  0  -0.358663  -0.263688  0  3.583227  0
N  N93  1  0.29311219  0.15227979  0.35579238  1  0  -0.34691  0  3.36421  0  0  -0.276909  0  3.589228  0  0  -0.296532  0  3.600146  0  0  -0.358295  -0.263858  0  3.581702  0
N  N94  1  0.71437819  0.65219434  0.85544215  1  0  -0.346107  0  3.365679  0  0  -0.276668  0  3.590753  0  0  -0.296135  0  3.601574  0  0  -0.358657  -0.263727  0  3.583312  0
N  N95  1  0.70688879  0.84772012  0.64420937  1  0  -0.346894  0  3.364133  0  0  -0.27689  0  3.589177  0  0  -0.29651  0  3.600105  0  0  -0.358287  -0.263839  0  3.581656  0
O  O96  1  0.62028662  0.13840853  0.86354555  1  0  -0.62449  0  2.08797  0  0  -0.551164  0  2.326805  0  0  -0.577571  0  2.320215  0  0  -0.280623  -0.532811  0  2.330639  0
O  O97  1  0.11782612  0.36153152  0.63662578  1  0  -0.623344  0  2.089451  0  0  -0.550131  0  2.328768  0  0  -0.576703  0  2.322484  0  0  -0.279911  -0.53173  0  2.332463  0
O  O98  1  0.37971183  0.86158608  0.13645024  1  0  -0.624441  0  2.088021  0  0  -0.551108  0  2.326829  0  0  -0.577523  0  2.320254  0  0  -0.280569  -0.532741  0  2.330625  0
O  O99  1  0.88217268  0.63847281  0.36337877  1  0  -0.623366  0  2.08939  0  0  -0.550183  0  2.328742  0  0  -0.57675  0  2.322458  0  0  -0.279978  -0.531778  0  2.332437  0
O  O100  1  0.71801522  0.99100186  0.83817497  1  0  -0.625983  0  1.971696  0  0  -0.582909  0  2.203616  0  0  -0.605119  0  2.193847  0  0  -0.314793  -0.567375  0  2.209835  0
O  O101  1  0.38795021  0.50916831  0.66177645  1  0  -0.626244  0  1.971313  0  0  -0.583189  0  2.203306  0  0  -0.605393  0  2.193513  0  0  -0.315057  -0.567649  0  2.209526  0
O  O102  1  0.28198954  0.00899718  0.16182442  1  0  -0.626007  0  1.971685  0  0  -0.582948  0  2.203598  0  0  -0.605158  0  2.193826  0  0  -0.314831  -0.567418  0  2.209821  0
O  O103  1  0.61204905  0.49083249  0.33822326  1  0  -0.626248  0  1.971319  0  0  -0.583158  0  2.203295  0  0  -0.60536  0  2.193502  0  0  -0.315033  -0.567618  0  2.209516  0
O  O104  1  0.17866610  0.49248049  0.16749831  1  0  -0.618583  0  2.012529  0  0  -0.55703  0  2.247233  0  0  -0.580658  0  2.241207  0  0  -0.29782  -0.540497  0  2.250662  0
O  O105  1  0.01828963  0.00763076  0.33272222  1  0  -0.618464  0  2.014102  0  0  -0.556676  0  2.247798  0  0  -0.580337  0  2.241755  0  0  -0.297256  -0.540123  0  2.251281  0
O  O106  1  0.82133016  0.50751853  0.83250416  1  0  -0.618555  0  2.012541  0  0  -0.557002  0  2.247267  0  0  -0.580619  0  2.24124  0  0  -0.297784  -0.540467  0  2.250695  0
O  O107  1  0.98171126  0.99237093  0.66727754  1  0  -0.618504  0  2.014056  0  0  -0.556697  0  2.247777  0  0  -0.580357  0  2.241734  0  0  -0.297262  -0.540144  0  2.251261  0
