# generated using pymatgen
data_H12PbC15(NO2)2
_symmetry_space_group_name_H-M   'P 1'
_cell_length_a   8.88636959
_cell_length_b   8.88565394
_cell_length_c   11.26351192
_cell_angle_alpha   106.84826661
_cell_angle_beta   106.87058967
_cell_angle_gamma   105.25909850
_symmetry_Int_Tables_number   1
_chemical_formula_structural   H12PbC15(NO2)2
_chemical_formula_sum   'H24 Pb2 C30 N4 O8'
_cell_volume   753.73631790
_cell_formula_units_Z   2
loop_
 _symmetry_equiv_pos_site_id
 _symmetry_equiv_pos_as_xyz
  1  'x, y, z'
loop_
 _atom_site_type_symbol
 _atom_site_label
 _atom_site_symmetry_multiplicity
 _atom_site_fract_x
 _atom_site_fract_y
 _atom_site_fract_z
 _atom_site_occupancy
 _atom_site_hle17_bader_spin_density
 _atom_site_hle17_ddec_charge
 _atom_site_hle17_ddec_spin_density
 _atom_site_hle17_ddec_sum_bond_order
 _atom_site_hle17_magmom
 _atom_site_hse06_10hf_bader_spin_density
 _atom_site_hse06_10hf_ddec_charge
 _atom_site_hse06_10hf_ddec_spin_density
 _atom_site_hse06_10hf_ddec_sum_bond_order
 _atom_site_hse06_10hf_magmom
 _atom_site_hse06_bader_spin_density
 _atom_site_hse06_ddec_charge
 _atom_site_hse06_ddec_spin_density
 _atom_site_hse06_ddec_sum_bond_order
 _atom_site_hse06_magmom
 _atom_site_pbe_bader_spin_density
 _atom_site_pbe_cm5_charge
 _atom_site_pbe_ddec_charge
 _atom_site_pbe_ddec_spin_density
 _atom_site_pbe_ddec_sum_bond_order
 _atom_site_pbe_magmom
H  H0  1  0.68019600  0.02420145  0.02212154  1  0  0.08166  0  0.932226  0  0  0.090086  0  0.995651  0  0  0.092721  0  0.993303  0  0  0.11799  0.088001  0  0.997562  0
H  H1  1  0.00300417  0.65837866  0.97803048  1  0  0.082038  0  0.93173  0  0  0.090257  0  0.99535  0  0  0.092952  0  0.992954  0  0  0.117824  0.088215  0  0.997285  0
H  H2  1  0.90813511  0.75315157  0.47817194  1  0  0.081875  0  0.931155  0  0  0.090013  0  0.994955  0  0  0.092703  0  0.992537  0  0  0.117656  0.08797  0  0.996895  0
H  H3  1  0.27505788  0.42952968  0.52193398  1  0  0.082619  0  0.930862  0  0  0.090504  0  0.994817  0  0  0.093137  0  0.992473  0  0  0.117799  0.088418  0  0.996739  0
H  H4  1  0.68795415  0.19375819  0.87973733  1  0  0.12755  0  0.949086  0  0  0.136724  0  1.010287  0  0  0.140802  0  1.007921  0  0  0.111809  0.133703  0  1.01222  0
H  H5  1  0.31460242  0.80884297  0.12025603  1  0  0.128195  0  0.95106  0  0  0.137319  0  1.012012  0  0  0.141404  0  1.00967  0  0  0.112213  0.134348  0  1.013942  0
H  H6  1  0.05841037  0.06470294  0.62042346  1  0  0.128985  0  0.950442  0  0  0.137676  0  1.011862  0  0  0.141753  0  1.009524  0  0  0.112405  0.134714  0  1.01378  0
H  H7  1  0.44416044  0.43754034  0.37926678  1  0  0.128127  0  0.949865  0  0  0.137371  0  1.010816  0  0  0.141456  0  1.008444  0  0  0.112333  0.134332  0  1.012777  0
H  H8  1  0.66782852  0.75423432  0.57088729  1  0  0.117315  0  0.948028  0  0  0.12657  0  1.01083  0  0  0.130316  0  1.008821  0  0  0.112177  0.123947  0  1.012198  0
H  H9  1  0.18293064  0.09699655  0.42881392  1  0  0.115988  0  0.948933  0  0  0.125873  0  1.011018  0  0  0.129631  0  1.009018  0  0  0.111923  0.123133  0  1.012735  0
H  H10  1  0.34715699  0.93317265  0.92890627  1  0  0.11622  0  0.948587  0  0  0.125968  0  1.01088  0  0  0.129694  0  1.00891  0  0  0.111976  0.123229  0  1.012589  0
H  H11  1  0.00426165  0.41835760  0.07123404  1  0  0.117177  0  0.94837  0  0  0.12641  0  1.011102  0  0  0.130176  0  1.009099  0  0  0.111982  0.123783  0  1.012474  0
H  H12  1  0.68532421  0.20580465  0.66391458  1  0  0.090298  0  0.955756  0  0  0.102917  0  1.022243  0  0  0.10556  0  1.020078  0  0  0.096273  0.100974  0  1.023814  0
H  H13  1  0.54198417  0.02194349  0.33614292  1  0  0.090564  0  0.95535  0  0  0.103186  0  1.021831  0  0  0.105848  0  1.019674  0  0  0.096256  0.10121  0  1.023447  0
H  H14  1  0.27244578  0.29221366  0.83599609  1  0  0.090534  0  0.955383  0  0  0.103057  0  1.021871  0  0  0.10569  0  1.019724  0  0  0.096065  0.101066  0  1.023495  0
H  H15  1  0.45580123  0.43602806  0.16356544  1  0  0.089527  0  0.956249  0  0  0.102348  0  1.02281  0  0  0.104978  0  1.020672  0  0  0.09622  0.100437  0  1.024345  0
H  H16  1  0.75261131  0.05918621  0.56650803  1  0  0.084034  0  0.960009  0  0  0.101457  0  1.022396  0  0  0.102417  0  1.022795  0  0  0.09725  0.100695  0  1.022196  0
H  H17  1  0.49250322  0.18649669  0.43340236  1  0  0.084924  0  0.958649  0  0  0.10233  0  1.021191  0  0  0.103325  0  1.021563  0  0  0.097238  0.101518  0  1.021091  0
H  H18  1  0.43665304  0.24243938  0.93348102  1  0  0.084701  0  0.958332  0  0  0.101838  0  1.021047  0  0  0.102831  0  1.021396  0  0  0.097078  0.101048  0  1.02092  0
H  H19  1  0.30880483  0.50312583  0.06622593  1  0  0.084203  0  0.959007  0  0  0.101737  0  1.021678  0  0  0.102752  0  1.022018  0  0  0.096834  0.100957  0  1.021497  0
H  H20  1  0.38772863  0.99601573  0.54480703  1  0  0.060837  0  0.932962  0  0  0.079813  0  0.991646  0  0  0.080321  0  0.992989  0  0  0.086991  0.079343  0  0.990887  0
H  H21  1  0.45093883  0.84333173  0.45526760  1  0  0.061554  0  0.933181  0  0  0.080307  0  0.992038  0  0  0.080817  0  0.99336  0  0  0.087838  0.079877  0  0.991144  0
H  H22  1  0.09334833  0.20139295  0.95497309  1  0  0.061513  0  0.933637  0  0  0.079924  0  0.992576  0  0  0.080494  0  0.993829  0  0  0.087341  0.079499  0  0.991686  0
H  H23  1  0.24599628  0.13833142  0.04482769  1  0  0.061206  0  0.934029  0  0  0.080344  0  0.992112  0  0  0.08085  0  0.993459  0  0  0.087583  0.079884  0  0.991342  0
Pb  Pb24  1  0.86936868  0.36924441  0.50028454  1  0  1.22291  0  1.595414  0  0  1.032129  0  2.012048  0  0  1.084542  0  1.974257  0  0  0.621983  0.993165  0  2.040287  0
Pb  Pb25  1  0.61950994  0.61922798  0.00015389  1  0  1.222434  0  1.595928  0  0  1.031826  0  2.012425  0  0  1.08415  0  1.974692  0  0  0.622164  0.992894  0  2.040676  0
C  C26  1  0.67871104  0.97058933  0.92121202  1  0  0.143019  0  3.714984  0  0  0.107848  0  3.98045  0  0  0.115736  0  3.997305  0  0  0.053279  0.102782  0  3.968784  0
C  C27  1  0.05004967  0.75782294  0.07883495  1  0  0.143789  0  3.714417  0  0  0.108971  0  3.979658  0  0  0.116778  0  3.996621  0  0  0.053536  0.103821  0  3.968198  0
C  C28  1  0.00755015  0.80017081  0.57899435  1  0  0.144358  0  3.713277  0  0  0.109585  0  3.978534  0  0  0.11741  0  3.995474  0  0  0.053774  0.104434  0  3.967071  0
C  C29  1  0.22123467  0.42825339  0.42110891  1  0  0.141732  0  3.715969  0  0  0.107032  0  3.981253  0  0  0.114908  0  3.998135  0  0  0.053048  0.101972  0  3.969566  0
C  C30  1  0.68216365  0.06378188  0.84085797  1  0  -0.166225  0  3.66366  0  0  -0.186867  0  3.913131  0  0  -0.193705  0  3.931916  0  0  -0.079797  -0.182322  0  3.900432  0
C  C31  1  0.22340590  0.84179802  0.15912123  1  0  -0.167106  0  3.665627  0  0  -0.187771  0  3.914803  0  0  -0.194643  0  3.933649  0  0  -0.08007  -0.183319  0  3.902424  0
C  C32  1  0.09148069  0.97351521  0.65928241  1  0  -0.169392  0  3.665609  0  0  -0.189708  0  3.915122  0  0  -0.196579  0  3.933952  0  0  -0.081011  -0.185238  0  3.902731  0
C  C33  1  0.31420343  0.43187323  0.34060892  1  0  -0.167398  0  3.665647  0  0  -0.188013  0  3.915213  0  0  -0.194852  0  3.933972  0  0  -0.080387  -0.183465  0  3.902538  0
C  C34  1  0.67513703  0.98689934  0.71083951  1  0  0.171824  0  3.709574  0  0  0.191034  0  3.945092  0  0  0.195973  0  3.96669  0  0  0.018639  0.187867  0  3.930322  0
C  C35  1  0.27618317  0.96478849  0.28901593  1  0  0.170508  0  3.710927  0  0  0.190169  0  3.946646  0  0  0.195106  0  3.968286  0  0  0.018168  0.186865  0  3.931812  0
C  C36  1  0.21467586  0.02637897  0.78914009  1  0  0.171416  0  3.710184  0  0  0.190958  0  3.945831  0  0  0.195875  0  3.967471  0  0  0.018234  0.18765  0  3.930982  0
C  C37  1  0.23714095  0.42545586  0.21080048  1  0  0.172352  0  3.709054  0  0  0.191372  0  3.945159  0  0  0.196335  0  3.966746  0  0  0.018544  0.188192  0  3.930408  0
C  C38  1  0.67164259  0.82085729  0.67018125  1  0  -0.167558  0  3.692645  0  0  -0.197068  0  3.940522  0  0  -0.203203  0  3.961534  0  0  -0.078506  -0.193089  0  3.926514  0
C  C39  1  0.15060873  0.00172233  0.32956834  1  0  -0.165673  0  3.69125  0  0  -0.195599  0  3.93896  0  0  -0.20173  0  3.960035  0  0  -0.078753  -0.191685  0  3.925311  0
C  C40  1  0.25164846  0.90080196  0.82972514  1  0  -0.166066  0  3.690041  0  0  -0.195951  0  3.938041  0  0  -0.202067  0  3.959115  0  0  -0.078686  -0.192024  0  3.924377  0
C  C41  1  0.07110984  0.42198168  0.17042558  1  0  -0.16823  0  3.692302  0  0  -0.197227  0  3.940039  0  0  -0.203376  0  3.961104  0  0  -0.078634  -0.193262  0  3.92601  0
C  C42  1  0.67091461  0.73646204  0.75643165  1  0  0.092563  0  3.764856  0  0  0.095742  0  4.006773  0  0  0.09744  0  4.026857  0  0  0.107407  0.094567  0  3.993124  0
C  C43  1  0.98020041  0.91459401  0.24337629  1  0  0.092851  0  3.765979  0  0  0.095681  0  4.00844  0  0  0.097277  0  4.028668  0  0  0.107739  0.094592  0  3.994822  0
C  C44  1  0.16446928  0.73036041  0.74358178  1  0  0.093103  0  3.765183  0  0  0.095974  0  4.007554  0  0  0.097559  0  4.027796  0  0  0.107576  0.094884  0  3.993936  0
C  C45  1  0.98695140  0.42094673  0.25677963  1  0  0.093142  0  3.763086  0  0  0.095574  0  4.005779  0  0  0.097193  0  4.025978  0  0  0.107024  0.094469  0  3.992026  0
C  C46  1  0.67122931  0.55764794  0.71478636  1  0  0.616473  0  3.948983  0  0  0.563876  0  4.25072  0  0  0.598072  0  4.242273  0  0  0.208136  0.540742  0  4.255203  0
C  C47  1  0.84298293  0.95647888  0.28505321  1  0  0.614903  0  3.953338  0  0  0.562357  0  4.255343  0  0  0.596586  0  4.246937  0  0  0.206763  0.539094  0  4.260015  0
C  C48  1  0.20649780  0.59320707  0.78532549  1  0  0.613919  0  3.95334  0  0  0.561409  0  4.255268  0  0  0.595636  0  4.246901  0  0  0.206231  0.53815  0  4.259925  0
C  C49  1  0.80809390  0.42118868  0.21509823  1  0  0.615881  0  3.950408  0  0  0.563348  0  4.252424  0  0  0.597573  0  4.243996  0  0  0.207927  0.540193  0  4.256896  0
C  C50  1  0.66017811  0.07055156  0.61254879  1  0  -0.193189  0  3.713306  0  0  -0.233872  0  3.955394  0  0  -0.236654  0  3.968194  0  0  -0.163147  -0.231655  0  3.94633  0
C  C51  1  0.45789100  0.04811013  0.38739929  1  0  -0.19368  0  3.714583  0  0  -0.234953  0  3.957156  0  0  -0.237798  0  3.970026  0  0  -0.162802  -0.232611  0  3.9479  0
C  C52  1  0.29831368  0.20811786  0.88736725  1  0  -0.193055  0  3.712885  0  0  -0.234049  0  3.955101  0  0  -0.236807  0  3.967828  0  0  -0.16245  -0.231765  0  3.945977  0
C  C53  1  0.32046716  0.41076932  0.11231890  1  0  -0.191952  0  3.712605  0  0  -0.23361  0  3.955465  0  0  -0.236495  0  3.968435  0  0  -0.162646  -0.231349  0  3.946313  0
C  C54  1  0.48058824  0.98090340  0.50002622  1  0  -0.066538  0  3.646543  0  0  -0.099409  0  3.898237  0  0  -0.100816  0  3.91277  0  0  -0.153745  -0.098214  0  3.888015  0
C  C55  1  0.23091989  0.23109069  0.99988318  1  0  -0.067884  0  3.647796  0  0  -0.099916  0  3.898454  0  0  -0.101358  0  3.912971  0  0  -0.153682  -0.098742  0  3.888245  0
N  N56  1  0.67155586  0.81044969  0.87945626  1  0  -0.348365  0  3.274233  0  0  -0.278293  0  3.522736  0  0  -0.29712  0  3.545052  0  0  -0.300487  -0.265234  0  3.507235  0
N  N57  1  0.93146921  0.79220018  0.12050853  1  0  -0.349423  0  3.275553  0  0  -0.279497  0  3.524436  0  0  -0.298292  0  3.546803  0  0  -0.300372  -0.266364  0  3.508785  0
N  N58  1  0.04204373  0.68157885  0.62067566  1  0  -0.349701  0  3.273397  0  0  -0.279772  0  3.522358  0  0  -0.298568  0  3.544722  0  0  -0.300131  -0.266641  0  3.506716  0
N  N59  1  0.06112257  0.42131135  0.37968990  1  0  -0.348382  0  3.272238  0  0  -0.278006  0  3.520742  0  0  -0.296788  0  3.543052  0  0  -0.299916  -0.264976  0  3.505233  0
O  O60  1  0.65754956  0.48642268  0.59536556  1  0  -0.650992  0  1.993323  0  0  -0.593093  0  2.234184  0  0  -0.619955  0  2.226302  0  0  -0.312277  -0.573912  0  2.239097  0
O  O61  1  0.89093673  0.06217192  0.40439203  1  0  -0.651211  0  1.994895  0  0  -0.593249  0  2.235705  0  0  -0.620177  0  2.227888  0  0  -0.312318  -0.574031  0  2.240507  0
O  O62  1  0.31248313  0.64135218  0.90461548  1  0  -0.650238  0  1.994086  0  0  -0.592429  0  2.235057  0  0  -0.61925  0  2.227036  0  0  -0.31194  -0.573216  0  2.239858  0
O  O63  1  0.73689297  0.40764996  0.09569668  1  0  -0.650752  0  1.993841  0  0  -0.592755  0  2.23454  0  0  -0.619627  0  2.226692  0  0  -0.311948  -0.57356  0  2.239416  0
O  O64  1  0.68694818  0.49304614  0.80329077  1  0  -0.637278  0  1.951272  0  0  -0.572905  0  2.184166  0  0  -0.60013  0  2.173832  0  0  -0.31001  -0.553421  0  2.190559  0
O  O65  1  0.69004258  0.88360378  0.19667893  1  0  -0.635869  0  1.953478  0  0  -0.57138  0  2.186271  0  0  -0.598671  0  2.17601  0  0  -0.308931  -0.551957  0  2.192643  0
O  O66  1  0.13361540  0.44019973  0.69709774  1  0  -0.635779  0  1.953644  0  0  -0.571134  0  2.186324  0  0  -0.598467  0  2.176087  0  0  -0.308652  -0.551688  0  2.192669  0
O  O67  1  0.74337127  0.43662492  0.30350064  1  0  -0.636886  0  1.952358  0  0  -0.572392  0  2.185323  0  0  -0.59965  0  2.175014  0  0  -0.309931  -0.552896  0  2.19171  0
