# generated using pymatgen
data_ZnH11C9N5O4
_symmetry_space_group_name_H-M   'P 1'
_cell_length_a   9.02082388
_cell_length_b   9.74572926
_cell_length_c   10.94615503
_cell_angle_alpha   89.09147037
_cell_angle_beta   86.05737207
_cell_angle_gamma   101.41243319
_symmetry_Int_Tables_number   1
_chemical_formula_structural   ZnH11C9N5O4
_chemical_formula_sum   'Zn2 H22 C18 N10 O8'
_cell_volume   940.63939297
_cell_formula_units_Z   2
loop_
 _symmetry_equiv_pos_site_id
 _symmetry_equiv_pos_as_xyz
  1  'x, y, z'
loop_
 _atom_site_type_symbol
 _atom_site_label
 _atom_site_symmetry_multiplicity
 _atom_site_fract_x
 _atom_site_fract_y
 _atom_site_fract_z
 _atom_site_occupancy
 _atom_site_pbe_bader_charge
 _atom_site_pbe_bader_spin_density
 _atom_site_pbe_cm5_charge
 _atom_site_pbe_ddec_charge
 _atom_site_pbe_ddec_spin_density
 _atom_site_pbe_ddec_sum_bond_order
 _atom_site_pbe_magmom
Zn  Zn0  1  0.48734925  0.35016656  0.50114648  1  1.29169  0  0.678596  0.842071  0  2.387746  0
Zn  Zn1  1  0.51974458  0.65313604  0.49641285  1  1.29095  0  0.677711  0.841475  0  2.367073  0
H  H2  1  0.69757225  0.64420391  0.85067753  1  0.065565  0  0.102137  0.113649  0  1.004356  0
H  H3  1  0.81825940  0.68622289  0.26344569  1  0.075047  0  0.093124  0.108965  0  1.018118  0
H  H4  1  0.15699740  0.32878758  0.98581601  1  0.383409  0  0.290827  0.230922  0  0.960048  0
H  H5  1  0.28053278  0.12524463  0.93751383  1  -0.009726  0  0.07226  0.060946  0  1.017959  0
H  H6  1  0.30817809  0.19938363  0.78506288  1  0.067347  0  0.094473  0.11383  0  1.033875  0
H  H7  1  0.12131769  0.14343503  0.85372521  1  -0.001718  0  0.093125  0.097747  0  0.991006  0
H  H8  1  0.28864265  0.85422067  0.28360122  1  0.462265  0  0.306849  0.298025  0  0.953498  0
H  H9  1  0.42515024  0.75222802  0.29199450  1  0.515751  0  0.298196  0.315238  0  0.984982  0
H  H10  1  0.62540984  0.09936327  0.76459662  1  0.433415  0  0.308969  0.299415  0  0.939896  0
H  H11  1  0.57671285  0.24589138  0.70665339  1  0.502357  0  0.297308  0.309717  0  0.991586  0
H  H12  1  0.34316466  0.09364776  0.25676951  1  0.454106  0  0.304086  0.296968  0  0.9441  0
H  H13  1  0.32371348  0.34870392  0.14391379  1  0.049496  0  0.099026  0.108019  0  1.00911  0
H  H14  1  0.29277308  0.19731692  0.36805704  1  0.500961  0  0.295428  0.307057  0  0.985977  0
H  H15  1  0.73572035  0.81509714  0.61646689  1  0.500541  0  0.299808  0.31399  0  0.98158  0
H  H16  1  0.77867033  0.97931736  0.67521401  1  0.438202  0  0.308064  0.297515  0  0.950527  0
H  H17  1  0.15410761  0.71691567  0.49529715  1  0.463581  0  0.285534  0.293059  0  1.018826  0
H  H18  1  0.98094054  0.77002895  0.48728415  1  0.439264  0  0.290134  0.284772  0  0.985938  0
H  H19  1  0.85540915  0.28897921  0.51550794  1  0.486386  0  0.286489  0.295214  0  1.015008  0
H  H20  1  0.03242677  0.24017587  0.50833725  1  0.458871  0  0.293205  0.291896  0  0.975557  0
H  H21  1  0.85251497  0.69888268  0.00181585  1  0.420084  0  0.310723  0.249186  0  0.949402  0
H  H22  1  0.97891449  0.66846803  0.16510324  1  0.063932  0  0.101109  0.103879  0  0.986339  0
H  H23  1  0.83619497  0.51897325  0.20834163  1  0.053929  0  0.099439  0.10975  0  0.984522  0
C  C24  1  0.47372097  0.50275400  0.73748336  1  1.57869  0  0.227866  0.623067  0  4.13323  0
C  C25  1  0.37767742  0.41083926  0.95440569  1  0.371492  0  0.065821  0.16598  0  4.062506  0
C  C26  1  0.53525779  0.49571623  0.12343499  1  -0.014574  0  -0.034728  -0.129323  0  3.976109  0
C  C27  1  0.48667379  0.49770523  0.87307147  1  -0.006493  0  -0.017484  -0.080776  0  3.966289  0
C  C28  1  0.44697470  0.92053284  0.40478052  1  1.016133  0  0.210748  0.298769  0  4.09397  0
C  C29  1  0.56155839  0.08171121  0.59154528  1  0.947616  0  0.202811  0.279632  0  4.082661  0
C  C30  1  0.41465608  0.05537235  0.42250195  1  0.97565  0  0.203332  0.286753  0  4.071763  0
C  C31  1  0.59970341  0.94986470  0.57023322  1  1.009804  0  0.209234  0.29631  0  4.088277  0
C  C32  1  0.85624156  0.63169379  0.18375222  1  0.236612  0  -0.142553  -0.214151  0  3.981216  0
C  C33  1  0.23794963  0.19295302  0.87137272  1  0.298852  0  -0.155183  -0.213556  0  4.005069  0
C  C34  1  0.53813311  0.49559955  0.25951371  1  1.534869  0  0.217627  0.612214  0  4.16721  0
C  C35  1  0.79977984  0.54026334  0.51153677  1  1.519527  0  0.206809  0.55117  0  4.163979  0
C  C36  1  0.20817519  0.46798303  0.48720650  1  1.546437  0  0.211106  0.561985  0  4.147636  0
C  C37  1  0.96672770  0.56049034  0.50602235  1  0.384428  0  0.064738  0.045178  0  4.03323  0
C  C38  1  0.04049411  0.44809862  0.49509287  1  0.411748  0  0.070175  0.054842  0  4.028128  0
C  C39  1  0.61593791  0.57877517  0.91647480  1  -0.053148  0  -0.103594  -0.218098  0  3.984812  0
C  C40  1  0.40678490  0.41224162  0.07789553  1  -0.03  0  -0.103702  -0.205326  0  4.02388  0
C  C41  1  0.64627114  0.57899783  0.04132734  1  0.437236  0  0.095523  0.208943  0  4.08879  0
N  N42  1  0.47432893  0.13411633  0.51428211  1  -1.257867  0  -0.334268  -0.366768  0  3.465079  0
N  N43  1  0.69784016  0.90281261  0.64395018  1  -1.229199  0  -0.59079  -0.622926  0  3.318386  0
N  N44  1  0.53565970  0.86873888  0.48110668  1  -1.250362  0  -0.336708  -0.370929  0  3.447159  0
N  N45  1  0.04012137  0.69875944  0.51589552  1  -1.198966  0  -0.618477  -0.611447  0  3.388851  0
N  N46  1  0.96762945  0.31011793  0.48767263  1  -1.220672  0  -0.613179  -0.60423  0  3.396066  0
N  N47  1  0.78140447  0.65789511  0.07462219  1  -1.170197  0  -0.448811  -0.296173  0  3.578576  0
N  N48  1  0.23798851  0.33463804  0.91518576  1  -1.076995  0  -0.4778  -0.349295  0  3.453656  0
N  N49  1  0.39429847  0.84669649  0.30566488  1  -1.284241  0  -0.591597  -0.623097  0  3.323673  0
N  N50  1  0.62133884  0.15874077  0.68801305  1  -1.23894  0  -0.595069  -0.632786  0  3.303372  0
N  N51  1  0.31489288  0.10097478  0.34793004  1  -1.260895  0  -0.601281  -0.638374  0  3.290372  0
O  O52  1  0.46098464  0.38529969  0.68418309  1  -1.177174  0  -0.307973  -0.556479  0  2.399497  0
O  O53  1  0.54631643  0.61361461  0.31106415  1  -1.181318  0  -0.309472  -0.555685  0  2.360117  0
O  O54  1  0.48388445  0.62080445  0.68454137  1  -1.152286  0  -0.30725  -0.526176  0  2.311113  0
O  O55  1  0.52432308  0.37781311  0.31491322  1  -1.160934  0  -0.316934  -0.551648  0  2.356828  0
O  O56  1  0.71933118  0.41663306  0.51102035  1  -1.166153  0  -0.308463  -0.53226  0  2.381207  0
O  O57  1  0.28856603  0.59198178  0.48710253  1  -1.171797  0  -0.31082  -0.542219  0  2.394368  0
O  O58  1  0.74454274  0.65269166  0.51462159  1  -1.179881  0  -0.324306  -0.569413  0  2.385201  0
O  O59  1  0.26307361  0.35605795  0.48123734  1  -1.19271  0  -0.321971  -0.55701  0  2.357302  0
