# generated using pymatgen
data_Gd2CuH18C14S2(NO11)2
_symmetry_space_group_name_H-M   'P 1'
_cell_length_a   6.31419987
_cell_length_b   9.88391534
_cell_length_c   9.94031127
_cell_angle_alpha   95.45659900
_cell_angle_beta   92.89388937
_cell_angle_gamma   98.52843108
_symmetry_Int_Tables_number   1
_chemical_formula_structural   Gd2CuH18C14S2(NO11)2
_chemical_formula_sum   'Gd2 Cu1 H18 C14 S2 N2 O22'
_cell_volume   609.40938866
_cell_formula_units_Z   1
loop_
 _symmetry_equiv_pos_site_id
 _symmetry_equiv_pos_as_xyz
  1  'x, y, z'
loop_
 _atom_site_type_symbol
 _atom_site_label
 _atom_site_symmetry_multiplicity
 _atom_site_fract_x
 _atom_site_fract_y
 _atom_site_fract_z
 _atom_site_occupancy
 _atom_site_hle17_ddec_charge
 _atom_site_hle17_ddec_spin_density
 _atom_site_hle17_ddec_sum_bond_order
 _atom_site_hle17_magmom
 _atom_site_hse06_10hf_ddec_charge
 _atom_site_hse06_10hf_ddec_spin_density
 _atom_site_hse06_10hf_ddec_sum_bond_order
 _atom_site_hse06_10hf_magmom
 _atom_site_hse06_ddec_charge
 _atom_site_hse06_ddec_spin_density
 _atom_site_hse06_ddec_sum_bond_order
 _atom_site_hse06_magmom
 _atom_site_pbe_cm5_charge
 _atom_site_pbe_ddec_charge
 _atom_site_pbe_ddec_spin_density
 _atom_site_pbe_ddec_sum_bond_order
 _atom_site_pbe_magmom
Gd  Gd0  1  0.06982953  0.46579831  0.74330585  1  2.246738  -0.000105  1.73479  0.0  2.166931  -8.7e-05  2.080699  0.0  2.21233  -2.4e-05  2.033461  0.0  1.478255  2.127505  -0.000202  2.125924  0.0
Gd  Gd1  1  0.93016550  0.53421998  0.25669228  1  2.246479  -0.000106  1.734935  0.0  2.166838  -8.7e-05  2.080614  0.0  2.212137  -2.3e-05  2.033535  0.0  1.478208  2.12744  -0.000202  2.125828  0.0
Cu  Cu2  1  0.50000397  0.99999424  0.99999802  1  0.92553  -0.723125  1.751195  -0.546  0.904765  -0.800534  2.127875  -0.658  1.002189  -0.859162  2.036506  -0.736  0.758918  0.853082  -0.758177  2.170001  -0.606
H  H3  1  0.33379001  0.78796955  0.78822004  1  0.099567  -0.001319  0.969151  -0.003  0.099199  -0.000873  1.045186  -0.002  0.10171  -0.000572  1.041114  -0.001  0.128294  0.097098  -0.001129  1.048502  -0.002
H  H4  1  0.66624444  0.21202362  0.21177652  1  0.099568  -0.001321  0.969163  -0.003  0.09916  -0.000873  1.04525  -0.002  0.10168  -0.000573  1.041152  -0.001  0.128283  0.097074  -0.001128  1.048568  -0.002
H  H5  1  0.46841080  0.21456184  0.80314874  1  0.1111  -0.001164  0.93655  -0.002  0.114846  -0.00083  1.003366  -0.001  0.117163  -0.000569  1.000295  -0.001  0.131173  0.112884  -0.001031  1.005855  -0.002
H  H6  1  0.53158112  0.78543277  0.19684913  1  0.111119  -0.00116  0.936382  -0.002  0.114842  -0.000829  1.003219  -0.001  0.117159  -0.000569  1.000155  -0.001  0.131173  0.112887  -0.00103  1.005712  -0.002
H  H7  1  0.19074343  0.98185228  0.43171887  1  0.121707  -0.000422  0.922709  -0.001  0.129268  -7.3e-05  0.985691  0.0  0.132938  7e-06  0.982201  0.0  0.118244  0.126316  -0.000133  0.988751  0.0
H  H8  1  0.80923648  0.01814554  0.56828481  1  0.121648  -0.000417  0.922764  -0.001  0.129182  -7.3e-05  0.985769  0.0  0.132874  7e-06  0.982251  0.0  0.118195  0.126225  -0.000133  0.988809  0.0
H  H9  1  0.60694781  0.46599624  0.64326452  1  0.44139  2e-06  0.838669  0.0  0.414879  -2e-06  0.90187  0.0  0.424634  -1e-06  0.887754  0.0  0.314003  0.407925  -3e-06  0.911937  0.0
H  H10  1  0.39304167  0.53399426  0.35672483  1  0.44136  1e-06  0.838709  0.0  0.414853  -2e-06  0.901903  0.0  0.424606  -1e-06  0.88779  0.0  0.314029  0.407908  -3e-06  0.911966  0.0
H  H11  1  0.72006128  0.62317094  0.64045881  1  0.436594  -3.8e-05  0.866885  0.0  0.403087  -2.9e-05  0.933368  0.0  0.415651  -1.5e-05  0.915358  0.0  0.298675  0.394216  -5.9e-05  0.946038  0.0
H  H12  1  0.27992289  0.37682478  0.35954285  1  0.436477  -3.9e-05  0.867075  0.0  0.402964  -3e-05  0.933565  0.0  0.415529  -1.6e-05  0.915555  0.0  0.298615  0.394103  -5.9e-05  0.946225  0.0
H  H13  1  0.55721883  0.55666699  0.82192776  1  0.461112  -2.4e-05  0.823731  0.0  0.433642  -3.7e-05  0.879931  0.0  0.444867  -2.7e-05  0.86354  0.0  0.31167  0.425542  -5.7e-05  0.891737  0.0
H  H14  1  0.44276962  0.44332044  0.17806932  1  0.461103  -2.4e-05  0.823753  0.0  0.433602  -3.7e-05  0.880008  0.0  0.444827  -2.7e-05  0.863616  0.0  0.311623  0.425502  -5.7e-05  0.891821  0.0
H  H15  1  0.42905958  0.58658209  0.95726394  1  0.448613  6e-06  0.82133  0.0  0.423499  5e-06  0.883395  0.0  0.432263  4e-06  0.870422  0.0  0.319236  0.417025  8e-06  0.893023  0.0
H  H16  1  0.57097807  0.41325441  0.04277599  1  0.448679  6e-06  0.821312  0.0  0.42359  5e-06  0.883266  0.0  0.432348  4e-06  0.870307  0.0  0.31945  0.417123  8e-06  0.892882  0.0
H  H17  1  0.20096197  0.09454572  0.09917455  1  0.45031  0.00121  0.78125  0.002  0.432512  0.000294  0.835531  0.0  0.441709  0.000428  0.826491  0.0  0.329841  0.425617  0.000166  0.842868  0.0
H  H18  1  0.79911107  0.90550797  0.90086839  1  0.450444  0.001212  0.780941  0.002  0.432542  0.000294  0.835384  0.0  0.441785  0.000429  0.826262  0.0  0.329748  0.425612  0.000167  0.842755  0.0
H  H19  1  0.26711807  0.20157982  0.99505869  1  0.432267  0.000269  0.864264  0.0  0.404984  -0.000376  0.927804  -0.001  0.415841  -0.000204  0.912406  0.0  0.303016  0.397168  -0.000519  0.938922  -0.001
H  H20  1  0.73287887  0.79841987  0.00492175  1  0.432318  0.000271  0.864182  0.0  0.405001  -0.000376  0.927779  -0.001  0.415858  -0.000204  0.912386  0.0  0.302953  0.397181  -0.000519  0.938906  -0.001
C  C21  1  0.32768930  0.87907586  0.73601664  1  0.169826  0.012805  3.604388  0.008  0.128321  0.002988  3.858203  0.002  0.142762  0.004771  3.874292  0.003  0.071415  0.119164  0.001651  3.848242  0.001
C  C22  1  0.67232510  0.12091956  0.26398027  1  0.169544  0.01282  3.604594  0.008  0.128168  0.002987  3.858276  0.002  0.142606  0.004773  3.87438  0.003  0.071338  0.118999  0.00165  3.848342  0.001
C  C23  1  0.40078267  0.11746335  0.74518003  1  0.162565  0.011395  3.596376  0.007  0.120683  0.002104  3.854688  0.001  0.134719  0.003801  3.87104  0.002  0.070861  0.111923  0.000722  3.844568  0.0
C  C24  1  0.59921565  0.88253224  0.25482525  1  0.162714  0.011382  3.596086  0.007  0.120829  0.002105  3.854375  0.001  0.134857  0.003805  3.870729  0.002  0.070952  0.112069  0.000724  3.844289  0.0
C  C25  1  0.31542525  0.24631128  0.54776835  1  0.686037  -0.000591  3.889734  0.0  0.628934  -0.000515  4.196173  -0.001  0.663079  -0.000347  4.18891  0.0  0.225861  0.605854  -0.000682  4.200077  -0.001
C  C26  1  0.68456563  0.75368540  0.45222966  1  0.685869  -0.000588  3.889936  0.0  0.628722  -0.000514  4.196403  -0.001  0.662861  -0.000346  4.189154  0.0  0.225889  0.605642  -0.000682  4.200301  -0.001
C  C27  1  0.17002024  0.72768518  0.52881781  1  0.732859  -0.000443  3.862899  0.0  0.684816  -0.000388  4.156289  0.0  0.721184  -0.000259  4.145552  0.0  0.239613  0.660053  -0.000529  4.162576  -0.001
C  C28  1  0.82997357  0.27232178  0.47117321  1  0.732811  -0.000444  3.863084  0.0  0.684831  -0.000388  4.156393  0.0  0.721202  -0.00026  4.145642  0.0  0.239567  0.660067  -0.000529  4.162682  -0.001
C  C29  1  0.32146727  0.11467304  0.61115438  1  -0.116685  -0.010484  3.710887  -0.012  -0.091863  -0.003804  3.954254  -0.005  -0.106777  -0.003265  3.977073  -0.004  -0.005859  -0.082765  -0.004347  3.939442  -0.005
C  C30  1  0.67852791  0.88532877  0.38885234  1  -0.116845  -0.010485  3.711275  -0.012  -0.09189  -0.003802  3.954453  -0.005  -0.106792  -0.003265  3.977262  -0.004  -0.005853  -0.082798  -0.004345  3.939667  -0.005
C  C31  1  0.24867959  0.86750201  0.60122709  1  -0.113668  -0.010478  3.70801  -0.012  -0.088804  -0.003785  3.94306  -0.005  -0.104059  -0.003226  3.965568  -0.004  -0.00534  -0.079522  -0.004308  3.928493  -0.005
C  C32  1  0.75132343  0.13249354  0.39878041  1  -0.113698  -0.010482  3.707691  -0.012  -0.088932  -0.003784  3.942782  -0.005  -0.104193  -0.003227  3.965302  -0.004  -0.005412  -0.079646  -0.004308  3.928229  -0.005
C  C33  1  0.24771098  0.98726444  0.53761143  1  0.00016  0.013947  3.65188  0.009  -0.042455  0.004635  3.904284  0.003  -0.033063  0.005057  3.919228  0.003  -0.046293  -0.04865  0.004392  3.894869  0.002
C  C34  1  0.75228075  0.01273019  0.46239348  1  0.000493  0.013934  3.651777  0.009  -0.042119  0.004627  3.904166  0.003  -0.032737  0.005064  3.919086  0.003  -0.046117  -0.048292  0.004391  3.894731  0.002
S  S35  1  0.92274167  0.28150122  0.96590527  1  1.573941  0.000246  5.891112  0.0  1.463879  2.6e-05  6.427617  0.0  1.519455  6.7e-05  6.391213  0.0  0.554697  1.425535  1e-06  6.450504  0.0
S  S36  1  0.07725246  0.71849542  0.03408987  1  1.573657  0.000245  5.891278  0.0  1.463649  2.7e-05  6.427732  0.0  1.519232  6.4e-05  6.391318  0.0  0.554688  1.425309  0.0  6.450595  0.0
N  N37  1  0.40220580  0.00142012  0.80585061  1  -0.302795  -0.085364  3.299285  -0.111  -0.25752  -0.052364  3.599973  -0.072  -0.294562  -0.041552  3.621507  -0.062  -0.34778  -0.236148  -0.059033  3.58578  -0.078
N  N38  1  0.59779773  0.99857644  0.19414795  1  -0.302749  -0.085346  3.299178  -0.111  -0.257526  -0.052353  3.599829  -0.072  -0.294566  -0.041544  3.621369  -0.062  -0.347803  -0.236152  -0.059013  3.585664  -0.078
O  O39  1  0.78982181  0.36806741  0.89238944  1  -0.784342  -0.000234  1.967971  0.0  -0.737453  -9e-05  2.226637  0.0  -0.758517  -2.2e-05  2.209236  0.0  -0.386015  -0.721792  -0.000146  2.23787  0.0
O  O40  1  0.21013414  0.63190486  0.10760386  1  -0.784262  -0.000229  1.9683  0.0  -0.737424  -8.9e-05  2.226951  0.0  -0.758481  -2.2e-05  2.209552  0.0  -0.385988  -0.721742  -0.000145  2.23817  0.0
O  O41  1  0.13573654  0.29867117  0.90022597  1  -0.820848  -0.000858  2.014539  -0.001  -0.768116  -0.000575  2.267101  -0.001  -0.789611  -0.000275  2.248547  0.0  -0.410065  -0.751907  -0.001004  2.279618  -0.001
O  O42  1  0.86427377  0.70137690  0.09979261  1  -0.82063  -0.000864  2.014409  -0.001  -0.767934  -0.000579  2.266998  -0.001  -0.78942  -0.000274  2.248445  0.0  -0.409914  -0.751719  -0.001003  2.279518  -0.001
O  O43  1  0.82878356  0.13561522  0.95233699  1  -0.729481  0.001084  1.985508  -0.001  -0.692089  0.001106  2.252928  0.0  -0.716264  0.001461  2.230348  0.0  -0.358669  -0.676589  0.000669  2.267605  -0.001
O  O44  1  0.17127695  0.86437252  0.04764109  1  -0.729506  0.001081  1.985551  -0.001  -0.69211  0.001104  2.252928  0.0  -0.716286  0.001459  2.230347  0.0  -0.358761  -0.676607  0.000667  2.267591  -0.001
O  O45  1  0.32636478  0.14736193  0.06452878  1  -0.769469  -0.061613  1.931747  -0.085  -0.739487  -0.044832  2.152096  -0.066  -0.772292  -0.03422  2.121394  -0.055  -0.559878  -0.719351  -0.051873  2.17255  -0.073
O  O46  1  0.67367985  0.85266205  0.93545290  1  -0.769494  -0.061669  1.931319  -0.085  -0.73944  -0.044858  2.151743  -0.066  -0.772302  -0.034238  2.120981  -0.055  -0.559739  -0.719264  -0.051908  2.172234  -0.073
O  O47  1  0.96164807  0.33535736  0.11085735  1  -0.79907  -0.000766  2.06647  -0.001  -0.751232  -0.000661  2.334668  -0.001  -0.773455  -0.000431  2.31774  0.0  -0.424218  -0.734636  -0.0009  2.34562  -0.001
O  O48  1  0.03828643  0.66463059  0.88914347  1  -0.798923  -0.000765  2.066455  -0.001  -0.751057  -0.00066  2.334552  -0.001  -0.773294  -0.000431  2.317621  0.0  -0.424347  -0.734473  -0.000901  2.345496  -0.001
O  O49  1  0.33692548  0.35876596  0.62770199  1  -0.752636  -0.000439  2.031455  -0.001  -0.701469  -8.1e-05  2.282111  0.0  -0.726727  -6.4e-05  2.269935  0.0  -0.392534  -0.682796  -0.000117  2.291534  0.0
O  O50  1  0.66307323  0.64123789  0.37231110  1  -0.752466  -0.000437  2.031928  -0.001  -0.701311  -8e-05  2.282607  0.0  -0.726557  -6.5e-05  2.270449  0.0  -0.392529  -0.68264  -0.000117  2.292037  0.0
O  O51  1  0.11704063  0.72077672  0.40304194  1  -0.715068  -0.00176  2.019107  -0.002  -0.677406  -0.00057  2.270981  -0.001  -0.703577  -0.000348  2.261309  -0.001  -0.384068  -0.657978  -0.000785  2.277048  -0.001
O  O52  1  0.88295049  0.27923337  0.59696132  1  -0.715207  -0.001763  2.018878  -0.002  -0.677512  -0.00057  2.270683  -0.001  -0.703734  -0.000348  2.261076  -0.001  -0.384092  -0.658091  -0.000785  2.276772  -0.001
O  O53  1  0.16203407  0.62430893  0.59615981  1  -0.746294  -0.00046  2.072228  -0.001  -0.71163  -0.0001  2.344006  0.0  -0.735797  -0.0001  2.328893  0.0  -0.408115  -0.693997  -0.000127  2.355484  0.0
O  O54  1  0.83795072  0.37568884  0.40383905  1  -0.746171  -0.000456  2.072628  -0.001  -0.711572  -9.9e-05  2.344395  0.0  -0.735718  -0.000101  2.329294  0.0  -0.408044  -0.693943  -0.000127  2.355891  0.0
O  O55  1  0.28871577  0.23781989  0.42079986  1  -0.580168  -0.002502  1.953132  -0.003  -0.524474  -0.000674  2.16588  -0.001  -0.549855  -0.000419  2.158689  -0.001  -0.288479  -0.506143  -0.001231  2.16997  -0.002
O  O56  1  0.71128028  0.76217986  0.57921274  1  -0.580095  -0.002502  1.952625  -0.003  -0.524439  -0.000674  2.165434  -0.001  -0.549824  -0.00042  2.158253  -0.001  -0.288511  -0.506112  -0.001231  2.169539  -0.002
O  O57  1  0.72401103  0.53582341  0.68777465  1  -0.898051  -0.000262  1.925312  0.0  -0.849574  -9.8e-05  2.122141  0.0  -0.871052  -4.8e-05  2.089496  0.0  -0.616525  -0.833309  -0.00021  2.144788  0.0
O  O58  1  0.27598427  0.46416497  0.31221375  1  -0.897868  -0.000261  1.925455  0.0  -0.849419  -9.8e-05  2.122329  0.0  -0.870888  -4.8e-05  2.089698  0.0  -0.616399  -0.833155  -0.00021  2.144964  0.0
O  O59  1  0.41496478  0.55207851  0.86146148  1  -0.909046  -5.2e-05  1.877863  0.0  -0.868366  -3.7e-05  2.078407  0.0  -0.885817  -2.6e-05  2.045191  0.0  -0.64049  -0.854901  -9e-05  2.102518  0.0
O  O60  1  0.58501238  0.44805949  0.13849636  1  -0.909063  -5.2e-05  1.877746  0.0  -0.868398  -3.7e-05  2.078228  0.0  -0.885835  -2.5e-05  2.045019  0.0  -0.640649  -0.854924  -9e-05  2.102332  0.0
