# generated using pymatgen
data_AgH13C14(NO)2
_symmetry_space_group_name_H-M   'P 1'
_cell_length_a   6.70756428
_cell_length_b   22.81620929
_cell_length_c   24.04704067
_cell_angle_alpha   90.00164420
_cell_angle_beta   104.53195376
_cell_angle_gamma   90.00176373
_symmetry_Int_Tables_number   1
_chemical_formula_structural   AgH13C14(NO)2
_chemical_formula_sum   'Ag8 H104 C112 N16 O16'
_cell_volume   3562.45062261
_cell_formula_units_Z   8
loop_
 _symmetry_equiv_pos_site_id
 _symmetry_equiv_pos_as_xyz
  1  'x, y, z'
loop_
 _atom_site_type_symbol
 _atom_site_label
 _atom_site_symmetry_multiplicity
 _atom_site_fract_x
 _atom_site_fract_y
 _atom_site_fract_z
 _atom_site_occupancy
 _atom_site_pbe_bader_charge
 _atom_site_pbe_bader_spin_density
 _atom_site_pbe_cm5_charge
 _atom_site_pbe_ddec_charge
 _atom_site_pbe_ddec_spin_density
 _atom_site_pbe_ddec_sum_bond_order
 _atom_site_pbe_magmom
Ag  Ag0  1  0.05448198  0.46496600  0.24114643  1  0.640137  0  0.462741  0.379529  0  2.090809  0
Ag  Ag1  1  0.94547910  0.96496409  0.25884617  1  0.640126  0  0.462733  0.37976  0  2.090462  0
Ag  Ag2  1  0.94546580  0.53504200  0.75884152  1  0.640095  0  0.462704  0.37959  0  2.090338  0
Ag  Ag3  1  0.05454642  0.03503997  0.74115931  1  0.640006  0  0.462699  0.379597  0  2.090319  0
Ag  Ag4  1  0.45514061  0.52322155  0.25122072  1  0.58046  0  0.460262  0.345667  0  1.900168  0
Ag  Ag5  1  0.54485830  0.02322305  0.24877814  1  0.580632  0  0.46013  0.345679  0  1.899651  0
Ag  Ag6  1  0.54484167  0.47677418  0.74876097  1  0.580609  0  0.46025  0.345744  0  1.899927  0
Ag  Ag7  1  0.45519449  0.97677269  0.75123784  1  0.580673  0  0.460231  0.345745  0  1.899798  0
H  H8  1  0.16640747  0.36655963  0.33357706  1  0.150767  0  0.114507  0.101089  0  1.018792  0
H  H9  1  0.83349769  0.86654548  0.16643240  1  0.150585  0  0.114563  0.101273  0  1.018787  0
H  H10  1  0.83354577  0.63344750  0.66643493  1  0.150319  0  0.114492  0.101132  0  1.018806  0
H  H11  1  0.16651315  0.13346384  0.83356945  1  0.15089  0  0.114455  0.101108  0  1.018757  0
H  H12  1  0.18830640  0.25730202  0.34116077  1  0.052897  0  0.102296  0.105298  0  1.010169  0
H  H13  1  0.81159645  0.75728914  0.15884576  1  0.052725  0  0.102342  0.105304  0  1.010299  0
H  H14  1  0.81166502  0.74270467  0.65885127  1  0.052975  0  0.10234  0.105299  0  1.010182  0
H  H15  1  0.18840389  0.24271974  0.84114599  1  0.052765  0  0.102366  0.105368  0  1.010371  0
H  H16  1  0.93547545  0.25077309  0.15715404  1  0.065627  0  0.103889  0.107254  0  1.006965  0
H  H17  1  0.06456639  0.75076946  0.34284361  1  0.065514  0  0.103938  0.107251  0  1.007034  0
H  H18  1  0.06453349  0.74923535  0.84285690  1  0.065171  0  0.10387  0.10722  0  1.006795  0
H  H19  1  0.93543063  0.24922715  0.65714715  1  0.065252  0  0.103891  0.107296  0  1.006775  0
H  H20  1  0.91938696  0.36035477  0.15864565  1  0.162831  0  0.11557  0.102488  0  1.030196  0
H  H21  1  0.08061443  0.86035389  0.34135872  1  0.162758  0  0.115558  0.10243  0  1.030039  0
H  H22  1  0.08058421  0.63965060  0.84136555  1  0.162549  0  0.115561  0.102362  0  1.030145  0
H  H23  1  0.91938210  0.13964141  0.65864077  1  0.162685  0  0.115545  0.102379  0  1.030132  0
H  H24  1  0.09465492  0.06360990  0.34338653  1  0.158014  0  0.118114  0.094448  0  1.027969  0
H  H25  1  0.90534710  0.56361192  0.15659726  1  0.157434  0  0.118181  0.094398  0  1.028088  0
H  H26  1  0.90540174  0.93638276  0.65661671  1  0.158175  0  0.118192  0.094441  0  1.028006  0
H  H27  1  0.09464378  0.43639827  0.84338276  1  0.158161  0  0.11807  0.094274  0  1.028098  0
H  H28  1  0.09286072  0.17202404  0.34343712  1  0.061269  0  0.104512  0.107491  0  1.007384  0
H  H29  1  0.90711171  0.67202827  0.15655472  1  0.060996  0  0.104473  0.107404  0  1.007339  0
H  H30  1  0.90713545  0.82796994  0.65657153  1  0.06145  0  0.104522  0.107531  0  1.007323  0
H  H31  1  0.09289680  0.32798587  0.84342866  1  0.060865  0  0.104545  0.107552  0  1.007387  0
H  H32  1  0.04381862  0.16479199  0.16055961  1  0.049935  0  0.105826  0.108392  0  1.004676  0
H  H33  1  0.95620121  0.66478991  0.33943141  1  0.050184  0  0.105841  0.108478  0  1.004736  0
H  H34  1  0.95624227  0.83521645  0.83945301  1  0.049491  0  0.10585  0.108569  0  1.004695  0
H  H35  1  0.04377217  0.33521765  0.66054568  1  0.049404  0  0.105845  0.108523  0  1.004705  0
H  H36  1  0.04101025  0.05643976  0.16843011  1  0.123565  0  0.121388  0.099827  0  0.976045  0
H  H37  1  0.95903329  0.55643962  0.33155342  1  0.123354  0  0.121365  0.099807  0  0.976187  0
H  H38  1  0.95910487  0.94357000  0.83157637  1  0.122882  0  0.121368  0.099912  0  0.975864  0
H  H39  1  0.04089772  0.44357013  0.66842371  1  0.1229  0  0.121432  0.099952  0  0.976069  0
H  H40  1  0.24670422  0.46135095  0.05317479  1  0.016225  0  0.089628  0.091047  0  0.989554  0
H  H41  1  0.75333583  0.96135358  0.44681486  1  0.016081  0  0.089662  0.090937  0  0.989617  0
H  H42  1  0.75328120  0.53865223  0.94682291  1  0.016046  0  0.089617  0.091101  0  0.98939  0
H  H43  1  0.24673452  0.03865355  0.55318861  1  0.015783  0  0.089524  0.090907  0  0.989602  0
H  H44  1  0.09154287  0.39802600  0.03520569  1  -0.001708  0  0.078492  0.067591  0  0.988105  0
H  H45  1  0.90849833  0.89803435  0.46478071  1  -0.001488  0  0.078543  0.067518  0  0.988297  0
H  H46  1  0.90847608  0.60197017  0.96479280  1  -0.001533  0  0.078541  0.067643  0  0.98819  0
H  H47  1  0.09157840  0.10197365  0.53522391  1  -0.001789  0  0.07847  0.067523  0  0.988453  0
H  H48  1  0.77489714  0.45798671  0.02558125  1  0.006168  0  0.090033  0.072377  0  0.968716  0
H  H49  1  0.22512728  0.95799410  0.47441841  1  0.00614  0  0.090117  0.072441  0  0.969146  0
H  H50  1  0.22508073  0.54201209  0.97439564  1  0.006534  0  0.09012  0.072485  0  0.968775  0
H  H51  1  0.77493625  0.04201259  0.52558766  1  0.006496  0  0.090082  0.072467  0  0.968898  0
H  H52  1  0.79571599  0.56324486  0.04994580  1  0.030088  0  0.082094  0.072431  0  0.989727  0
H  H53  1  0.20439873  0.06325116  0.45007181  1  0.030333  0  0.082092  0.072384  0  0.989692  0
H  H54  1  0.20429301  0.43675394  0.95004971  1  0.029914  0  0.082165  0.072522  0  0.989661  0
H  H55  1  0.79567868  0.93675991  0.54992993  1  0.030581  0  0.082077  0.072411  0  0.989858  0
H  H56  1  0.06831147  0.56132517  0.06248959  1  0.003331  0  0.080598  0.071775  0  1.00172  0
H  H57  1  0.93178374  0.06133848  0.43751367  1  0.003866  0  0.080701  0.071981  0  1.001667  0
H  H58  1  0.93169507  0.43866486  0.93750788  1  0.003163  0  0.080577  0.071723  0  1.001745  0
H  H59  1  0.06828574  0.93866777  0.56248685  1  0.003473  0  0.080651  0.071847  0  1.001743  0
H  H60  1  0.66566584  0.42983696  0.33520546  1  0.122743  0  0.122988  0.100426  0  0.980237  0
H  H61  1  0.33434355  0.92980932  0.16480526  1  0.122214  0  0.123028  0.100493  0  0.980123  0
H  H62  1  0.33440469  0.57017455  0.66479344  1  0.12167  0  0.122987  0.100396  0  0.980078  0
H  H63  1  0.66562628  0.07019649  0.83520128  1  0.122151  0  0.123052  0.100514  0  0.980168  0
H  H64  1  0.69341362  0.32181796  0.34145977  1  0.058232  0  0.106037  0.108328  0  1.005438  0
H  H65  1  0.30653200  0.82179157  0.15856009  1  0.058696  0  0.105956  0.108084  0  1.005521  0
H  H66  1  0.30661091  0.67819268  0.65855275  1  0.058534  0  0.106055  0.108279  0  1.005479  0
H  H67  1  0.69342535  0.17821512  0.84142958  1  0.058931  0  0.105964  0.108088  0  1.005499  0
H  H68  1  0.43422282  0.31675564  0.15746917  1  0.045132  0  0.109203  0.111475  0  0.998102  0
H  H69  1  0.56564035  0.81676457  0.34255533  1  0.044731  0  0.109285  0.111341  0  0.998289  0
H  H70  1  0.56567362  0.68322782  0.84255051  1  0.044863  0  0.10928  0.1114  0  0.99827  0
H  H71  1  0.43431265  0.18321451  0.65743496  1  0.044371  0  0.109317  0.111407  0  0.998344  0
H  H72  1  0.42812069  0.42502339  0.15881776  1  0.182238  0  0.126607  0.115534  0  0.987942  0
H  H73  1  0.57180436  0.92502752  0.34119626  1  0.181769  0  0.126653  0.11557  0  0.988005  0
H  H74  1  0.57180626  0.57496226  0.84118712  1  0.183226  0  0.126683  0.115533  0  0.987965  0
H  H75  1  0.42818714  0.07494936  0.65880674  1  0.183415  0  0.126674  0.115582  0  0.987597  0
H  H76  1  0.59874875  0.12632839  0.34203575  1  0.107742  0  0.123342  0.095158  0  0.970507  0
H  H77  1  0.40119236  0.62631522  0.15797508  1  0.110447  0  0.123309  0.095113  0  0.970438  0
H  H78  1  0.40122838  0.87367523  0.65799075  1  0.108023  0  0.123402  0.095244  0  0.970459  0
H  H79  1  0.59879336  0.37368577  0.84199760  1  0.107758  0  0.123388  0.095218  0  0.970525  0
H  H80  1  0.59814933  0.23472898  0.34342281  1  0.071519  0  0.107508  0.111434  0  1.001935  0
H  H81  1  0.40177299  0.73471270  0.15660202  1  0.07657  0  0.107583  0.111598  0  1.002075  0
H  H82  1  0.40180465  0.76527464  0.65660216  1  0.076681  0  0.107579  0.111548  0  1.001879  0
H  H83  1  0.59821225  0.26528654  0.84337941  1  0.077277  0  0.10752  0.111474  0  1.002389  0
H  H84  1  0.53293235  0.23028696  0.16004431  1  0.08692  0  0.109271  0.113437  0  1.00018  0
H  H85  1  0.46705287  0.73026148  0.33998511  1  0.086977  0  0.109202  0.113257  0  1.00015  0
H  H86  1  0.46714174  0.76971842  0.83998771  1  0.086562  0  0.109195  0.113261  0  1.000522  0
H  H87  1  0.53286272  0.26971847  0.65999628  1  0.086198  0  0.109196  0.113218  0  1.000394  0
H  H88  1  0.53309431  0.12123741  0.16652998  1  0.18073  0  0.118611  0.106749  0  1.021379  0
H  H89  1  0.46690674  0.62121258  0.33348071  1  0.180898  0  0.118442  0.106343  0  1.021665  0
H  H90  1  0.46702382  0.87876665  0.83350251  1  0.181466  0  0.118475  0.10633  0  1.021531  0
H  H91  1  0.53298392  0.37876649  0.66648780  1  0.181066  0  0.118508  0.106345  0  1.022063  0
H  H92  1  0.49965715  0.57670839  0.45813057  1  0.022262  0  0.082287  0.075904  0  0.998352  0
H  H93  1  0.50030505  0.07671980  0.04187791  1  0.021812  0  0.082295  0.075914  0  0.998587  0
H  H94  1  0.50025157  0.42327375  0.54184798  1  0.023531  0  0.082358  0.075924  0  0.998545  0
H  H95  1  0.49975628  0.92328733  0.95814140  1  0.023532  0  0.082363  0.075919  0  0.998669  0
H  H96  1  0.23046785  0.57099076  0.44998389  1  -0.00191  0  0.081835  0.072909  0  0.987567  0
H  H97  1  0.76949667  0.07102405  0.05001914  1  -0.002623  0  0.081723  0.072744  0  0.987573  0
H  H98  1  0.76945327  0.42899138  0.54999569  1  -0.001783  0  0.081701  0.072818  0  0.987305  0
H  H99  1  0.23057331  0.92899535  0.95000393  1  -0.001551  0  0.081733  0.072915  0  0.987298  0
H  H100  1  0.25448244  0.46241934  0.44713866  1  0.044875  0  0.089806  0.072757  0  0.969847  0
H  H101  1  0.74555227  0.96244900  0.05284785  1  0.044424  0  0.089663  0.072637  0  0.969988  0
H  H102  1  0.74543475  0.53756280  0.55283780  1  0.04537  0  0.089728  0.072644  0  0.969888  0
H  H103  1  0.25453797  0.03756295  0.94716160  1  0.045108  0  0.089768  0.072827  0  0.969846  0
H  H104  1  0.71295469  0.48185495  0.45624929  1  0.037367  0  0.086346  0.082033  0  0.988007  0
H  H105  1  0.28708167  0.98185639  0.04375115  1  0.03756  0  0.086283  0.081955  0  0.988305  0
H  H106  1  0.28696348  0.51812631  0.54373056  1  0.036568  0  0.086388  0.081975  0  0.987906  0
H  H107  1  0.71301828  0.01816038  0.95627087  1  0.037544  0  0.086314  0.081913  0  0.988224  0
H  H108  1  0.58367375  0.41345494  0.44640915  1  0.007147  0  0.080809  0.070992  0  0.989024  0
H  H109  1  0.41638778  0.91346549  0.05358406  1  0.007021  0  0.080912  0.071089  0  0.989354  0
H  H110  1  0.41625019  0.58652589  0.55356972  1  0.007323  0  0.080854  0.070957  0  0.989162  0
H  H111  1  0.58369006  0.08654997  0.94643480  1  0.006738  0  0.08083  0.070859  0  0.989296  0
C  C112  1  0.11644224  0.33835640  0.29591529  1  0.429765  0  0.039585  0.081129  0  3.957822  0
C  C113  1  0.88348436  0.83834670  0.20408489  1  0.429312  0  0.039621  0.080758  0  3.958492  0
C  C114  1  0.88352537  0.66165072  0.70409407  1  0.430011  0  0.039607  0.08093  0  3.958288  0
C  C115  1  0.11651665  0.16166174  0.79591440  1  0.429247  0  0.039925  0.081434  0  3.958068  0
C  C116  1  0.12745393  0.27765669  0.29936215  1  -0.046545  0  -0.093094  -0.187479  0  3.983271  0
C  C117  1  0.87248268  0.77765596  0.20063820  1  -0.046462  0  -0.093064  -0.187295  0  3.984129  0
C  C118  1  0.87252148  0.72234868  0.70064800  1  -0.046072  0  -0.093056  -0.187363  0  3.983174  0
C  C119  1  0.12752098  0.22235467  0.79935455  1  -0.046366  0  -0.093322  -0.187789  0  3.984312  0
C  C120  1  0.06324177  0.24350697  0.24942710  1  0.014078  0  0.000803  0.088318  0  4.016038  0
C  C121  1  0.93674030  0.74350818  0.25057081  1  0.014302  0  0.000688  0.08816  0  4.015874  0
C  C122  1  0.93676434  0.75649621  0.75058454  1  0.013379  0  0.000798  0.088316  0  4.01568  0
C  C123  1  0.06326464  0.25650026  0.74942116  1  0.013651  0  0.000912  0.088404  0  4.015452  0
C  C124  1  0.99144926  0.27408689  0.19759872  1  -0.003596  0  -0.091111  -0.185331  0  3.980128  0
C  C125  1  0.00855538  0.77408260  0.30240274  1  -0.003561  0  -0.091036  -0.18523  0  3.980066  0
C  C126  1  0.00855482  0.72591761  0.80241115  1  -0.002832  0  -0.091107  -0.185265  0  3.97965  0
C  C127  1  0.99144748  0.22591533  0.69759247  1  -0.002858  0  -0.091087  -0.18534  0  3.979518  0
C  C128  1  0.98224996  0.33488660  0.19758951  1  0.452312  0  0.041966  0.084198  0  3.94723  0
C  C129  1  0.01773168  0.83488372  0.30240865  1  0.453307  0  0.042073  0.084338  0  3.947447  0
C  C130  1  0.01773558  0.66511527  0.80241904  1  0.453843  0  0.042029  0.084314  0  3.947324  0
C  C131  1  0.98226805  0.16511289  0.69759141  1  0.453552  0  0.042115  0.084484  0  3.94739  0
C  C132  1  0.08562664  0.08804794  0.30396364  1  0.4665  0  0.039619  0.082634  0  3.962638  0
C  C133  1  0.91437836  0.58804703  0.19602636  1  0.466878  0  0.03958  0.082548  0  3.962864  0
C  C134  1  0.91442547  0.91195086  0.69604480  1  0.466736  0  0.039457  0.082623  0  3.962366  0
C  C135  1  0.08560092  0.41196404  0.80395019  1  0.466423  0  0.039637  0.082932  0  3.962552  0
C  C136  1  0.08435557  0.14875564  0.30336434  1  -0.037399  0  -0.089319  -0.177072  0  3.978947  0
C  C137  1  0.91563507  0.64875696  0.19662611  1  -0.037168  0  -0.089338  -0.176977  0  3.978497  0
C  C138  1  0.91566479  0.85124141  0.69664423  1  -0.037608  0  -0.089427  -0.177223  0  3.978863  0
C  C139  1  0.08436631  0.35125061  0.80335359  1  -0.036021  0  -0.089331  -0.177243  0  3.978522  0
C  C140  1  0.06721887  0.17912122  0.25154816  1  -0.078206  0  0.000775  0.088273  0  3.996992  0
C  C141  1  0.93276927  0.67911312  0.24845338  1  -0.077664  0  0.000758  0.088226  0  3.996753  0
C  C142  1  0.93280174  0.82088415  0.74846126  1  -0.077582  0  0.00069  0.088247  0  3.997067  0
C  C143  1  0.06722395  0.32089050  0.75153468  1  -0.078481  0  0.000685  0.088221  0  3.996438  0
C  C144  1  0.05218045  0.14471186  0.20216471  1  -0.016574  0  -0.086023  -0.170455  0  3.96314  0
C  C145  1  0.94783396  0.64470474  0.29783096  1  -0.017797  0  -0.086039  -0.170566  0  3.963775  0
C  C146  1  0.94787178  0.85529352  0.79784415  1  -0.017111  0  -0.085957  -0.170732  0  3.963519  0
C  C147  1  0.05214292  0.35529888  0.70215298  1  -0.016572  0  -0.086037  -0.170731  0  3.963314  0
C  C148  1  0.05304466  0.08403796  0.20616437  1  0.459515  0  0.043772  0.086966  0  3.965965  0
C  C149  1  0.94698633  0.58403420  0.29382803  1  0.460253  0  0.043842  0.087009  0  3.966133  0
C  C150  1  0.94703742  0.91596785  0.79384302  1  0.460418  0  0.043686  0.086938  0  3.966163  0
C  C151  1  0.05296488  0.41597161  0.70615091  1  0.460074  0  0.043639  0.086894  0  3.966372  0
C  C152  1  0.94717160  0.46553066  0.11278194  1  1.530415  0  0.178018  0.573865  0  4.206441  0
C  C153  1  0.05287485  0.96554511  0.38721773  1  1.5294  0  0.177893  0.573446  0  4.206457  0
C  C154  1  0.05276364  0.53445411  0.88720457  1  1.53018  0  0.177791  0.573564  0  4.206162  0
C  C155  1  0.94719231  0.03445895  0.61278518  1  1.531738  0  0.177889  0.573991  0  4.206101  0
C  C156  1  0.09627302  0.44564423  0.02750123  1  0.002766  0  -0.167159  -0.156567  0  3.939545  0
C  C157  1  0.90375778  0.94564754  0.47248340  1  0.002977  0  -0.16731  -0.156293  0  3.939664  0
C  C158  1  0.90372418  0.55435676  0.97249537  1  0.002632  0  -0.167175  -0.156614  0  3.939582  0
C  C159  1  0.09631570  0.05436266  0.52751523  1  0.002988  0  -0.167046  -0.156272  0  3.939467  0
C  C160  1  0.92515214  0.47620913  0.04864019  1  0.024332  0  -0.096956  -0.101851  0  3.869128  0
C  C161  1  0.07490584  0.97621638  0.45136907  1  0.023778  0  -0.096905  -0.101677  0  3.869651  0
C  C162  1  0.07482695  0.52378660  0.95135137  1  0.023641  0  -0.096852  -0.101772  0  3.869069  0
C  C163  1  0.92515806  0.02379338  0.54864869  1  0.024267  0  -0.096913  -0.101963  0  3.86936  0
C  C164  1  0.92381711  0.54233865  0.03620871  1  -0.035098  0  -0.165683  -0.153494  0  3.941015  0
C  C165  1  0.07625022  0.04234324  0.46379438  1  -0.035244  0  -0.165771  -0.153721  0  3.941055  0
C  C166  1  0.07618667  0.45765621  0.96378446  1  -0.034443  0  -0.165674  -0.153427  0  3.94076  0
C  C167  1  0.92380392  0.95765994  0.53620539  1  -0.035696  0  -0.165655  -0.153567  0  3.940937  0
C  C168  1  0.61710468  0.40279957  0.29681148  1  0.447437  0  0.049527  0.092643  0  3.939478  0
C  C169  1  0.38286297  0.90278165  0.20320653  1  0.449113  0  0.049648  0.092494  0  3.939447  0
C  C170  1  0.38291464  0.59720536  0.70319871  1  0.448516  0  0.049457  0.092445  0  3.939247  0
C  C171  1  0.61711059  0.09722022  0.79679727  1  0.448857  0  0.049456  0.09245  0  3.939193  0
C  C172  1  0.62935004  0.34213098  0.29985704  1  0.039111  0  -0.084576  -0.171794  0  3.963185  0
C  C173  1  0.37060342  0.84210975  0.20017165  1  0.038859  0  -0.084266  -0.170901  0  3.963328  0
C  C174  1  0.37065497  0.65787834  0.70016121  1  0.039288  0  -0.084258  -0.171126  0  3.96287  0
C  C175  1  0.62935823  0.15789211  0.79982240  1  0.039197  0  -0.084238  -0.170947  0  3.96367  0
C  C176  1  0.56165910  0.30829022  0.24980583  1  -0.025314  0  0.007257  0.089857  0  3.978207  0
C  C177  1  0.43825598  0.80827756  0.25022347  1  -0.024779  0  0.006908  0.089072  0  3.978675  0
C  C178  1  0.43831317  0.69171164  0.75021961  1  -0.025322  0  0.006926  0.089098  0  3.978712  0
C  C179  1  0.56170364  0.19171379  0.74976881  1  -0.025616  0  0.006898  0.089127  0  3.978873  0
C  C180  1  0.49020331  0.33933225  0.19827586  1  -0.057915  0  -0.076917  -0.157334  0  3.923955  0
C  C181  1  0.50970167  0.83933437  0.30175375  1  -0.058485  0  -0.076777  -0.156687  0  3.923498  0
C  C182  1  0.50972961  0.66065560  0.80174434  1  -0.057844  0  -0.076769  -0.156842  0  3.923949  0
C  C183  1  0.49026268  0.16065215  0.69823917  1  -0.05719  0  -0.076665  -0.156806  0  3.923513  0
C  C184  1  0.48483536  0.40026697  0.19824678  1  0.558985  0  0.06116  0.118504  0  3.890081  0
C  C185  1  0.51508631  0.90026564  0.30177019  1  0.559829  0  0.060958  0.118048  0  3.89098  0
C  C186  1  0.51510855  0.59972569  0.80176435  1  0.556878  0  0.060988  0.118346  0  3.890316  0
C  C187  1  0.48490188  0.09972088  0.69823181  1  0.557034  0  0.06097  0.118406  0  3.890187  0
C  C188  1  0.58473902  0.15113237  0.30247196  1  0.466417  0  0.046808  0.082522  0  3.969605  0
C  C189  1  0.41521181  0.65111809  0.19754207  1  0.464035  0  0.046968  0.082971  0  3.969257  0
C  C190  1  0.41527588  0.84887388  0.69755429  1  0.467427  0  0.046847  0.082884  0  3.969001  0
C  C191  1  0.58475433  0.34888247  0.80243092  1  0.468308  0  0.04682  0.08273  0  3.969609  0
C  C192  1  0.58596011  0.21208247  0.30283429  1  -0.066608  0  -0.085599  -0.17729  0  3.959224  0
C  C193  1  0.41398032  0.71206816  0.19718332  1  -0.070253  0  -0.085739  -0.178052  0  3.959143  0
C  C194  1  0.41404078  0.78791677  0.69719587  1  -0.070439  0  -0.085723  -0.177917  0  3.958854  0
C  C195  1  0.58598858  0.28792099  0.80279397  1  -0.070706  0  -0.085548  -0.177522  0  3.958832  0
C  C196  1  0.56500032  0.24349160  0.25141552  1  0.006454  0  0.012139  0.103019  0  3.975827  0
C  C197  1  0.43493392  0.74347403  0.24861052  1  0.005728  0  0.012323  0.103544  0  3.976018  0
C  C198  1  0.43499972  0.75651115  0.74861167  1  0.005906  0  0.012321  0.103496  0  3.976236  0
C  C199  1  0.56502472  0.25651776  0.75136795  1  0.006091  0  0.012243  0.103148  0  3.97642  0
C  C200  1  0.54563512  0.20958886  0.20157576  1  -0.059586  0  -0.083563  -0.174613  0  3.955818  0
C  C201  1  0.45433817  0.70957453  0.29844129  1  -0.059608  0  -0.083664  -0.174614  0  3.955711  0
C  C202  1  0.45441251  0.79040862  0.79845374  1  -0.059955  0  -0.083687  -0.174552  0  3.955825  0
C  C203  1  0.54559799  0.29040849  0.70153275  1  -0.059982  0  -0.083582  -0.174226  0  3.955974  0
C  C204  1  0.54652755  0.14877031  0.20446833  1  0.434941  0  0.043831  0.08525  0  3.924071  0
C  C205  1  0.45345321  0.64874930  0.29554542  1  0.434357  0  0.044073  0.085564  0  3.923353  0
C  C206  1  0.45354212  0.85123419  0.79555890  1  0.433962  0  0.043995  0.085485  0  3.924036  0
C  C207  1  0.54647332  0.35123679  0.70442148  1  0.433839  0  0.044111  0.085508  0  3.923883  0
C  C208  1  0.35039214  0.49405792  0.37450651  1  1.577082  0  0.187479  0.579083  0  4.212859  0
C  C209  1  0.64964942  0.99406238  0.12549157  1  1.577325  0  0.187427  0.579404  0  4.213322  0
C  C210  1  0.64950675  0.50593474  0.62546948  1  1.577077  0  0.187232  0.579135  0  4.212875  0
C  C211  1  0.35046545  0.00594562  0.87452449  1  1.577559  0  0.187308  0.579024  0  4.213035  0
C  C212  1  0.37889210  0.54904560  0.46840770  1  -0.016577  0  -0.167341  -0.154075  0  3.949874  0
C  C213  1  0.62108313  0.04907016  0.03159360  1  -0.016216  0  -0.167205  -0.153795  0  3.949108  0
C  C214  1  0.62102663  0.45093567  0.53156883  1  -0.01937  0  -0.167234  -0.153846  0  3.949119  0
C  C215  1  0.37898526  0.95094223  0.96842396  1  -0.018494  0  -0.167332  -0.153911  0  3.949567  0
C  C216  1  0.38240135  0.48913903  0.43979292  1  -0.033841  0  -0.097144  -0.106715  0  3.873898  0
C  C217  1  0.61763711  0.98915712  0.06021198  1  -0.033505  0  -0.097  -0.106759  0  3.873572  0
C  C218  1  0.61753549  0.51084487  0.56019909  1  -0.034413  0  -0.097037  -0.106794  0  3.873697  0
C  C219  1  0.38246578  0.01085571  0.93980977  1  -0.035387  0  -0.097151  -0.107264  0  3.87439  0
C  C220  1  0.58544616  0.45702389  0.46643671  1  -0.035048  0  -0.164697  -0.15306  0  3.937  0
C  C221  1  0.41457096  0.95702627  0.03355381  1  -0.03551  0  -0.164756  -0.153092  0  3.937038  0
C  C222  1  0.41445906  0.54296132  0.53353500  1  -0.035422  0  -0.164759  -0.152863  0  3.936464  0
C  C223  1  0.58550141  0.04298480  0.96646187  1  -0.034466  0  -0.164661  -0.152551  0  3.936917  0
N  N224  1  0.04298023  0.36684193  0.24595819  1  -1.184414  0  -0.336503  -0.188918  0  3.541073  0
N  N225  1  0.95697839  0.86682945  0.25404761  1  -1.184564  0  -0.33676  -0.189074  0  3.54166  0
N  N226  1  0.95698750  0.63316827  0.75405159  1  -1.185373  0  -0.336615  -0.188993  0  3.541977  0
N  N227  1  0.04302655  0.13316892  0.74595479  1  -1.184689  0  -0.336828  -0.18942  0  3.541597  0
N  N228  1  0.06927387  0.05554645  0.25620995  1  -1.184187  0  -0.343361  -0.22292  0  3.609089  0
N  N229  1  0.93074954  0.55555087  0.24377759  1  -1.184157  0  -0.343278  -0.222541  0  3.609188  0
N  N230  1  0.93080360  0.94445323  0.74379721  1  -1.184296  0  -0.342954  -0.222537  0  3.608853  0
N  N231  1  0.06921064  0.44445801  0.75620095  1  -1.184465  0  -0.343123  -0.222689  0  3.609359  0
N  N232  1  0.54369915  0.43180052  0.24701231  1  -1.194908  0  -0.337954  -0.193705  0  3.601335  0
N  N233  1  0.45628757  0.93178814  0.25300821  1  -1.195637  0  -0.337935  -0.19357  0  3.601753  0
N  N234  1  0.45629383  0.56819828  0.75299577  1  -1.194047  0  -0.337984  -0.193629  0  3.601321  0
N  N235  1  0.54370313  0.06820014  0.74699726  1  -1.195084  0  -0.338082  -0.193941  0  3.601513  0
N  N236  1  0.56468571  0.11929179  0.25419798  1  -1.167393  0  -0.337755  -0.184352  0  3.569366  0
N  N237  1  0.43528403  0.61927806  0.24580989  1  -1.168465  0  -0.337976  -0.184371  0  3.569952  0
N  N238  1  0.43536443  0.88071052  0.74583498  1  -1.168621  0  -0.337845  -0.184392  0  3.570325  0
N  N239  1  0.56465478  0.38071635  0.75415761  1  -1.168831  0  -0.338052  -0.184463  0  3.570903  0
O  O240  1  0.11981959  0.48078635  0.14678908  1  -1.169189  0  -0.355744  -0.601486  0  2.251169  0
O  O241  1  0.88023906  0.98079843  0.35321033  1  -1.169916  0  -0.355597  -0.601223  0  2.251387  0
O  O242  1  0.88006862  0.51920281  0.85320225  1  -1.170048  0  -0.355622  -0.601426  0  2.250474  0
O  O243  1  0.11983565  0.01920387  0.64679253  1  -1.170406  0  -0.355722  -0.601624  0  2.250441  0
O  O244  1  0.79672755  0.44379649  0.12843569  1  -1.191964  0  -0.362768  -0.602762  0  2.12973  0
O  O245  1  0.20334461  0.94381325  0.37156174  1  -1.190731  0  -0.362829  -0.602777  0  2.129304  0
O  O246  1  0.20320076  0.55617338  0.87153213  1  -1.191187  0  -0.362806  -0.602714  0  2.129725  0
O  O247  1  0.79676319  0.05618599  0.62844564  1  -1.192359  0  -0.362784  -0.602809  0  2.129732  0
O  O248  1  0.21410377  0.46055902  0.34407365  1  -1.178905  0  -0.349965  -0.590597  0  2.290092  0
O  O249  1  0.78591611  0.96055541  0.15591459  1  -1.17904  0  -0.349891  -0.590645  0  2.290074  0
O  O250  1  0.78575736  0.53944197  0.65590260  1  -1.178791  0  -0.349709  -0.59047  0  2.289316  0
O  O251  1  0.21423198  0.03944996  0.84409599  1  -1.179234  0  -0.349697  -0.590309  0  2.289965  0
O  O252  1  0.46392012  0.52996555  0.35594747  1  -1.190401  0  -0.354174  -0.588525  0  2.233882  0
O  O253  1  0.53613487  0.02996332  0.14406472  1  -1.190493  0  -0.354123  -0.58869  0  2.234078  0
O  O254  1  0.53601427  0.47003018  0.64403608  1  -1.190341  0  -0.354345  -0.58873  0  2.233875  0
O  O255  1  0.46397748  0.97003548  0.85595832  1  -1.190233  0  -0.354352  -0.588694  0  2.233569  0
