# generated using pymatgen
data_CaH10(CO)6
_symmetry_space_group_name_H-M   'P 1'
_cell_length_a   6.88220632
_cell_length_b   11.24816452
_cell_length_c   13.76793596
_cell_angle_alpha   114.26022841
_cell_angle_beta   89.97570416
_cell_angle_gamma   107.81812686
_symmetry_Int_Tables_number   1
_chemical_formula_structural   CaH10(CO)6
_chemical_formula_sum   'Ca4 H40 C24 O24'
_cell_volume   915.38339267
_cell_formula_units_Z   4
loop_
 _symmetry_equiv_pos_site_id
 _symmetry_equiv_pos_as_xyz
  1  'x, y, z'
loop_
 _atom_site_type_symbol
 _atom_site_label
 _atom_site_symmetry_multiplicity
 _atom_site_fract_x
 _atom_site_fract_y
 _atom_site_fract_z
 _atom_site_occupancy
 _atom_site_hle17_bader_spin_density
 _atom_site_hle17_ddec_charge
 _atom_site_hle17_ddec_spin_density
 _atom_site_hle17_ddec_sum_bond_order
 _atom_site_hle17_magmom
 _atom_site_hse06_10hf_bader_spin_density
 _atom_site_hse06_10hf_ddec_charge
 _atom_site_hse06_10hf_ddec_spin_density
 _atom_site_hse06_10hf_ddec_sum_bond_order
 _atom_site_hse06_10hf_magmom
 _atom_site_hse06_bader_spin_density
 _atom_site_hse06_ddec_charge
 _atom_site_hse06_ddec_spin_density
 _atom_site_hse06_ddec_sum_bond_order
 _atom_site_hse06_magmom
 _atom_site_pbe_bader_spin_density
 _atom_site_pbe_cm5_charge
 _atom_site_pbe_ddec_charge
 _atom_site_pbe_ddec_spin_density
 _atom_site_pbe_ddec_sum_bond_order
 _atom_site_pbe_magmom
Ca  Ca0  1  0.05692785  0.10331711  0.66142343  1  0  1.553619  0  1.133726  0  0  1.414496  0  1.497964  0  0  1.461123  0  1.449746  0  0  0.905266  1.379292  0  1.532076  0
Ca  Ca1  1  0.95336603  0.89662600  0.83854697  1  0  1.554356  0  1.132108  0  0  1.415638  0  1.495561  0  0  1.461918  0  1.447946  0  0  0.905272  1.380416  0  1.529801  0
Ca  Ca2  1  0.94306966  0.89668157  0.33857669  1  0  1.553588  0  1.133875  0  0  1.414504  0  1.498068  0  0  1.461091  0  1.449921  0  0  0.905239  1.379302  0  1.532171  0
Ca  Ca3  1  0.04663541  0.10337475  0.16145239  1  0  1.554384  0  1.132082  0  0  1.415629  0  1.495595  0  0  1.461937  0  1.447926  0  0  0.90526  1.38041  0  1.529839  0
H  H4  1  0.39215340  0.35487224  0.43066362  1  0  0.147109  0  0.929539  0  0  0.16902  0  0.982104  0  0  0.171637  0  0.980961  0  0  0.108812  0.167116  0  0.983017  0
H  H5  1  0.03662826  0.64492504  0.06903946  1  0  0.146623  0  0.929407  0  0  0.168852  0  0.981517  0  0  0.171445  0  0.980439  0  0  0.108908  0.166811  0  0.982874  0
H  H6  1  0.60784805  0.64512851  0.56933502  1  0  0.147114  0  0.929553  0  0  0.16902  0  0.98212  0  0  0.171636  0  0.980977  0  0  0.108834  0.167116  0  0.983031  0
H  H7  1  0.96337121  0.35507467  0.93095956  1  0  0.146602  0  0.92941  0  0  0.168838  0  0.98151  0  0  0.171432  0  0.980432  0  0  0.108896  0.166796  0  0.982867  0
H  H8  1  0.36583206  0.37114561  0.56579936  1  0  0.139925  0  0.949887  0  0  0.158331  0  1.009303  0  0  0.16077  0  1.008435  0  0  0.102316  0.156523  0  1.01006  0
H  H9  1  0.99407151  0.62876999  0.93395400  1  0  0.139655  0  0.94989  0  0  0.158106  0  1.009062  0  0  0.160554  0  1.008197  0  0  0.102181  0.156278  0  1.009924  0
H  H10  1  0.63416887  0.62885411  0.43419966  1  0  0.139906  0  0.949889  0  0  0.158307  0  1.009314  0  0  0.160747  0  1.008444  0  0  0.102313  0.156498  0  1.010073  0
H  H11  1  0.00592796  0.37122973  0.06604502  1  0  0.139679  0  0.949875  0  0  0.158131  0  1.009046  0  0  0.160579  0  1.008181  0  0  0.102199  0.156305  0  1.009908  0
H  H12  1  0.19637726  0.41220076  0.49869532  1  0  0.140139  0  0.957017  0  0  0.159919  0  1.01928  0  0  0.161678  0  1.019356  0  0  0.104148  0.158636  0  1.019303  0
H  H13  1  0.78355683  0.58772876  0.00114258  1  0  0.140265  0  0.956024  0  0  0.159635  0  1.01876  0  0  0.161363  0  1.018881  0  0  0.103947  0.15834  0  1.018951  0
H  H14  1  0.80362366  0.58779895  0.50130370  1  0  0.140108  0  0.957035  0  0  0.159884  0  1.01931  0  0  0.161643  0  1.019385  0  0  0.104134  0.158601  0  1.019336  0
H  H15  1  0.21644264  0.41227096  0.99885644  1  0  0.140251  0  0.956036  0  0  0.159623  0  1.018772  0  0  0.161351  0  1.018893  0  0  0.103943  0.158328  0  1.018963  0
H  H16  1  0.28530140  0.87944293  0.54441113  1  0  0.13619  0  0.970985  0  0  0.152862  0  1.034605  0  0  0.155607  0  1.033901  0  0  0.107174  0.150817  0  1.035252  0
H  H17  1  0.40556354  0.12043748  0.95555832  1  0  0.135787  0  0.971025  0  0  0.152128  0  1.034959  0  0  0.154928  0  1.034203  0  0  0.106628  0.150106  0  1.035553  0
H  H18  1  0.71469558  0.12055472  0.45558865  1  0  0.136213  0  0.970983  0  0  0.152879  0  1.034604  0  0  0.155625  0  1.033898  0  0  0.107196  0.150835  0  1.035249  0
H  H19  1  0.59443925  0.87956016  0.04444073  1  0  0.135752  0  0.971072  0  0  0.152105  0  1.03499  0  0  0.154915  0  1.034224  0  0  0.106602  0.150082  0  1.035584  0
H  H20  1  0.44734601  0.85154736  0.62771802  1  0  0.148619  0  0.943004  0  0  0.16874  0  1.000358  0  0  0.171363  0  0.99956  0  0  0.109993  0.16685  0  1.00099  0
H  H21  1  0.59554575  0.14831879  0.87218676  1  0  0.14917  0  0.942231  0  0  0.169324  0  0.999465  0  0  0.171942  0  0.998679  0  0  0.109869  0.167436  0  1.000064  0
H  H22  1  0.55265243  0.14845029  0.37228103  1  0  0.148587  0  0.943029  0  0  0.168703  0  1.000385  0  0  0.171325  0  0.999588  0  0  0.10999  0.166814  0  1.001018  0
H  H23  1  0.40445559  0.85167885  0.12781229  1  0  0.149161  0  0.942222  0  0  0.169301  0  0.99948  0  0  0.171926  0  0.998688  0  0  0.109856  0.167428  0  1.000065  0
H  H24  1  0.53809506  0.87616856  0.51459948  1  0  0.135293  0  0.966382  0  0  0.15457  0  1.025682  0  0  0.156622  0  1.02591  0  0  0.106109  0.153066  0  1.025601  0
H  H25  1  0.66158363  0.12364524  0.98525001  1  0  0.135598  0  0.965594  0  0  0.154687  0  1.024974  0  0  0.156737  0  1.025167  0  0  0.106019  0.153209  0  1.024856  0
H  H26  1  0.46190296  0.12383116  0.48539954  1  0  0.135304  0  0.966404  0  0  0.154591  0  1.025678  0  0  0.156642  0  1.025906  0  0  0.106097  0.153086  0  1.025599  0
H  H27  1  0.33841772  0.87635240  0.01474832  1  0  0.135594  0  0.965627  0  0  0.154678  0  1.025011  0  0  0.156728  0  1.025208  0  0  0.10601  0.1532  0  1.024893  0
H  H28  1  0.56811203  0.63643403  0.85734644  1  0  0.162426  0  0.941641  0  0  0.177966  0  1.004678  0  0  0.181701  0  1.002392  0  0  0.11561  0.175302  0  1.006319  0
H  H29  1  0.93151712  0.36349619  0.64240282  1  0  0.161759  0  0.941538  0  0  0.177099  0  1.004773  0  0  0.180821  0  1.002522  0  0  0.115336  0.174438  0  1.006429  0
H  H30  1  0.43188941  0.36356672  0.14265583  1  0  0.162455  0  0.941558  0  0  0.177991  0  1.004603  0  0  0.181726  0  1.002318  0  0  0.115639  0.17533  0  1.006242  0
H  H31  1  0.06848432  0.63650456  0.35759582  1  0  0.161796  0  0.941515  0  0  0.177134  0  1.004747  0  0  0.180861  0  1.002487  0  0  0.11534  0.174471  0  1.006404  0
H  H32  1  0.44355689  0.60491002  0.96168014  1  0  0.141912  0  0.94271  0  0  0.159911  0  1.004575  0  0  0.162201  0  1.004284  0  0  0.103914  0.158227  0  1.004859  0
H  H33  1  0.83868545  0.39508971  0.53809158  1  0  0.141761  0  0.943744  0  0  0.159734  0  1.005606  0  0  0.162017  0  1.005345  0  0  0.103776  0.15802  0  1.005919  0
H  H34  1  0.55644662  0.39509487  0.03832425  1  0  0.141982  0  0.942598  0  0  0.15997  0  1.00448  0  0  0.162258  0  1.004192  0  0  0.103964  0.158289  0  1.004758  0
H  H35  1  0.16131454  0.60491104  0.46190706  1  0  0.14179  0  0.943741  0  0  0.159744  0  1.005617  0  0  0.162027  0  1.005357  0  0  0.103781  0.15803  0  1.005928  0
H  H36  1  0.29792956  0.60914486  0.85583498  1  0  0.143013  0  0.947888  0  0  0.160741  0  1.006129  0  0  0.163373  0  1.005228  0  0  0.102811  0.15879  0  1.006899  0
H  H37  1  0.68870480  0.39085633  0.64397369  1  0  0.143216  0  0.948716  0  0  0.160908  0  1.006866  0  0  0.163606  0  1.005871  0  0  0.102526  0.158921  0  1.007675  0
H  H38  1  0.70207188  0.39085589  0.14416802  1  0  0.143052  0  0.947872  0  0  0.160807  0  1.006075  0  0  0.163441  0  1.005173  0  0  0.102851  0.158854  0  1.006848  0
H  H39  1  0.31129467  0.60914338  0.35602461  1  0  0.143201  0  0.94875  0  0  0.160907  0  1.00687  0  0  0.163605  0  1.005877  0  0  0.102525  0.15892  0  1.007678  0
H  H40  1  0.49166881  0.27690954  0.77217473  1  0  0.397639  0  0.896278  0  0  0.363059  0  0.980961  0  0  0.377162  0  0.965727  0  0  0.304332  0.353168  0  0.991555  0
H  H41  1  0.21459895  0.72306241  0.72769673  1  0  0.398354  0  0.895776  0  0  0.362994  0  0.981785  0  0  0.377162  0  0.966404  0  0  0.304226  0.353074  0  0.992455  0
H  H42  1  0.50833015  0.72308914  0.22782467  1  0  0.397707  0  0.896283  0  0  0.363145  0  0.980928  0  0  0.377249  0  0.965692  0  0  0.304369  0.353253  0  0.991524  0
H  H43  1  0.78540301  0.27693937  0.27230226  1  0  0.398394  0  0.895714  0  0  0.363028  0  0.981728  0  0  0.377197  0  0.966346  0  0  0.304239  0.353108  0  0.9924  0
C  C44  1  0.13701502  0.19526639  0.44100468  1  0  0.787367  0  3.830337  0  0  0.74817  0  4.119281  0  0  0.782326  0  4.110387  0  0  0.233095  0.724708  0  4.124666  0
C  C45  1  0.94133171  0.80467949  0.05892705  1  0  0.789445  0  3.829715  0  0  0.74972  0  4.119543  0  0  0.783913  0  4.110555  0  0  0.23369  0.726302  0  4.124739  0
C  C46  1  0.86298787  0.80473436  0.55899759  1  0  0.787424  0  3.830285  0  0  0.748162  0  4.119335  0  0  0.782308  0  4.110458  0  0  0.233091  0.724702  0  4.124715  0
C  C47  1  0.05866922  0.19532023  0.94107052  1  0  0.789434  0  3.82975  0  0  0.749662  0  4.119668  0  0  0.783856  0  4.110678  0  0  0.233638  0.726243  0  4.124865  0
C  C48  1  0.28420116  0.34184441  0.48699874  1  0  -0.464808  0  3.644178  0  0  -0.543426  0  3.87416  0  0  -0.550446  0  3.876925  0  0  -0.237002  -0.538414  0  3.872322  0
C  C49  1  0.94173640  0.65804337  0.01278086  1  0  -0.464213  0  3.641527  0  0  -0.542426  0  3.871802  0  0  -0.549459  0  3.874623  0  0  -0.237123  -0.537644  0  3.870537  0
C  C50  1  0.71580028  0.65815634  0.51300062  1  0  -0.464735  0  3.644142  0  0  -0.543325  0  3.874152  0  0  -0.550338  0  3.876917  0  0  -0.23699  -0.538314  0  3.872316  0
C  C51  1  0.05826359  0.34195738  0.98721851  1  0  -0.464213  0  3.641512  0  0  -0.54241  0  3.871781  0  0  -0.549445  0  3.874604  0  0  -0.237121  -0.537627  0  3.870516  0
C  C52  1  0.53742694  0.06070872  0.65081364  1  0  0.796956  0  3.810531  0  0  0.755793  0  4.103953  0  0  0.789994  0  4.094611  0  0  0.23965  0.732315  0  4.109662  0
C  C53  1  0.47638484  0.93911834  0.84904913  1  0  0.795524  0  3.813523  0  0  0.753057  0  4.108677  0  0  0.787251  0  4.099364  0  0  0.238616  0.729574  0  4.114404  0
C  C54  1  0.46257201  0.93928996  0.34918649  1  0  0.797008  0  3.810368  0  0  0.755849  0  4.103793  0  0  0.790046  0  4.094452  0  0  0.239656  0.732368  0  4.109503  0
C  C55  1  0.52361754  0.06088137  0.15094989  1  0  0.795519  0  3.813489  0  0  0.753108  0  4.108541  0  0  0.787298  0  4.099239  0  0  0.238614  0.729626  0  4.11427  0
C  C56  1  0.44497547  0.90768932  0.57882288  1  0  -0.4793  0  3.638289  0  0  -0.556449  0  3.867234  0  0  -0.564005  0  3.86949  0  0  -0.238357  -0.550937  0  3.865655  0
C  C57  1  0.53696044  0.09216500  0.92107495  1  0  -0.479695  0  3.637149  0  0  -0.556005  0  3.866526  0  0  -0.563592  0  3.86874  0  0  -0.237604  -0.550458  0  3.864889  0
C  C58  1  0.55502255  0.09231040  0.42117687  1  0  -0.479335  0  3.638287  0  0  -0.556479  0  3.867255  0  0  -0.56403  0  3.869509  0  0  -0.238383  -0.550964  0  3.865676  0
C  C59  1  0.46304090  0.90783265  0.07892410  1  0  -0.47965  0  3.637158  0  0  -0.555968  0  3.86652  0  0  -0.563576  0  3.868725  0  0  -0.237566  -0.550437  0  3.864866  0
C  C60  1  0.37991806  0.42700056  0.81029162  1  0  0.770808  0  3.746516  0  0  0.730694  0  4.042161  0  0  0.76408  0  4.033067  0  0  0.247254  0.707856  0  4.047855  0
C  C61  1  0.95286493  0.57293272  0.68955119  1  0  0.772536  0  3.74531  0  0  0.732371  0  4.040832  0  0  0.765826  0  4.031626  0  0  0.247987  0.709498  0  4.046605  0
C  C62  1  0.62004253  0.57297949  0.18969498  1  0  0.770799  0  3.745546  0  0  0.730642  0  4.041292  0  0  0.764077  0  4.032128  0  0  0.247221  0.707771  0  4.047019  0
C  C63  1  0.04713267  0.42706906  0.31044998  1  0  0.772613  0  3.745166  0  0  0.732452  0  4.040686  0  0  0.765911  0  4.031476  0  0  0.247996  0.709579  0  4.04646  0
C  C64  1  0.42374873  0.57892852  0.87531518  1  0  -0.467463  0  3.633541  0  0  -0.545455  0  3.866098  0  0  -0.55334  0  3.867978  0  0  -0.23812  -0.539798  0  3.864779  0
C  C65  1  0.84474711  0.42104903  0.62445199  1  0  -0.46722  0  3.636018  0  0  -0.544908  0  3.868303  0  0  -0.552849  0  3.870144  0  0  -0.23749  -0.539228  0  3.867076  0
C  C66  1  0.57625571  0.42107534  0.12468958  1  0  -0.467502  0  3.633654  0  0  -0.545498  0  3.866249  0  0  -0.5534  0  3.868113  0  0  -0.238135  -0.539831  0  3.864947  0
C  C67  1  0.15525434  0.57895172  0.37554810  1  0  -0.467264  0  3.636009  0  0  -0.54494  0  3.86828  0  0  -0.552885  0  3.87012  0  0  -0.237486  -0.539261  0  3.867052  0
O  O68  1  0.08248506  0.13345046  0.50154561  1  0  -0.772717  0  1.972083  0  0  -0.708306  0  2.223793  0  0  -0.737758  0  2.212821  0  0  -0.390144  -0.687236  0  2.230733  0
O  O69  1  0.94844618  0.86655386  0.99844389  1  0  -0.773966  0  1.972735  0  0  -0.709565  0  2.224747  0  0  -0.738863  0  2.213656  0  0  -0.390439  -0.688454  0  2.232036  0
O  O70  1  0.91751638  0.86655029  0.49845303  1  0  -0.772806  0  1.972009  0  0  -0.708387  0  2.223774  0  0  -0.737835  0  2.21281  0  0  -0.390185  -0.68732  0  2.230713  0
O  O71  1  0.05155526  0.13344689  0.00155693  1  0  -0.773979  0  1.972659  0  0  -0.709545  0  2.224661  0  0  -0.738845  0  2.213567  0  0  -0.390409  -0.688441  0  2.231965  0
O  O72  1  0.06648176  0.13213536  0.34098198  1  0  -0.757325  0  1.982478  0  0  -0.694181  0  2.234865  0  0  -0.723717  0  2.224871  0  0  -0.391761  -0.673009  0  2.241038  0
O  O73  1  0.93439898  0.86785216  0.15902280  1  0  -0.758574  0  1.983937  0  0  -0.695245  0  2.236782  0  0  -0.724816  0  2.22675  0  0  -0.391558  -0.673975  0  2.242824  0
O  O74  1  0.93352010  0.86786332  0.65901669  1  0  -0.757301  0  1.98253  0  0  -0.694132  0  2.234947  0  0  -0.723662  0  2.224959  0  0  -0.391742  -0.672962  0  2.241117  0
O  O75  1  0.06559904  0.13214756  0.84097840  1  0  -0.758546  0  1.984073  0  0  -0.695192  0  2.236936  0  0  -0.724766  0  2.2269  0  0  -0.391524  -0.673921  0  2.242978  0
O  O76  1  0.73029523  0.11728791  0.67428426  1  0  -0.710055  0  1.918289  0  0  -0.649863  0  2.156986  0  0  -0.676972  0  2.145923  0  0  -0.376513  -0.630521  0  2.164028  0
O  O77  1  0.61268356  0.88251448  0.82554109  1  0  -0.70938  0  1.919744  0  0  -0.649178  0  2.159253  0  0  -0.676218  0  2.148237  0  0  -0.376284  -0.629852  0  2.166332  0
O  O78  1  0.26969937  0.88271077  0.32571659  1  0  -0.710062  0  1.918139  0  0  -0.649898  0  2.156865  0  0  -0.676992  0  2.145789  0  0  -0.376521  -0.630556  0  2.163907  0
O  O79  1  0.38731436  0.11748213  0.17445761  1  0  -0.709403  0  1.91968  0  0  -0.649212  0  2.159155  0  0  -0.676246  0  2.148122  0  0  -0.376319  -0.629886  0  2.16624  0
O  O80  1  0.41151685  0.12785050  0.68791975  1  0  -0.730034  0  2.006313  0  0  -0.662834  0  2.247751  0  0  -0.692142  0  2.235985  0  0  -0.361115  -0.641929  0  2.255204  0
O  O81  1  0.28336858  0.87200077  0.81200607  1  0  -0.729709  0  2.008317  0  0  -0.661323  0  2.249961  0  0  -0.690662  0  2.238305  0  0  -0.360459  -0.640463  0  2.257466  0
O  O82  1  0.58848314  0.87215025  0.31208107  1  0  -0.730035  0  2.006328  0  0  -0.66284  0  2.247752  0  0  -0.692143  0  2.235987  0  0  -0.361102  -0.641939  0  2.255212  0
O  O83  1  0.71663183  0.12799791  0.18798897  1  0  -0.729723  0  2.008354  0  0  -0.661324  0  2.249916  0  0  -0.690665  0  2.238259  0  0  -0.360403  -0.640462  0  2.257421  0
O  O84  1  0.21937892  0.35046060  0.74530173  1  0  -0.650284  0  1.951857  0  0  -0.596698  0  2.182016  0  0  -0.620989  0  2.171805  0  0  -0.330883  -0.579733  0  2.18869  0
O  O85  1  0.86885425  0.64941695  0.75471828  1  0  -0.652577  0  1.950505  0  0  -0.598992  0  2.180551  0  0  -0.623287  0  2.170354  0  0  -0.331665  -0.581974  0  2.187214  0
O  O86  1  0.78064138  0.64955463  0.25471921  1  0  -0.650544  0  1.950194  0  0  -0.596899  0  2.180315  0  0  -0.621219  0  2.170099  0  0  -0.331041  -0.579918  0  2.186995  0
O  O87  1  0.13114616  0.35058173  0.24528039  1  0  -0.65265  0  1.950334  0  0  -0.599054  0  2.180356  0  0  -0.623354  0  2.170156  0  0  -0.3317  -0.582034  0  2.187021  0
O  O88  1  0.52665925  0.38102138  0.82716426  1  0  -0.568995  0  2.04042  0  0  -0.517173  0  2.255289  0  0  -0.540309  0  2.240223  0  0  -0.326763  -0.501042  0  2.265225  0
O  O89  1  0.14551578  0.61898733  0.67260405  1  0  -0.568762  0  2.04023  0  0  -0.516528  0  2.255585  0  0  -0.539726  0  2.240437  0  0  -0.326201  -0.500451  0  2.265672  0
O  O90  1  0.47334759  0.61898144  0.17283943  1  0  -0.56885  0  2.040839  0  0  -0.517071  0  2.25576  0  0  -0.540214  0  2.240662  0  0  -0.326643  -0.500933  0  2.26571  0
O  O91  1  0.85448567  0.38101342  0.32739532  1  0  -0.568807  0  2.040245  0  0  -0.516587  0  2.255622  0  0  -0.539789  0  2.240473  0  0  -0.326206  -0.500504  0  2.265702  0
