# generated using pymatgen
data_Ag2H4C7SO6
_symmetry_space_group_name_H-M   'P 1'
_cell_length_a   6.93395114
_cell_length_b   7.55015693
_cell_length_c   9.56162004
_cell_angle_alpha   72.36231419
_cell_angle_beta   83.83437457
_cell_angle_gamma   70.85680980
_symmetry_Int_Tables_number   1
_chemical_formula_structural   Ag2H4C7SO6
_chemical_formula_sum   'Ag4 H8 C14 S2 O12'
_cell_volume   450.64525711
_cell_formula_units_Z   2
loop_
 _symmetry_equiv_pos_site_id
 _symmetry_equiv_pos_as_xyz
  1  'x, y, z'
loop_
 _atom_site_type_symbol
 _atom_site_label
 _atom_site_symmetry_multiplicity
 _atom_site_fract_x
 _atom_site_fract_y
 _atom_site_fract_z
 _atom_site_occupancy
 _atom_site_hle17_bader_spin_density
 _atom_site_hle17_ddec_charge
 _atom_site_hle17_ddec_spin_density
 _atom_site_hle17_ddec_sum_bond_order
 _atom_site_hle17_magmom
 _atom_site_hse06_10hf_bader_spin_density
 _atom_site_hse06_10hf_ddec_charge
 _atom_site_hse06_10hf_ddec_spin_density
 _atom_site_hse06_10hf_ddec_sum_bond_order
 _atom_site_hse06_10hf_magmom
 _atom_site_hse06_bader_spin_density
 _atom_site_hse06_ddec_charge
 _atom_site_hse06_ddec_spin_density
 _atom_site_hse06_ddec_sum_bond_order
 _atom_site_hse06_magmom
 _atom_site_pbe_bader_spin_density
 _atom_site_pbe_cm5_charge
 _atom_site_pbe_ddec_charge
 _atom_site_pbe_ddec_spin_density
 _atom_site_pbe_ddec_sum_bond_order
 _atom_site_pbe_magmom
Ag  Ag0  1  0.91595064  0.91620898  0.92371458  1  0  0.613677  0  1.466567  0  0  0.509093  0  1.931893  0  0  0.543446  0  1.864717  0  0  0.428355  0.483303  0  1.980381  0
Ag  Ag1  1  0.08404898  0.08379139  0.07628488  1  0  0.61368  0  1.466578  0  0  0.509111  0  1.931875  0  0  0.543452  0  1.864724  0  0  0.428359  0.483324  0  1.980364  0
Ag  Ag2  1  0.45479454  0.75612747  0.05858920  1  0  0.715899  0  1.234128  0  0  0.609919  0  1.65548  0  0  0.641752  0  1.598901  0  0  0.452925  0.586693  0  1.695984  0
Ag  Ag3  1  0.54520274  0.24387141  0.94140556  1  0  0.7159  0  1.234109  0  0  0.609919  0  1.655478  0  0  0.641753  0  1.598896  0  0  0.452915  0.586693  0  1.695986  0
H  H4  1  0.24907271  0.59907905  0.77364282  1  0  0.414914  0  0.871762  0  0  0.386332  0  0.946191  0  0  0.397188  0  0.933995  0  0  0.312257  0.378857  0  0.954437  0
H  H5  1  0.75092741  0.40091981  0.22635489  1  0  0.414923  0  0.871753  0  0  0.386341  0  0.946176  0  0  0.397197  0  0.933977  0  0  0.312277  0.378863  0  0.954433  0
H  H6  1  0.20296733  0.74751032  0.52662798  1  0  0.124103  0  0.954207  0  0  0.136229  0  1.008681  0  0  0.139759  0  1.007204  0  0  0.109809  0.133713  0  1.009957  0
H  H7  1  0.79703466  0.25248706  0.47337101  1  0  0.124095  0  0.954231  0  0  0.136212  0  1.00871  0  0  0.139743  0  1.00723  0  0  0.109791  0.133701  0  1.009984  0
H  H8  1  0.35838059  0.87938818  0.28958274  1  0  0.066127  0  1.005511  0  0  0.069054  0  1.094766  0  0  0.073645  0  1.087243  0  0  0.086078  0.065545  0  1.100157  0
H  H9  1  0.64162201  0.12061206  0.71041445  1  0  0.066113  0  1.005557  0  0  0.069054  0  1.094799  0  0  0.073644  0  1.087276  0  0  0.086076  0.065543  0  1.100191  0
H  H10  1  0.92654410  0.72839249  0.50645361  1  0  0.108719  0  0.966875  0  0  0.117067  0  1.030447  0  0  0.120494  0  1.027399  0  0  0.109049  0.114662  0  1.032746  0
H  H11  1  0.07345603  0.27161083  0.49354822  1  0  0.10863  0  0.966906  0  0  0.117017  0  1.030437  0  0  0.120448  0  1.027389  0  0  0.109019  0.114609  0  1.032741  0
C  C12  1  0.68197015  0.65562917  0.64380006  1  0  -0.249786  0  3.711175  0  0  -0.224527  0  3.95916  0  0  -0.238104  0  3.981429  0  0  -0.033875  -0.216074  0  3.945071  0
C  C13  1  0.31802900  0.34437269  0.35620011  1  0  -0.249895  0  3.711146  0  0  -0.224657  0  3.95914  0  0  -0.23823  0  3.981407  0  0  -0.033872  -0.21619  0  3.945034  0
C  C14  1  0.47556682  0.66232423  0.65130345  1  0  0.360615  0  3.786379  0  0  0.343594  0  4.043543  0  0  0.358728  0  4.059101  0  0  0.095454  0.334033  0  4.032135  0
C  C15  1  0.52443339  0.33767902  0.34869525  1  0  0.360597  0  3.786329  0  0  0.343625  0  4.043417  0  0  0.35876  0  4.058972  0  0  0.095466  0.334065  0  4.032009  0
C  C16  1  0.36246821  0.74099920  0.52143495  1  0  -0.188014  0  3.700822  0  0  -0.204823  0  3.948297  0  0  -0.214135  0  3.970207  0  0  -0.09956  -0.198635  0  3.93267  0
C  C17  1  0.63753393  0.25900253  0.47856296  1  0  -0.187985  0  3.700814  0  0  -0.204795  0  3.94826  0  0  -0.214106  0  3.970164  0  0  -0.099563  -0.198617  0  3.932641  0
C  C18  1  0.45138438  0.81402592  0.38869053  1  0  -0.019106  0  3.735863  0  0  -0.043674  0  3.989026  0  0  -0.039415  0  4.007599  0  0  -0.077582  -0.044959  0  3.974993  0
C  C19  1  0.54861819  0.18597435  0.61130770  1  0  -0.019108  0  3.735904  0  0  -0.043697  0  3.989063  0  0  -0.039434  0  4.00764  0  0  -0.077568  -0.044975  0  3.975025  0
C  C20  1  0.65514655  0.81186637  0.38125550  1  0  -0.082559  0  3.753454  0  0  -0.062477  0  3.993082  0  0  -0.074046  0  4.016878  0  0  -0.026838  -0.055202  0  3.977615  0
C  C21  1  0.34485407  0.18813544  0.61874458  1  0  -0.082489  0  3.753525  0  0  -0.062399  0  3.993177  0  0  -0.073968  0  4.016975  0  0  -0.02681  -0.055124  0  3.97771  0
C  C22  1  0.76857753  0.73118690  0.51040700  1  0  -0.024961  0  3.72758  0  0  -0.061864  0  3.976035  0  0  -0.055919  0  3.993807  0  0  -0.073281  -0.06654  0  3.965522  0
C  C23  1  0.23142263  0.26881640  0.48959379  1  0  -0.024889  0  3.72766  0  0  -0.061822  0  3.976112  0  0  -0.055883  0  3.993887  0  0  -0.0733  -0.066501  0  3.965597  0
C  C24  1  0.75389213  0.89772167  0.24289681  1  0  0.669731  0  3.858864  0  0  0.615613  0  4.141493  0  0  0.65317  0  4.136382  0  0  0.208629  0.589106  0  4.14512  0
C  C25  1  0.24610749  0.10227870  0.75710265  1  0  0.669752  0  3.85882  0  0  0.615576  0  4.141534  0  0  0.653133  0  4.136423  0  0  0.208602  0.589065  0  4.145167  0
S  S26  1  0.83075773  0.56933184  0.80444495  1  0  1.372981  0  5.53858  0  0  1.271473  0  6.037702  0  0  1.32136  0  6.016379  0  0  0.525642  1.23675  0  6.051557  0
S  S27  1  0.16923791  0.43066720  0.19555615  1  0  1.373071  0  5.538461  0  0  1.27156  0  6.037591  0  0  1.321444  0  6.016269  0  0  0.525696  1.236833  0  6.051447  0
O  O28  1  0.73979147  0.71352900  0.88865490  1  0  -0.689118  0  2.137459  0  0  -0.613069  0  2.44278  0  0  -0.640871  0  2.423307  0  0  -0.354109  -0.593227  0  2.456908  0
O  O29  1  0.26020812  0.28647139  0.11134560  1  0  -0.689144  0  2.137395  0  0  -0.613108  0  2.442727  0  0  -0.640908  0  2.423254  0  0  -0.354118  -0.593266  0  2.456853  0
O  O30  1  0.81859160  0.37390262  0.88718344  1  0  -0.708032  0  2.157571  0  0  -0.642933  0  2.471776  0  0  -0.669013  0  2.449882  0  0  -0.346044  -0.624448  0  2.486571  0
O  O31  1  0.18140507  0.62609785  0.11281724  1  0  -0.707999  0  2.157502  0  0  -0.642886  0  2.471672  0  0  -0.668965  0  2.449776  0  0  -0.346047  -0.624397  0  2.486457  0
O  O32  1  0.03794806  0.56599764  0.75256062  1  0  -0.663173  0  2.021097  0  0  -0.604756  0  2.275069  0  0  -0.627126  0  2.261093  0  0  -0.323407  -0.58876  0  2.283821  0
O  O33  1  0.96205091  0.43399989  0.24744168  1  0  -0.663232  0  2.021116  0  0  -0.604796  0  2.275061  0  0  -0.627178  0  2.26111  0  0  -0.323453  -0.588803  0  2.283819  0
O  O34  1  0.39306615  0.59520199  0.78383950  1  0  -0.54542  0  2.212688  0  0  -0.490446  0  2.465619  0  0  -0.511202  0  2.451003  0  0  -0.345824  -0.475247  0  2.475165  0
O  O35  1  0.60693306  0.40479982  0.21615859  1  0  -0.545388  0  2.212614  0  0  -0.49043  0  2.465522  0  0  -0.511184  0  2.450907  0  0  -0.345842  -0.47523  0  2.475076  0
O  O36  1  0.68035789  0.91325412  0.11954965  1  0  -0.682693  0  2.213387  0  0  -0.589777  0  2.501633  0  0  -0.626445  0  2.487374  0  0  -0.331213  -0.563065  0  2.511356  0
O  O37  1  0.31964173  0.08674625  0.88044981  1  0  -0.682716  0  2.213426  0  0  -0.58976  0  2.50167  0  0  -0.62644  0  2.487438  0  0  -0.331202  -0.563044  0  2.511389  0
O  O38  1  0.90510637  0.95079697  0.25579693  1  0  -0.593908  0  2.068158  0  0  -0.520047  0  2.329956  0  0  -0.553273  0  2.319924  0  0  -0.316457  -0.496528  0  2.336224  0
O  O39  1  0.09489474  0.04920334  0.74420140  1  0  -0.593912  0  2.068146  0  0  -0.520043  0  2.329997  0  0  -0.55327  0  2.319965  0  0  -0.316438  -0.496522  0  2.336267  0
