# generated using pymatgen
data_MnH12C16(N3O2)2
_symmetry_space_group_name_H-M   'P 1'
_cell_length_a   6.64866628
_cell_length_b   10.05220517
_cell_length_c   12.57111465
_cell_angle_alpha   113.50378174
_cell_angle_beta   99.02037364
_cell_angle_gamma   89.98962731
_symmetry_Int_Tables_number   1
_chemical_formula_structural   MnH12C16(N3O2)2
_chemical_formula_sum   'Mn2 H24 C32 N12 O8'
_cell_volume   759.13492866
_cell_formula_units_Z   2
loop_
 _symmetry_equiv_pos_site_id
 _symmetry_equiv_pos_as_xyz
  1  'x, y, z'
loop_
 _atom_site_type_symbol
 _atom_site_label
 _atom_site_symmetry_multiplicity
 _atom_site_fract_x
 _atom_site_fract_y
 _atom_site_fract_z
 _atom_site_occupancy
 _atom_site_hle17_ddec_charge
 _atom_site_hle17_ddec_spin_density
 _atom_site_hle17_ddec_sum_bond_order
 _atom_site_hle17_magmom
 _atom_site_hse06_10hf_ddec_charge
 _atom_site_hse06_10hf_ddec_spin_density
 _atom_site_hse06_10hf_ddec_sum_bond_order
 _atom_site_hse06_10hf_magmom
 _atom_site_hse06_ddec_charge
 _atom_site_hse06_ddec_spin_density
 _atom_site_hse06_ddec_sum_bond_order
 _atom_site_hse06_magmom
 _atom_site_pbe_cm5_charge
 _atom_site_pbe_ddec_charge
 _atom_site_pbe_ddec_spin_density
 _atom_site_pbe_ddec_sum_bond_order
 _atom_site_pbe_magmom
Mn  Mn0  1  0.75009681  0.07067995  0.00003530  1  1.12933  4.798381  1.75545  4.668  0.949246  4.723161  2.253547  4.521  1.01348  4.768752  2.182742  4.588  0.603402  0.899648  4.673857  2.305724  4.451
Mn  Mn1  1  0.24990651  0.92932177  0.99996849  1  1.129333  4.798407  1.75544  4.668  0.949245  4.723173  2.253543  4.521  1.013492  4.768766  2.182711  4.588  0.603404  0.899647  4.67387  2.305719  4.451
H  H2  1  0.01343641  0.95901374  0.58504473  1  0.298911  -2e-05  0.928087  0.0  0.27644  -2.2e-05  0.99417  0.0  0.286239  -2.3e-05  0.986032  0.0  0.311357  0.269498  -2.2e-05  1.000001  0.0
H  H3  1  0.48687095  0.37390785  0.41474352  1  0.29899  -1.8e-05  0.92772  0.0  0.276423  -2.2e-05  0.993929  0.0  0.286207  -2.3e-05  0.985826  0.0  0.311744  0.269492  -2.3e-05  0.999737  0.0
H  H4  1  0.98656584  0.04097717  0.41495146  1  0.298887  -1.9e-05  0.928126  0.0  0.27641  -2.3e-05  0.994167  0.0  0.286208  -2.3e-05  0.986027  0.0  0.311398  0.269473  -2.2e-05  0.99999  0.0
H  H5  1  0.51313150  0.62610045  0.58525917  1  0.298994  -1.7e-05  0.927735  0.0  0.276424  -2.3e-05  0.993934  0.0  0.286208  -2.3e-05  0.985831  0.0  0.311761  0.269492  -2.3e-05  0.99974  0.0
H  H6  1  0.60421661  0.20937909  0.56068801  1  0.118919  -0.000136  0.929606  0.0  0.125073  7.9e-05  0.993534  0.0  0.129241  2.7e-05  0.989324  0.0  0.117135  0.121937  9.8e-05  0.996724  0.0
H  H7  1  0.89553008  0.64815070  0.43856944  1  0.119236  -0.000147  0.929518  0.0  0.12588  7.9e-05  0.992833  0.0  0.130037  2.6e-05  0.98861  0.0  0.117576  0.122767  0.000123  0.995986  0.0
H  H8  1  0.39579150  0.79062477  0.43931847  1  0.118929  -0.000131  0.929466  0.0  0.125095  7.9e-05  0.993386  0.0  0.129266  2.6e-05  0.989171  0.0  0.117129  0.121969  9.8e-05  0.996563  0.0
H  H9  1  0.10445902  0.35184571  0.56142506  1  0.119154  -0.000151  0.929572  0.0  0.125802  7.9e-05  0.99288  0.0  0.129961  2.6e-05  0.988658  0.0  0.117563  0.12269  0.000123  0.996036  0.0
H  H10  1  0.93304251  0.30014901  0.70217114  1  0.100222  0.000288  0.993375  0.0  0.110716  0.000321  1.056592  0.0  0.11292  0.000236  1.057816  0.0  0.101523  0.108959  0.000431  1.056269  0.0
H  H11  1  0.56682007  0.59755335  0.29686122  1  0.100834  0.000294  0.993577  0.0  0.110808  0.000317  1.05723  0.0  0.113  0.000233  1.058507  0.0  0.101732  0.109151  0.000407  1.056741  0.0
H  H12  1  0.06695395  0.69986033  0.29783458  1  0.10024  0.000294  0.993339  0.0  0.110725  0.000321  1.056569  0.0  0.11296  0.000236  1.057758  0.0  0.101535  0.108967  0.000431  1.056244  0.0
H  H13  1  0.43316892  0.40244196  0.70313292  1  0.100824  0.000292  0.993634  0.0  0.110839  0.000317  1.057233  0.0  0.113033  0.000233  1.058507  0.0  0.101754  0.109184  0.000407  1.056747  0.0
H  H14  1  0.09640955  0.20687822  0.94714916  1  0.136707  0.000217  0.967368  0.0  0.153513  0.00084  1.034223  0.0  0.156269  0.000575  1.032752  0.0  0.108235  0.151292  0.001108  1.035525  0.0
H  H15  1  0.40408981  0.25919720  0.05238144  1  0.136576  0.000216  0.967465  0.0  0.153916  0.000853  1.033852  0.0  0.156664  0.000587  1.032407  0.0  0.108351  0.151705  0.001121  1.035144  0.0
H  H16  1  0.90359845  0.79312456  0.05285696  1  0.136738  0.000213  0.967388  0.0  0.153536  0.000841  1.03425  0.0  0.156293  0.000575  1.03278  0.0  0.108238  0.151314  0.001109  1.035556  0.0
H  H17  1  0.59592027  0.74079589  0.94761610  1  0.136546  0.000225  0.967522  0.0  0.153881  0.000853  1.033915  0.0  0.156629  0.000587  1.032471  0.0  0.108335  0.151671  0.00112  1.035206  0.0
H  H18  1  0.99491398  0.37923823  0.99320978  1  0.117842  -2.7e-05  0.945719  0.0  0.140634  8.5e-05  1.004612  0.0  0.141707  1.2e-05  1.005202  0.0  0.096988  0.139779  0.000227  1.004253  0.0
H  H19  1  0.50520088  0.38536221  0.00596477  1  0.117832  -3.1e-05  0.945784  0.0  0.141014  8.6e-05  1.004392  0.0  0.142136  1.3e-05  1.004951  0.0  0.097319  0.140181  0.000222  1.003996  0.0
H  H20  1  0.00508467  0.62076238  0.00679485  1  0.117876  -2.5e-05  0.945668  0.0  0.140636  8.5e-05  1.004614  0.0  0.1417  1.2e-05  1.005214  0.0  0.097006  0.139787  0.000227  1.004254  0.0
H  H21  1  0.49480649  0.61463412  0.99403441  1  0.117819  -3.1e-05  0.945783  0.0  0.141006  8.6e-05  1.004393  0.0  0.14213  1.3e-05  1.00495  0.0  0.097286  0.140173  0.000222  1.003993  0.0
H  H22  1  0.14643354  0.32730036  0.87967764  1  0.114688  -0.000115  0.946294  0.0  0.137206  -3.6e-05  1.003745  0.0  0.138376  -5.9e-05  1.004671  0.0  0.092519  0.136284  -1.1e-05  1.003203  0.0
H  H23  1  0.35347657  0.44688279  0.11937324  1  0.114679  -0.00012  0.946316  0.0  0.137431  -3.3e-05  1.003693  0.0  0.138632  -5.7e-05  1.004555  0.0  0.092862  0.136513  -4e-06  1.003164  0.0
H  H24  1  0.85357173  0.67270566  0.12033090  1  0.114688  -0.000119  0.946326  0.0  0.137207  -3.6e-05  1.003765  0.0  0.1384  -5.9e-05  1.004668  0.0  0.092531  0.136285  -1.1e-05  1.003221  0.0
H  H25  1  0.64652600  0.55311136  0.88062562  1  0.114657  -0.000119  0.946423  0.0  0.137442  -3.4e-05  1.00376  0.0  0.138646  -5.7e-05  1.00462  0.0  0.092854  0.136525  -4e-06  1.003233  0.0
C  C26  1  0.52530077  0.10015523  0.77594677  1  0.127859  0.003742  3.77078  0.004  0.119617  0.004522  4.012737  0.005  0.127499  0.004025  4.0296  0.005  0.123986  0.114144  0.005328  4.001806  0.005
C  C27  1  0.97491752  0.32398473  0.22378556  1  0.127423  0.003843  3.770817  0.004  0.118286  0.004559  4.01468  0.005  0.126221  0.004069  4.031412  0.005  0.124726  0.112781  0.005267  4.003748  0.005
C  C28  1  0.47469527  0.89984987  0.22405116  1  0.127938  0.003774  3.770595  0.004  0.119604  0.00452  4.012697  0.005  0.12758  0.004027  4.029427  0.005  0.124025  0.114131  0.005328  4.00177  0.005
C  C29  1  0.02507939  0.67601379  0.77621347  1  0.127332  0.003829  3.770786  0.004  0.118182  0.004558  4.014646  0.005  0.126116  0.004069  4.031379  0.005  0.124724  0.11268  0.005265  4.00371  0.005
C  C30  1  0.48132476  0.12194297  0.67147310  1  -0.111491  -0.003099  3.768872  -0.002  -0.099192  -0.001854  4.010131  -0.001  -0.109294  -0.002827  4.031118  -0.002  -0.00596  -0.093007  -0.001158  3.996622  -0.001
C  C31  1  0.01868205  0.45011275  0.32816426  1  -0.109457  -0.003207  3.768206  -0.002  -0.096895  -0.001878  4.009787  -0.001  -0.106951  -0.002871  4.030714  -0.002  -0.006117  -0.090764  -0.001241  3.996335  -0.001
C  C32  1  0.51867378  0.87805659  0.32852879  1  -0.111482  -0.003137  3.769158  -0.002  -0.0992  -0.001851  4.010414  -0.001  -0.109334  -0.002831  4.031375  -0.002  -0.005952  -0.09302  -0.001157  3.99691  -0.001
C  C33  1  0.98131497  0.54988688  0.67183355  1  -0.109434  -0.003188  3.768147  -0.002  -0.096904  -0.001877  4.009768  -0.001  -0.106959  -0.002875  4.030693  -0.002  -0.006119  -0.090771  -0.001241  3.996315  -0.001
C  C34  1  0.63145881  0.19325562  0.64241900  1  0.020249  0.004517  3.681737  0.004  -0.009558  0.006097  3.940269  0.005  -0.000624  0.005276  3.950459  0.004  -0.052963  -0.015596  0.007743  3.933846  0.006
C  C35  1  0.86836440  0.55034946  0.35692625  1  0.018322  0.004645  3.683627  0.004  -0.011631  0.006158  3.942225  0.005  -0.002688  0.005338  3.952401  0.004  -0.053742  -0.017677  0.007839  3.935733  0.006
C  C36  1  0.36854038  0.80675051  0.35758271  1  0.020285  0.004534  3.681734  0.004  -0.009519  0.006097  3.940245  0.005  -0.000587  0.005279  3.95045  0.004  -0.052949  -0.015569  0.007743  3.93382  0.006
C  C37  1  0.13162937  0.44964804  0.64306821  1  0.018464  0.004648  3.683375  0.004  -0.011454  0.006157  3.94194  0.005  -0.002511  0.005337  3.952111  0.004  -0.053726  -0.0175  0.007837  3.935451  0.006
C  C38  1  0.81228487  0.24443445  0.72103298  1  -0.172424  -0.003888  3.67727  -0.002  -0.194657  -0.002689  3.930572  -0.001  -0.202885  -0.00359  3.94852  -0.002  -0.08695  -0.189455  -0.002104  3.91919  -0.001
C  C39  1  0.68759290  0.52296218  0.27823966  1  -0.170773  -0.00406  3.678239  -0.002  -0.193175  -0.002729  3.931153  -0.002  -0.201346  -0.003648  3.949161  -0.002  -0.086317  -0.187974  -0.002108  3.919667  -0.001
C  C40  1  0.18771605  0.75557374  0.27897592  1  -0.17238  -0.003946  3.677122  -0.002  -0.194643  -0.002686  3.930401  -0.001  -0.202894  -0.003593  3.948328  -0.002  -0.086915  -0.189444  -0.002102  3.91902  -0.001
C  C41  1  0.31240217  0.47703312  0.72175577  1  -0.170906  -0.00406  3.678253  -0.002  -0.193364  -0.002728  3.931186  -0.002  -0.201531  -0.003647  3.949198  -0.002  -0.086351  -0.188162  -0.002107  3.919706  -0.001
C  C42  1  0.84307894  0.22463954  0.82699724  1  0.342219  0.004958  3.699459  0.005  0.346642  0.007488  3.945775  0.007  0.359778  0.006213  3.961066  0.006  0.138286  0.337637  0.009587  3.93537  0.008
C  C43  1  0.65701615  0.39727304  0.17240959  1  0.339887  0.00506  3.703303  0.005  0.345807  0.007544  3.947726  0.007  0.358776  0.006271  3.963311  0.006  0.13863  0.336767  0.009596  3.937351  0.008
C  C44  1  0.15692015  0.77536548  0.17300490  1  0.342198  0.004986  3.699519  0.005  0.346726  0.007487  3.945697  0.007  0.359861  0.006217  3.961  0.006  0.138336  0.337719  0.00959  3.935293  0.008
C  C45  1  0.34298349  0.60272225  0.82758701  1  0.339877  0.005067  3.703323  0.005  0.345797  0.007541  3.947755  0.007  0.358751  0.006271  3.963365  0.006  0.138608  0.33676  0.009594  3.937379  0.008
C  C46  1  0.03185340  0.28782154  0.91602778  1  -0.383538  0.000815  3.704668  0.0  -0.467981  0.002356  3.943871  0.001  -0.471933  0.001856  3.950097  0.001  -0.237159  -0.464819  0.00284  3.939685  0.001
C  C47  1  0.46832704  0.37122276  0.08327715  1  -0.383003  0.000862  3.706201  0.0  -0.468883  0.002377  3.945013  0.001  -0.472813  0.001875  3.951199  0.001  -0.237853  -0.465749  0.002857  3.940831  0.001
C  C48  1  0.96815155  0.71218123  0.08397888  1  -0.383579  0.000827  3.704763  0.0  -0.468034  0.002357  3.944012  0.001  -0.472  0.001856  3.950227  0.001  -0.23721  -0.464882  0.00284  3.939825  0.001
C  C49  1  0.53167858  0.62877140  0.91672117  1  -0.382917  0.000846  3.7062  0.0  -0.468824  0.002376  3.944989  0.001  -0.472753  0.001874  3.95118  0.001  -0.237799  -0.465691  0.002856  3.940806  0.001
C  C50  1  0.37281072  0.02332154  0.80585346  1  0.391604  -0.002872  3.931678  -0.001  0.351408  0.000821  4.227784  0.002  0.370763  -0.001443  4.237461  0.0  0.208315  0.337985  0.002602  4.220306  0.003
C  C51  1  0.12758609  0.21738973  0.19404070  1  0.392617  -0.002886  3.931239  -0.001  0.352279  0.000816  4.228425  0.002  0.371633  -0.001456  4.238003  0.0  0.208031  0.338867  0.002572  4.220914  0.003
C  C52  1  0.62719098  0.97667909  0.19414984  1  0.391657  -0.002883  3.931723  -0.001  0.351458  0.000825  4.227894  0.002  0.370792  -0.001439  4.237541  0.0  0.208347  0.338029  0.002609  4.220433  0.003
C  C53  1  0.87241876  0.78261207  0.80595848  1  0.392798  -0.002907  3.931272  -0.001  0.352483  0.000817  4.22841  0.002  0.371838  -0.00145  4.237988  0.0  0.208118  0.339069  0.002574  4.220899  0.003
C  C54  1  0.27976600  0.07332712  0.59871533  1  0.474668  0.00128  3.898116  0.001  0.425672  0.002275  4.19255  0.002  0.452226  0.001536  4.198198  0.001  0.219764  0.408163  0.003067  4.187955  0.002
C  C55  1  0.22023921  0.47422420  0.40099530  1  0.474636  0.001314  3.896126  0.001  0.425108  0.00228  4.19135  0.002  0.451647  0.001541  4.196998  0.001  0.219574  0.40759  0.003004  4.186816  0.002
C  C56  1  0.72022050  0.92667385  0.40126773  1  0.474354  0.001305  3.898159  0.001  0.425437  0.002274  4.192398  0.002  0.451992  0.001536  4.198052  0.001  0.219661  0.40793  0.003066  4.187802  0.002
C  C57  1  0.77976119  0.52577870  0.59900386  1  0.474631  0.001301  3.896008  0.001  0.425114  0.00228  4.191212  0.002  0.451655  0.001545  4.196856  0.001  0.219557  0.407595  0.003004  4.186678  0.002
N  N58  1  0.70308052  0.15120495  0.85280358  1  -0.392069  0.022441  3.152372  0.01  -0.330237  0.027227  3.415533  0.011  -0.350444  0.023339  3.426656  0.008  -0.305525  -0.31605  0.031185  3.408228  0.014
N  N59  1  0.79717856  0.29815999  0.14685306  1  -0.391423  0.02234  3.153707  0.01  -0.330177  0.027188  3.417615  0.011  -0.35037  0.023288  3.42878  0.008  -0.306373  -0.315964  0.031189  3.410306  0.014
N  N60  1  0.29691204  0.84879573  0.14719659  1  -0.392073  0.022415  3.152507  0.01  -0.33028  0.027233  3.415737  0.011  -0.350517  0.02334  3.426829  0.008  -0.305567  -0.316099  0.031189  3.408434  0.014
N  N61  1  0.20282423  0.70183635  0.85314574  1  -0.391355  0.022331  3.153665  0.01  -0.330073  0.027187  3.417523  0.011  -0.350261  0.023285  3.428694  0.008  -0.306346  -0.315865  0.031187  3.410218  0.014
N  N62  1  0.19568118  0.97232571  0.73591367  1  -0.252214  0.009167  2.91472  0.01  -0.246292  0.0129  3.19709  0.014  -0.255606  0.011065  3.211257  0.012  -0.223014  -0.239918  0.015329  3.187468  0.016
N  N63  1  0.30475255  0.23638136  0.26397814  1  -0.253354  0.009181  2.915679  0.01  -0.247265  0.012891  3.198488  0.014  -0.256577  0.011063  3.212647  0.012  -0.223292  -0.240718  0.015443  3.188725  0.016
N  N64  1  0.80431705  0.02767068  0.26408238  1  -0.252138  0.009178  2.914563  0.01  -0.246249  0.012899  3.196859  0.014  -0.255566  0.011064  3.211021  0.012  -0.222876  -0.239879  0.015326  3.187251  0.016
N  N65  1  0.69525383  0.76362041  0.73602274  1  -0.253434  0.009196  2.915768  0.01  -0.247378  0.012891  3.198594  0.014  -0.25669  0.011054  3.212752  0.012  -0.223357  -0.240833  0.015441  3.188834  0.016
N  N66  1  0.15781899  0.99777903  0.63597822  1  -0.261087  0.000765  3.420744  0.0  -0.199089  0.00123  3.66895  0.001  -0.21817  0.000871  3.683598  0.0  -0.27596  -0.186175  0.00171  3.658784  0.001
N  N67  1  0.34246328  0.36164352  0.36379706  1  -0.26032  0.000738  3.421457  0.0  -0.19865  0.001231  3.670492  0.001  -0.217724  0.000869  3.685153  0.0  -0.275897  -0.185725  0.001731  3.660236  0.001
N  N68  1  0.84218227  0.00221726  0.36402362  1  -0.260961  0.000754  3.420711  0.0  -0.198861  0.00123  3.668701  0.001  -0.217934  0.000868  3.683338  0.0  -0.276029  -0.185955  0.001708  3.658546  0.001
N  N69  1  0.65753690  0.63835715  0.63620374  1  -0.260278  0.000743  3.421511  0.0  -0.198579  0.00123  3.670514  0.001  -0.217655  0.000867  3.685178  0.0  -0.275873  -0.185653  0.00173  3.660258  0.001
O  O70  1  0.41703345  0.01018344  0.90638395  1  -0.662597  0.062121  2.18503  0.042  -0.581433  0.075093  2.486889  0.049  -0.617225  0.067469  2.473731  0.042  -0.317334  -0.553523  0.082276  2.494458  0.056
O  O71  1  0.08336558  0.10376095  0.09363883  1  -0.662726  0.062147  2.185014  0.042  -0.581233  0.075115  2.486811  0.049  -0.617103  0.067494  2.473864  0.042  -0.317044  -0.553344  0.082323  2.49429  0.056
O  O72  1  0.58296531  0.98981839  0.09361313  1  -0.662679  0.062128  2.184876  0.042  -0.581498  0.075098  2.486721  0.049  -0.61731  0.067482  2.473602  0.042  -0.317406  -0.55357  0.082281  2.49426  0.056
O  O73  1  0.91664253  0.89624302  0.90636133  1  -0.662832  0.062147  2.18507  0.042  -0.581348  0.075119  2.486866  0.049  -0.617223  0.067497  2.473929  0.042  -0.317069  -0.553455  0.082325  2.494343  0.056
O  O74  1  0.22101847  0.10026227  0.50928569  1  -0.573269  0.000651  1.941717  0.001  -0.533317  0.001626  2.166764  0.002  -0.555783  0.001031  2.16187  0.001  -0.315287  -0.517276  0.002643  2.169359  0.003
O  O75  1  0.27877876  0.59041587  0.49041945  1  -0.574511  0.000642  1.940587  0.001  -0.533461  0.001633  2.165153  0.002  -0.555938  0.001033  2.160286  0.001  -0.315312  -0.517416  0.002933  2.167775  0.003
O  O76  1  0.77898584  0.89973396  0.49071956  1  -0.573287  0.000638  1.940967  0.001  -0.533371  0.001626  2.165976  0.002  -0.555827  0.001029  2.161046  0.001  -0.315293  -0.517322  0.002642  2.168567  0.003
O  O77  1  0.72121817  0.40958277  0.50957246  1  -0.574481  0.000651  1.940347  0.001  -0.533462  0.001631  2.164937  0.002  -0.555938  0.001037  2.160062  0.001  -0.315291  -0.517413  0.002933  2.167557  0.003
