# generated using pymatgen
data_Cd3H32C48S4N6(ClO8)2
_symmetry_space_group_name_H-M   'P 1'
_cell_length_a   12.29514058
_cell_length_b   12.29514962
_cell_length_c   19.48757359
_cell_angle_alpha   93.73319573
_cell_angle_beta   93.73317930
_cell_angle_gamma   110.62673713
_symmetry_Int_Tables_number   1
_chemical_formula_structural   Cd3H32C48S4N6(ClO8)2
_chemical_formula_sum   'Cd6 H64 C96 S8 N12 Cl4 O32'
_cell_volume   2738.99405675
_cell_formula_units_Z   2
loop_
 _symmetry_equiv_pos_site_id
 _symmetry_equiv_pos_as_xyz
  1  'x, y, z'
loop_
 _atom_site_type_symbol
 _atom_site_label
 _atom_site_symmetry_multiplicity
 _atom_site_fract_x
 _atom_site_fract_y
 _atom_site_fract_z
 _atom_site_occupancy
 _atom_site_pbe_bader_charge
 _atom_site_pbe_bader_spin_density
 _atom_site_pbe_cm5_charge
 _atom_site_pbe_ddec_charge
 _atom_site_pbe_ddec_spin_density
 _atom_site_pbe_ddec_sum_bond_order
 _atom_site_pbe_magmom
Cd  Cd0  1  0.71323687  0.28676488  0.24999976  1  1.312654  0  0.812604  0.975126  0  2.190875  0
Cd  Cd1  1  0.28676470  0.71323562  0.75000050  1  1.312654  0  0.812611  0.975131  0  2.190894  0
Cd  Cd2  1  0.84631842  0.43932005  0.45286572  1  1.30059  0  0.801217  0.966892  0  2.191088  0
Cd  Cd3  1  0.56068062  0.15368262  0.04713423  1  1.300585  0  0.801214  0.966888  0  2.191099  0
Cd  Cd4  1  0.15368141  0.56067983  0.54713392  1  1.300599  0  0.801208  0.966872  0  2.191097  0
Cd  Cd5  1  0.43932008  0.84631838  0.95286549  1  1.300585  0  0.801224  0.966908  0  2.19108  0
H  H6  1  0.76089576  0.26390670  0.54773080  1  0.614471  0  0.327516  0.409107  0  0.865713  0
H  H7  1  0.73609448  0.23910492  0.95226912  1  0.614467  0  0.327532  0.40912  0  0.865724  0
H  H8  1  0.23910494  0.73609513  0.45226947  1  0.614473  0  0.327542  0.40914  0  0.865698  0
H  H9  1  0.26390535  0.76089577  0.04773056  1  0.614485  0  0.327505  0.409103  0  0.865722  0
H  H10  1  0.74972163  0.19259982  0.47374316  1  0.673398  0  0.288311  0.39761  0  0.942325  0
H  H11  1  0.80740008  0.25027757  0.02625667  1  0.673398  0  0.288316  0.397625  0  0.942305  0
H  H12  1  0.25027820  0.80740007  0.52625699  1  0.673397  0  0.288322  0.397645  0  0.942273  0
H  H13  1  0.19259975  0.74972231  0.97374297  1  0.673395  0  0.28832  0.397642  0  0.942281  0
H  H14  1  0.19298133  0.29022960  0.36208477  1  0.073797  0  0.10472  0.1167  0  1.039487  0
H  H15  1  0.70977129  0.80701919  0.13791574  1  0.073765  0  0.104721  0.116688  0  1.039538  0
H  H16  1  0.80701761  0.70976590  0.63791518  1  0.073804  0  0.104692  0.116655  0  1.039543  0
H  H17  1  0.29022854  0.19298069  0.86208493  1  0.07382  0  0.104725  0.116716  0  1.039485  0
H  H18  1  0.88819936  0.97459587  0.33726724  1  0.093219  0  0.10648  0.12364  0  1.016772  0
H  H19  1  0.02540504  0.11180166  0.16273277  1  0.093204  0  0.106478  0.12364  0  1.016835  0
H  H20  1  0.11179872  0.02540176  0.66273275  1  0.093265  0  0.106502  0.123656  0  1.016746  0
H  H21  1  0.97459479  0.88819822  0.83726636  1  0.093329  0  0.106472  0.123629  0  1.016836  0
H  H22  1  0.01672235  0.71939325  0.46783576  1  0.148617  0  0.114205  0.097141  0  1.028335  0
H  H23  1  0.28060824  0.98327961  0.03216284  1  0.148658  0  0.114198  0.09717  0  1.028302  0
H  H24  1  0.98327835  0.28060775  0.53216345  1  0.148641  0  0.114205  0.097144  0  1.028326  0
H  H25  1  0.71939420  0.01672202  0.96783544  1  0.148633  0  0.1142  0.097135  0  1.028314  0
H  H26  1  0.99526234  0.91391157  0.47121903  1  0.071489  0  0.104696  0.109886  0  1.017185  0
H  H27  1  0.08608929  0.00473883  0.02877943  1  0.071218  0  0.104721  0.109913  0  1.017181  0
H  H28  1  0.00473837  0.08609026  0.52878176  1  0.071509  0  0.1047  0.109864  0  1.017207  0
H  H29  1  0.91391228  0.99526167  0.97121928  1  0.071483  0  0.104705  0.109899  0  1.017182  0
H  H30  1  0.79270787  0.92283492  0.45724910  1  0.102092  0  0.111569  0.115262  0  1.000283  0
H  H31  1  0.07716466  0.20729287  0.04275086  1  0.102267  0  0.111546  0.115197  0  1.000286  0
H  H32  1  0.20729196  0.07716578  0.54275212  1  0.102282  0  0.111571  0.115274  0  1.000294  0
H  H33  1  0.92283517  0.79270701  0.95724930  1  0.102269  0  0.111573  0.115272  0  1.000312  0
H  H34  1  0.57902157  0.81643417  0.43305666  1  0.125766  0  0.113348  0.128275  0  0.980974  0
H  H35  1  0.18356776  0.42098101  0.06694501  1  0.125903  0  0.113331  0.128266  0  0.980948  0
H  H36  1  0.42098001  0.18356715  0.56694362  1  0.125849  0  0.11333  0.128252  0  0.980898  0
H  H37  1  0.81643382  0.57902031  0.93305630  1  0.125835  0  0.113325  0.128256  0  0.980903  0
H  H38  1  0.41050708  0.62665258  0.41023692  1  0.122938  0  0.108375  0.125875  0  1.008513  0
H  H39  1  0.37334961  0.58949392  0.08976623  1  0.122897  0  0.108414  0.125901  0  1.008529  0
H  H40  1  0.58949363  0.37334925  0.58976437  1  0.122925  0  0.108382  0.125887  0  1.008551  0
H  H41  1  0.62665110  0.41050628  0.91023654  1  0.122935  0  0.108361  0.125863  0  1.008551  0
H  H42  1  0.33729981  0.41299408  0.39603341  1  0.139992  0  0.108502  0.12347  0  1.051398  0
H  H43  1  0.58700837  0.66270158  0.10396873  1  0.13998  0  0.108507  0.123498  0  1.051339  0
H  H44  1  0.66270003  0.58700825  0.60396838  1  0.140002  0  0.108513  0.123496  0  1.05137  0
H  H45  1  0.41299147  0.33729993  0.89603355  1  0.140006  0  0.108506  0.123485  0  1.051402  0
H  H46  1  0.37845837  0.22472692  0.39131069  1  0.105366  0  0.104149  0.109147  0  1.012997  0
H  H47  1  0.77527561  0.62154174  0.10868881  1  0.105355  0  0.104153  0.109143  0  1.01306  0
H  H48  1  0.62153972  0.77527478  0.60868895  1  0.105378  0  0.104143  0.109141  0  1.013057  0
H  H49  1  0.22472597  0.37846039  0.89131099  1  0.105389  0  0.104149  0.109146  0  1.013007  0
H  H50  1  0.58640303  0.23717090  0.41283388  1  0.136941  0  0.119386  0.095043  0  1.008835  0
H  H51  1  0.76283014  0.41359747  0.08716505  1  0.136923  0  0.119388  0.095052  0  1.008919  0
H  H52  1  0.41359593  0.76283030  0.58716527  1  0.136915  0  0.119394  0.095051  0  1.008941  0
H  H53  1  0.23716969  0.58640404  0.91283415  1  0.136913  0  0.119406  0.095065  0  1.008927  0
H  H54  1  0.89846898  0.55670502  0.27776152  1  0.179567  0  0.123495  0.116928  0  1.000506  0
H  H55  1  0.44329575  0.10153068  0.22223788  1  0.179564  0  0.123486  0.116923  0  1.000515  0
H  H56  1  0.10153172  0.44329517  0.72223715  1  0.179567  0  0.1235  0.116959  0  1.000481  0
H  H57  1  0.55670495  0.89846869  0.77776178  1  0.179578  0  0.123507  0.116976  0  1.000457  0
H  H58  1  0.89454582  0.76052263  0.28821420  1  0.095377  0  0.103205  0.108171  0  1.012611  0
H  H59  1  0.23947752  0.10545518  0.21178576  1  0.095396  0  0.103211  0.108157  0  1.012618  0
H  H60  1  0.10545488  0.23947756  0.71178395  1  0.095368  0  0.103217  0.108177  0  1.012668  0
H  H61  1  0.76052318  0.89454501  0.78821445  1  0.095398  0  0.103203  0.108171  0  1.012618  0
H  H62  1  0.70065362  0.78747539  0.27950006  1  0.152854  0  0.112946  0.135754  0  1.01867  0
H  H63  1  0.21252415  0.29934635  0.22049934  1  0.15285  0  0.112945  0.135737  0  1.018684  0
H  H64  1  0.29934708  0.21252480  0.72049911  1  0.152848  0  0.112938  0.135757  0  1.01867  0
H  H65  1  0.78747655  0.70065384  0.77949984  1  0.152848  0  0.112951  0.135747  0  1.018652  0
H  H66  1  0.48280798  0.69637395  0.25946305  1  0.090658  0  0.117568  0.133657  0  0.965563  0
H  H67  1  0.30362669  0.51719218  0.24053693  1  0.090659  0  0.117554  0.133641  0  0.965584  0
H  H68  1  0.51719272  0.30362706  0.74053719  1  0.090663  0  0.117562  0.133662  0  0.96556  0
H  H69  1  0.69637401  0.48280801  0.75946276  1  0.090649  0  0.117563  0.133635  0  0.965579  0
C  C70  1  0.85699580  0.13590711  0.34642453  1  -0.106728  0  -0.04175  -0.210447  0  3.939983  0
C  C71  1  0.86409365  0.14300466  0.15357537  1  -0.106378  0  -0.041753  -0.210475  0  3.93998  0
C  C72  1  0.14300315  0.86409328  0.65357612  1  -0.106729  0  -0.041715  -0.210344  0  3.939937  0
C  C73  1  0.13590530  0.85699491  0.84642422  1  -0.10638  0  -0.041727  -0.210367  0  3.93992  0
C  C74  1  0.90353226  0.26030201  0.35294410  1  0.615355  0  0.077214  0.313353  0  4.123756  0
C  C75  1  0.73969847  0.09646761  0.14705628  1  0.615399  0  0.077217  0.313331  0  4.123805  0
C  C76  1  0.09646757  0.73969625  0.64705599  1  0.615396  0  0.0772  0.313247  0  4.123839  0
C  C77  1  0.26030136  0.90353227  0.85294387  1  0.61541  0  0.07719  0.313261  0  4.12391  0
C  C78  1  0.02746926  0.31337134  0.35852396  1  -0.16996  0  -0.033102  -0.18313  0  3.90501  0
C  C79  1  0.68662921  0.97253103  0.14147602  1  -0.16996  0  -0.033082  -0.183025  0  3.905028  0
C  C80  1  0.97252969  0.68662497  0.64147652  1  -0.170005  0  -0.033007  -0.182968  0  3.905027  0
C  C81  1  0.31337062  0.02746966  0.85852416  1  -0.169922  0  -0.033094  -0.183068  0  3.904983  0
C  C82  1  0.09875358  0.24689441  0.35678732  1  0.087918  0  -0.094386  -0.141616  0  4.008095  0
C  C83  1  0.75310520  0.90124550  0.14321257  1  0.087962  0  -0.09442  -0.141692  0  4.008191  0
C  C84  1  0.90124711  0.75310171  0.64321272  1  0.087883  0  -0.09441  -0.141709  0  4.008341  0
C  C85  1  0.24689289  0.09875376  0.85678800  1  0.087924  0  -0.094397  -0.141647  0  4.008066  0
C  C86  1  0.04888454  0.12538839  0.34873802  1  -0.01668  0  -0.007301  0.125597  0  4.06859  0
C  C87  1  0.87461219  0.95111600  0.15126195  1  -0.016573  0  -0.007272  0.12562  0  4.068516  0
C  C88  1  0.95111354  0.87460843  0.65126194  1  -0.016513  0  -0.007324  0.125632  0  4.068468  0
C  C89  1  0.12538590  0.04888326  0.84873811  1  -0.016591  0  -0.007278  0.125588  0  4.068652  0
C  C90  1  0.92811211  0.06941801  0.34322683  1  0.004525  0  -0.096153  -0.144459  0  4.02402  0
C  C91  1  0.93058268  0.07188800  0.15677253  1  0.004632  0  -0.096144  -0.144444  0  4.024012  0
C  C92  1  0.07188597  0.93057880  0.65677262  1  0.004867  0  -0.096152  -0.144455  0  4.02398  0
C  C93  1  0.06941714  0.92811107  0.84322708  1  0.004126  0  -0.096159  -0.144448  0  4.024036  0
C  C94  1  0.93040479  0.72587878  0.46173061  1  0.548049  0  0.057327  0.117781  0  3.922509  0
C  C95  1  0.27412290  0.06959675  0.03826840  1  0.548026  0  0.057357  0.117808  0  3.922503  0
C  C96  1  0.06959592  0.27412223  0.53826860  1  0.548053  0  0.057314  0.117756  0  3.922498  0
C  C97  1  0.72587954  0.93040406  0.96173036  1  0.54818  0  0.05735  0.11781  0  3.922542  0
C  C98  1  0.91741962  0.83516686  0.46406056  1  -0.06223  0  -0.084378  -0.131804  0  3.984226  0
C  C99  1  0.16483313  0.08258126  0.03593888  1  -0.06192  0  -0.084402  -0.131867  0  3.984267  0
C  C100  1  0.08258021  0.16483302  0.53593959  1  -0.062269  0  -0.084386  -0.131774  0  3.984253  0
C  C101  1  0.83516757  0.91741974  0.96406034  1  -0.062232  0  -0.084395  -0.131835  0  3.984272  0
C  C102  1  0.80666988  0.83992095  0.45627556  1  -0.015244  0  -0.058394  -0.065508  0  3.912102  0
C  C103  1  0.16008073  0.19333245  0.04372454  1  -0.015457  0  -0.058426  -0.06549  0  3.911985  0
C  C104  1  0.19333082  0.16008006  0.54372520  1  -0.015463  0  -0.058425  -0.065604  0  3.912167  0
C  C105  1  0.83992085  0.80666887  0.95627524  1  -0.015511  0  -0.058413  -0.065538  0  3.912162  0
C  C106  1  0.70860199  0.73498061  0.44499212  1  0.016465  0  0.002156  0.04819  0  3.991831  0
C  C107  1  0.26502066  0.29139903  0.05500892  1  0.016546  0  0.002179  0.048255  0  3.991817  0
C  C108  1  0.29139872  0.26501959  0.55500808  1  0.016546  0  0.002211  0.048289  0  3.991753  0
C  C109  1  0.73498091  0.70860148  0.94499133  1  0.016544  0  0.002182  0.048224  0  3.991889  0
C  C110  1  0.72974691  0.62838492  0.44354435  1  0.504747  0  0.115665  0.121123  0  3.97773  0
C  C111  1  0.37161661  0.27025371  0.05645668  1  0.50466  0  0.115645  0.121058  0  3.977792  0
C  C112  1  0.27025292  0.37161578  0.55645635  1  0.504761  0  0.115674  0.121101  0  3.977707  0
C  C113  1  0.62838497  0.72974679  0.94354357  1  0.504817  0  0.115622  0.121009  0  3.977822  0
C  C114  1  0.59176240  0.73306476  0.43327084  1  -0.048602  0  -0.076574  -0.106597  0  3.953835  0
C  C115  1  0.26693621  0.40823800  0.06673069  1  -0.048763  0  -0.076533  -0.106595  0  3.953799  0
C  C116  1  0.40823831  0.26693788  0.56672946  1  -0.048693  0  -0.076563  -0.106549  0  3.95376  0
C  C117  1  0.73306275  0.59176157  0.93327044  1  -0.048644  0  -0.076529  -0.106522  0  3.953774  0
C  C118  1  0.49979342  0.62966177  0.42033618  1  -0.004788  0  -0.080751  -0.116299  0  3.961226  0
C  C119  1  0.37033944  0.50020750  0.07966693  1  -0.004777  0  -0.080834  -0.116362  0  3.96112  0
C  C120  1  0.50020728  0.37033924  0.57966560  1  -0.004798  0  -0.080795  -0.116377  0  3.961265  0
C  C121  1  0.62966127  0.49979270  0.92033584  1  -0.004807  0  -0.080802  -0.116386  0  3.961263  0
C  C122  1  0.63219476  0.51898357  0.43050769  1  0.468646  0  0.114484  0.11702  0  3.981552  0
C  C123  1  0.48101744  0.36780605  0.06949435  1  0.468649  0  0.114508  0.117035  0  3.981518  0
C  C124  1  0.36780507  0.48101712  0.56949302  1  0.468644  0  0.114506  0.11705  0  3.981507  0
C  C125  1  0.51898327  0.63219496  0.93050691  1  0.468646  0  0.114522  0.117073  0  3.98155  0
C  C126  1  0.51784826  0.52065021  0.41865549  1  -0.058209  0  -0.000334  0.048517  0  3.995248  0
C  C127  1  0.47935159  0.48215242  0.08134710  1  -0.058617  0  -0.00034  0.048546  0  3.995098  0
C  C128  1  0.48215157  0.47935130  0.58134576  1  -0.058212  0  -0.000305  0.048575  0  3.995156  0
C  C129  1  0.52064912  0.51784860  0.91865519  1  -0.0582  0  -0.000316  0.048591  0  3.995198  0
C  C130  1  0.42530029  0.41188377  0.40471179  1  -0.020668  0  -0.064049  -0.078709  0  3.904278  0
C  C131  1  0.58811802  0.57469993  0.09529027  1  -0.020314  0  -0.06403  -0.07873  0  3.904225  0
C  C132  1  0.57469867  0.58811744  0.59528941  1  -0.020536  0  -0.064052  -0.078731  0  3.904282  0
C  C133  1  0.41188269  0.42530108  0.90471202  1  -0.02067  0  -0.06403  -0.078725  0  3.904296  0
C  C134  1  0.44818743  0.30959984  0.40256776  1  -0.032453  0  -0.083649  -0.120161  0  3.980235  0
C  C135  1  0.69040160  0.55181379  0.09743277  1  -0.032184  0  -0.083642  -0.120105  0  3.980183  0
C  C136  1  0.55181241  0.69040168  0.59743246  1  -0.032337  0  -0.083652  -0.120171  0  3.980292  0
C  C137  1  0.30959911  0.44818803  0.90256801  1  -0.032336  0  -0.083647  -0.120169  0  3.98026  0
C  C138  1  0.56422553  0.31584287  0.41470237  1  0.480975  0  0.058277  0.111863  0  3.932836  0
C  C139  1  0.68415853  0.43577398  0.08529808  1  0.480792  0  0.058207  0.11176  0  3.932807  0
C  C140  1  0.43577343  0.68415833  0.58529729  1  0.480785  0  0.058223  0.11181  0  3.93295  0
C  C141  1  0.31584218  0.56422703  0.91470267  1  0.480797  0  0.058228  0.11181  0  3.932952  0
C  C142  1  0.81634235  0.57257332  0.27315529  1  0.503612  0  0.058594  0.112085  0  3.902936  0
C  C143  1  0.42742639  0.18365768  0.22684460  1  0.5038  0  0.058551  0.112028  0  3.902918  0
C  C144  1  0.18365748  0.42742738  0.72684439  1  0.503604  0  0.058581  0.112069  0  3.902847  0
C  C145  1  0.57257431  0.81634251  0.77315509  1  0.503792  0  0.058596  0.112061  0  3.902797  0
C  C146  1  0.81298287  0.68594456  0.27907820  1  -0.101118  0  -0.087369  -0.131308  0  3.989335  0
C  C147  1  0.31405524  0.18701747  0.22092172  1  -0.101135  0  -0.08734  -0.131196  0  3.989285  0
C  C148  1  0.18701695  0.31405532  0.72091990  1  -0.101098  0  -0.087405  -0.131353  0  3.989392  0
C  C149  1  0.68594459  0.81298241  0.77907793  1  -0.101142  0  -0.087381  -0.131322  0  3.989415  0
C  C150  1  0.70633987  0.70076438  0.27373035  1  -0.00597  0  -0.061146  -0.073368  0  3.885617  0
C  C151  1  0.29923562  0.29366101  0.22627064  1  -0.00598  0  -0.061156  -0.073416  0  3.885599  0
C  C152  1  0.29366170  0.29923612  0.72626939  1  -0.005993  0  -0.061103  -0.073351  0  3.885525  0
C  C153  1  0.70076421  0.70633968  0.77372904  1  -0.005969  0  -0.061141  -0.073377  0  3.885606  0
C  C154  1  0.60228986  0.60167165  0.26180465  1  0.00079  0  -0.001707  0.042255  0  4.006711  0
C  C155  1  0.39832902  0.39770923  0.23819476  1  0.000789  0  -0.001681  0.042271  0  4.006692  0
C  C156  1  0.39771084  0.39832854  0.73819556  1  0.000798  0  -0.001683  0.042312  0  4.006681  0
C  C157  1  0.60167168  0.60229015  0.76180490  1  0.000771  0  -0.001685  0.042298  0  4.006642  0
C  C158  1  0.61349931  0.49040838  0.25638540  1  0.485188  0  0.110603  0.10947  0  4.000493  0
C  C159  1  0.50959215  0.38650137  0.24361507  1  0.441772  0  0.110592  0.10946  0  4.000547  0
C  C160  1  0.38650226  0.50959212  0.74361382  1  0.485243  0  0.110555  0.109445  0  4.000472  0
C  C161  1  0.49040856  0.61349882  0.75638513  1  0.441822  0  0.110567  0.109423  0  4.000503  0
C  C162  1  0.48860280  0.60969919  0.25547213  1  0.005936  0  -0.074358  -0.105914  0  3.942406  0
C  C163  1  0.39030011  0.51139627  0.24452877  1  -0.043123  0  -0.074343  -0.10585  0  3.94236  0
C  C164  1  0.51139704  0.39030069  0.74452854  1  -0.043109  0  -0.074356  -0.105933  0  3.942456  0
C  C165  1  0.60970059  0.48860392  0.75547144  1  0.005935  0  -0.074327  -0.105835  0  3.942356  0
S  S166  1  0.70335217  0.06058024  0.34780476  1  3.198041  0  0.508129  1.199602  0  6.167457  0
S  S167  1  0.93942059  0.29664725  0.15219460  1  3.198035  0  0.508112  1.199616  0  6.167393  0
S  S168  1  0.29664678  0.93942014  0.65219487  1  3.198052  0  0.508116  1.199516  0  6.167452  0
S  S169  1  0.06057837  0.70335150  0.84780445  1  3.197859  0  0.508101  1.19959  0  6.167412  0
S  S170  1  0.09359562  0.46919122  0.37268504  1  3.18374  0  0.504924  1.187246  0  6.143532  0
S  S171  1  0.53081024  0.90640372  0.12731341  1  3.183518  0  0.504922  1.187148  0  6.143548  0
S  S172  1  0.90640420  0.53080622  0.62731399  1  3.183543  0  0.504902  1.187261  0  6.143528  0
S  S173  1  0.46919046  0.09359566  0.87268573  1  3.183527  0  0.504939  1.187218  0  6.143509  0
N  N174  1  0.83915713  0.62615313  0.45213060  1  -1.258591  0  -0.328146  -0.288538  0  3.536079  0
N  N175  1  0.37384807  0.16084373  0.04786990  1  -1.25854  0  -0.32816  -0.288542  0  3.536133  0
N  N176  1  0.16084357  0.37384788  0.54786913  1  -1.258614  0  -0.328159  -0.288533  0  3.536099  0
N  N177  1  0.62615350  0.83915677  0.95212932  1  -1.258769  0  -0.328143  -0.28851  0  3.53614  0
N  N178  1  0.65251768  0.41731637  0.42874040  1  -1.237941  0  -0.332085  -0.293446  0  3.546012  0
N  N179  1  0.58268562  0.34748341  0.07126065  1  -1.237901  0  -0.332032  -0.293376  0  3.546003  0
N  N180  1  0.34748303  0.58268546  0.57126038  1  -1.237915  0  -0.332059  -0.293415  0  3.546049  0
N  N181  1  0.41731595  0.65251709  0.92873960  1  -1.237929  0  -0.332072  -0.293419  0  3.546033  0
N  N182  1  0.71901998  0.47836562  0.26231912  1  -1.232252  0  -0.331581  -0.290904  0  3.538341  0
N  N183  1  0.52163445  0.28098166  0.23768034  1  -1.232406  0  -0.33153  -0.290869  0  3.53826  0
N  N184  1  0.28098246  0.52163520  0.73768016  1  -1.232323  0  -0.331545  -0.290896  0  3.538233  0
N  N185  1  0.47836625  0.71901934  0.76231887  1  -1.232416  0  -0.331573  -0.290893  0  3.538222  0
Cl  Cl186  1  0.13779422  0.04200414  0.34837954  1  -0.226496  0  -0.015512  -0.104897  0  1.490763  0
Cl  Cl187  1  0.95799627  0.86220574  0.15161987  1  -0.226555  0  -0.015552  -0.104938  0  1.490722  0
Cl  Cl188  1  0.86220299  0.95799236  0.65161986  1  -0.22657  0  -0.015563  -0.10497  0  1.490651  0
Cl  Cl189  1  0.04200181  0.13779188  0.84837961  1  -0.226598  0  -0.015513  -0.104903  0  1.490815  0
O  O190  1  0.64396879  0.11155765  0.29788420  1  -1.313993  0  -0.348298  -0.601229  0  2.344433  0
O  O191  1  0.88844388  0.35603142  0.20211522  1  -1.31395  0  -0.348302  -0.601237  0  2.344485  0
O  O192  1  0.35603104  0.88844305  0.70211547  1  -1.313958  0  -0.348295  -0.601213  0  2.344465  0
O  O193  1  0.11155770  0.64396827  0.79788551  1  -1.313975  0  -0.348289  -0.601249  0  2.3445  0
O  O194  1  0.79924098  0.26338089  0.50570714  1  -1.253118  0  -0.570928  -0.751704  0  2.071232  0
O  O195  1  0.73661942  0.20075936  0.99429273  1  -1.253117  0  -0.570947  -0.751732  0  2.071252  0
O  O196  1  0.20075885  0.73661899  0.49429302  1  -1.253123  0  -0.570953  -0.751765  0  2.071214  0
O  O197  1  0.26338040  0.79924052  0.00570640  1  -1.253119  0  -0.570923  -0.751741  0  2.071229  0
O  O198  1  0.68140033  0.93756736  0.32962660  1  -1.332554  0  -0.335741  -0.584467  0  2.2069  0
O  O199  1  0.06243343  0.31859729  0.17037175  1  -1.332579  0  -0.335726  -0.584434  0  2.206871  0
O  O200  1  0.31859775  0.06243190  0.67037295  1  -1.33257  0  -0.335749  -0.584442  0  2.206915  0
O  O201  1  0.93756551  0.68139983  0.82962621  1  -1.332543  0  -0.335747  -0.584453  0  2.206938  0
O  O202  1  0.67737997  0.08333912  0.41955836  1  -1.334449  0  -0.359803  -0.627447  0  2.17448  0
O  O203  1  0.91666165  0.32261841  0.08044095  1  -1.334468  0  -0.359793  -0.62746  0  2.174401  0
O  O204  1  0.32261899  0.91666045  0.58044123  1  -1.334461  0  -0.359788  -0.627433  0  2.174424  0
O  O205  1  0.08333644  0.67738167  0.91955914  1  -1.334325  0  -0.359793  -0.627476  0  2.174361  0
O  O206  1  0.21875162  0.49655799  0.38919201  1  -1.348427  0  -0.343551  -0.609316  0  2.231591  0
O  O207  1  0.50344303  0.78124900  0.11080750  1  -1.348253  0  -0.343578  -0.609341  0  2.23165  0
O  O208  1  0.78124821  0.50344107  0.61080811  1  -1.348235  0  -0.343539  -0.609313  0  2.231603  0
O  O209  1  0.49655680  0.21875169  0.88919166  1  -1.348246  0  -0.343555  -0.609324  0  2.231591  0
O  O210  1  0.06138320  0.52269263  0.31469598  1  -1.308362  0  -0.331782  -0.550723  0  2.161145  0
O  O211  1  0.47730544  0.93861664  0.18530237  1  -1.30829  0  -0.331805  -0.550717  0  2.161034  0
O  O212  1  0.93861662  0.47730399  0.68530404  1  -1.308386  0  -0.331819  -0.550778  0  2.161044  0
O  O213  1  0.52269264  0.06138181  0.81469663  1  -1.30833  0  -0.331802  -0.550739  0  2.161087  0
O  O214  1  0.04290415  0.49773627  0.43760432  1  -1.30515  0  -0.371068  -0.650183  0  2.423472  0
O  O215  1  0.50226649  0.95709492  0.06239419  1  -1.305163  0  -0.37101  -0.650094  0  2.423572  0
O  O216  1  0.95709568  0.50226280  0.56239580  1  -1.305169  0  -0.371034  -0.650156  0  2.423574  0
O  O217  1  0.49773421  0.04290446  0.93760496  1  -1.305128  0  -0.371065  -0.65014  0  2.423524  0
O  O218  1  0.83459714  0.32215150  0.35428309  1  -1.147527  0  -0.369475  -0.592063  0  2.414958  0
O  O219  1  0.67784892  0.16540354  0.14571631  1  -1.147556  0  -0.369471  -0.592054  0  2.41499  0
O  O220  1  0.16540356  0.67784787  0.64571708  1  -1.147566  0  -0.369482  -0.592036  0  2.414983  0
O  O221  1  0.32215091  0.83459634  0.85428333  1  -1.147559  0  -0.369487  -0.592078  0  2.415068  0
