# generated using pymatgen
data_Cu3H18C12(N10O3)2
_symmetry_space_group_name_H-M   'P 1'
_cell_length_a   7.05829906
_cell_length_b   9.09382913
_cell_length_c   10.37413436
_cell_angle_alpha   95.69042982
_cell_angle_beta   110.77397793
_cell_angle_gamma   105.10008973
_symmetry_Int_Tables_number   1
_chemical_formula_structural   Cu3H18C12(N10O3)2
_chemical_formula_sum   'Cu3 H18 C12 N20 O6'
_cell_volume   587.40749998
_cell_formula_units_Z   1
loop_
 _symmetry_equiv_pos_site_id
 _symmetry_equiv_pos_as_xyz
  1  'x, y, z'
loop_
 _atom_site_type_symbol
 _atom_site_label
 _atom_site_symmetry_multiplicity
 _atom_site_fract_x
 _atom_site_fract_y
 _atom_site_fract_z
 _atom_site_occupancy
 _atom_site_hle17_ddec_charge
 _atom_site_hle17_ddec_spin_density
 _atom_site_hle17_ddec_sum_bond_order
 _atom_site_hle17_magmom
 _atom_site_hse06_10hf_ddec_charge
 _atom_site_hse06_10hf_ddec_spin_density
 _atom_site_hse06_10hf_ddec_sum_bond_order
 _atom_site_hse06_10hf_magmom
 _atom_site_hse06_ddec_charge
 _atom_site_hse06_ddec_spin_density
 _atom_site_hse06_ddec_sum_bond_order
 _atom_site_hse06_magmom
 _atom_site_pbe_cm5_charge
 _atom_site_pbe_ddec_charge
 _atom_site_pbe_ddec_spin_density
 _atom_site_pbe_ddec_sum_bond_order
 _atom_site_pbe_magmom
Cu  Cu0  1  0.99987466  0.00003124  0.99999450  1  0.880576  0.678803  1.764124  0.467  0.842888  0.776892  2.165011  0.585  0.921598  0.859275  2.099636  0.662  0.771609  0.797631  0.687216  2.207504  0.512
Cu  Cu1  1  0.87469302  0.26004209  0.47611827  1  0.892679  -0.67798  1.730274  -0.493  0.867759  -0.770606  2.123265  -0.605  0.951932  -0.839041  2.052901  -0.681  0.745406  0.81025  -0.707349  2.175299  -0.545
Cu  Cu2  1  0.12553023  0.73990400  0.52386876  1  0.892951  -0.677838  1.729497  -0.493  0.867843  -0.770498  2.122854  -0.605  0.952186  -0.838927  2.052284  -0.681  0.745311  0.810167  -0.707225  2.175069  -0.545
H  H3  1  0.68227681  0.09194173  0.97990814  1  0.330212  -0.000409  0.937799  -0.001  0.313409  0.000447  1.00576  0.0  0.321761  0.000268  0.99988  0.0  0.279043  0.307324  0.000768  1.010436  0.0
H  H4  1  0.31723702  0.90797592  0.01993933  1  0.330774  -0.000419  0.937258  -0.001  0.313817  0.000441  1.005392  0.0  0.322175  0.000262  0.999526  0.0  0.279129  0.307732  0.000762  1.010084  0.0
H  H5  1  0.60942632  0.90047874  0.97565636  1  0.331742  -0.000168  0.911585  -0.001  0.318799  0.000658  0.973059  0.0  0.326145  0.000447  0.96843  0.0  0.28624  0.313952  0.000818  0.976396  0.001
H  H6  1  0.39024726  0.09950568  0.02422112  1  0.331669  -0.000173  0.911724  -0.001  0.318756  0.000655  0.973118  0.0  0.32609  0.000444  0.968515  0.0  0.286208  0.313913  0.000815  0.976444  0.001
H  H7  1  0.62590649  0.96275593  0.83611504  1  0.339471  -0.000891  0.88024  -0.002  0.331024  0.000139  0.934911  0.0  0.33751  -1.7e-05  0.931133  -0.001  0.294221  0.326831  0.000284  0.93753  0.0
H  H8  1  0.37388232  0.03717061  0.16385981  1  0.339737  -0.000891  0.879851  -0.002  0.331365  0.000139  0.934428  0.0  0.337856  -1.7e-05  0.930642  -0.001  0.294329  0.327172  0.000284  0.937054  0.0
H  H9  1  0.59928343  0.32102767  0.55987544  1  0.342294  0.00055  0.912613  0.001  0.328843  -0.000301  0.973288  0.0  0.337016  -9.4e-05  0.96777  0.001  0.285631  0.322995  -0.000392  0.977511  0.0
H  H10  1  0.40091086  0.67911709  0.43998922  1  0.341831  0.000547  0.912269  0.001  0.32856  -0.000301  0.972693  0.0  0.336735  -9.3e-05  0.967161  0.001  0.285576  0.322722  -0.000391  0.976897  0.0
H  H11  1  0.48524449  0.15381214  0.43839375  1  0.341709  0.000662  0.89433  0.001  0.335908  -0.000189  0.946053  0.0  0.342783  2e-05  0.941775  0.0  0.292789  0.330789  -0.000321  0.94983  0.0
H  H12  1  0.51495428  0.84620794  0.56162536  1  0.341734  0.000661  0.894082  0.001  0.335915  -0.00019  0.945854  0.0  0.342797  2e-05  0.941557  0.0  0.292706  0.33079  -0.000321  0.949646  0.0
H  H13  1  0.52550590  0.32538757  0.39290694  1  0.345872  9e-06  0.898928  0.0  0.333029  -0.000856  0.959  -0.001  0.341051  -0.000614  0.953911  0.0  0.287618  0.327037  -0.000978  0.963178  -0.001
H  H14  1  0.47465900  0.67454305  0.60693282  1  0.345745  7e-06  0.899163  0.0  0.332829  -0.000858  0.95935  -0.001  0.340856  -0.000616  0.95425  0.0  0.287545  0.326834  -0.00098  0.963532  -0.001
H  H15  1  0.19076405  0.34151486  0.40702619  1  0.346136  0.000264  0.885393  0.001  0.333293  -0.000635  0.946656  0.0  0.340845  -0.00043  0.942224  0.0  0.291384  0.327676  -0.000761  0.950502  -0.001
H  H16  1  0.80959877  0.65848475  0.59318985  1  0.345918  0.000265  0.886333  0.001  0.333132  -0.000637  0.947492  0.0  0.340685  -0.000432  0.943065  0.0  0.291201  0.327542  -0.000763  0.95129  -0.001
H  H17  1  0.28052903  0.30955241  0.56690156  1  0.34198  0.000576  0.888761  0.001  0.331166  -0.000293  0.945989  0.0  0.338837  -8.3e-05  0.940924  0.0  0.291149  0.325582  -0.000419  0.949987  0.0
H  H18  1  0.71969221  0.69029046  0.43326135  1  0.34178  0.000579  0.888844  0.001  0.331038  -0.000294  0.945962  0.0  0.338709  -8.4e-05  0.940909  0.0  0.291115  0.325465  -0.000419  0.949927  0.0
H  H19  1  0.14978066  0.15952647  0.42718182  1  0.346802  0.000509  0.912933  0.001  0.336548  -0.000269  0.970793  0.0  0.343869  -4.8e-05  0.966006  0.0  0.287796  0.331294  -0.000386  0.974367  0.0
H  H20  1  0.85043853  0.84040252  0.57290332  1  0.346655  0.000511  0.912385  0.001  0.33643  -0.00027  0.970269  0.0  0.343747  -4.9e-05  0.965497  0.0  0.287661  0.33118  -0.000387  0.973835  0.0
C  C21  1  0.90285341  0.57686564  0.23329710  1  0.623011  0.00257  3.831687  0.004  0.569394  0.000426  4.117247  0.002  0.603689  0.000951  4.120755  0.003  0.356655  0.546759  -2.4e-05  4.113491  0.002
C  C22  1  0.09712053  0.42314158  0.76670868  1  0.622849  0.002558  3.831902  0.004  0.569052  0.000426  4.117783  0.002  0.603353  0.000949  4.121289  0.003  0.356583  0.546412  -2.6e-05  4.114034  0.002
C  C23  1  0.85721943  0.68547481  0.02419085  1  0.60136  -0.001651  3.851801  -0.003  0.546674  -0.000121  4.138339  -0.002  0.578902  -0.000581  4.143985  -0.002  0.346761  0.525046  0.000321  4.134176  -0.001
C  C24  1  0.14255270  0.31461010  0.97580402  1  0.600526  -0.001643  3.851846  -0.003  0.545994  -0.000113  4.13815  -0.002  0.578196  -0.000574  4.143815  -0.002  0.346358  0.524396  0.000327  4.133976  -0.001
C  C25  1  0.70341792  0.40757644  0.99975709  1  0.599397  -0.000703  3.842245  -0.001  0.542135  -0.000662  4.139199  -0.001  0.570946  -0.000459  4.145338  -0.001  0.341406  0.5224  -0.000558  4.135055  -0.001
C  C26  1  0.29647241  0.59248095  0.00025518  1  0.599837  -0.000732  3.842277  -0.001  0.542257  -0.00066  4.139616  -0.001  0.571068  -0.00046  4.145746  -0.001  0.341574  0.522506  -0.000557  4.135484  -0.001
C  C27  1  0.05785493  0.84713956  0.25298705  1  0.745644  0.000242  3.885484  0.0  0.694084  9e-05  4.177471  0.0  0.733409  7.5e-05  4.171603  0.0  0.324014  0.667528  0.000115  4.180728  0.0
C  C28  1  0.94204567  0.15287385  0.74702992  1  0.745472  0.000228  3.884434  0.0  0.694136  8.5e-05  4.176169  0.0  0.73345  7.3e-05  4.170303  0.0  0.324158  0.667612  0.000111  4.179419  0.0
C  C29  1  0.66609634  0.52005586  0.80444545  1  0.714481  -0.000381  3.900373  -0.001  0.660616  -0.000231  4.213133  0.0  0.693913  -0.000179  4.20969  0.0  0.302819  0.638575  -0.000273  4.21434  0.0
C  C30  1  0.33379163  0.47995307  0.19553364  1  0.71417  -0.000372  3.901184  -0.001  0.660567  -0.000233  4.213587  0.0  0.69386  -0.000177  4.210129  0.0  0.302779  0.638526  -0.000273  4.214805  0.0
C  C31  1  0.76266420  0.31152315  0.20504297  1  0.71377  0.004613  3.881029  0.008  0.663679  0.001121  4.17655  0.004  0.700092  0.001495  4.175813  0.004  0.317342  0.640038  0.000728  4.175293  0.004
C  C32  1  0.23745161  0.68844588  0.79497308  1  0.713802  0.004596  3.881223  0.008  0.663578  0.001122  4.176851  0.004  0.699978  0.001493  4.176139  0.004  0.317372  0.63993  0.000728  4.175584  0.004
N  N33  1  0.82358403  0.55735683  0.08682908  1  -0.375223  0.0007  3.388892  0.001  -0.283641  0.000366  3.605749  0.0  -0.309643  0.000354  3.618781  0.0  -0.213672  -0.266137  0.000221  3.596444  0.0
N  N34  1  0.17632780  0.44271128  0.91319459  1  -0.374978  0.000685  3.388729  0.001  -0.28329  0.000362  3.60564  0.0  -0.309287  0.000349  3.618687  0.0  -0.213677  -0.265788  0.000216  3.596325  0.0
N  N35  1  0.01392077  0.72004303  0.31279681  1  -0.607986  -0.070176  3.170974  -0.09  -0.563473  -0.054802  3.477228  -0.073  -0.606256  -0.046369  3.483093  -0.066  -0.378165  -0.534594  -0.057368  3.472908  -0.074
N  N36  1  0.98604550  0.27998000  0.68719207  1  -0.607881  -0.07015  3.170664  -0.09  -0.563414  -0.054793  3.476942  -0.073  -0.606145  -0.046361  3.4828  -0.066  -0.378187  -0.534584  -0.05736  3.472624  -0.074
N  N37  1  0.96856176  0.82726030  0.10835682  1  -0.597231  0.068671  3.14183  0.084  -0.545953  0.055544  3.438051  0.072  -0.587437  0.048635  3.444364  0.065  -0.374656  -0.517667  0.055345  3.432802  0.069
N  N38  1  0.03119715  0.17279462  0.89168780  1  -0.596931  0.068638  3.14161  0.084  -0.545841  0.055528  3.437912  0.072  -0.587336  0.048622  3.444286  0.065  -0.374521  -0.517612  0.05532  3.432687  0.069
N  N39  1  0.78337127  0.66809819  0.88599276  1  -0.605949  0.000235  2.935041  0.001  -0.581255  4.6e-05  3.232136  0.001  -0.60605  -0.000294  3.234448  0.001  -0.359606  -0.565295  0.000259  3.231495  0.001
N  N40  1  0.21644862  0.33198915  0.11400809  1  -0.605497  0.000232  2.93629  0.001  -0.580865  4e-05  3.233227  0.001  -0.605648  -0.000293  3.235549  0.001  -0.359366  -0.564911  0.000256  3.232563  0.001
N  N41  1  0.62536951  0.39023119  0.86096481  1  -0.599388  -0.001658  2.890775  -0.002  -0.577136  -0.000995  3.17898  -0.001  -0.599176  -0.000603  3.181098  -0.001  -0.370502  -0.56235  -0.001458  3.177414  -0.002
N  N42  1  0.37446022  0.60981102  0.13904151  1  -0.599555  -0.00164  2.890532  -0.002  -0.577223  -0.000998  3.178715  -0.001  -0.59926  -0.0006  3.180826  -0.001  -0.370583  -0.562451  -0.001459  3.177162  -0.002
N  N43  1  0.67324798  0.28647981  0.06159453  1  -0.602308  -0.0002  3.009492  0.0  -0.547683  -0.001177  3.269101  -0.001  -0.572832  -0.000995  3.272887  -0.001  -0.34339  -0.531646  -0.002106  3.26743  -0.003
N  N44  1  0.32668685  0.71354138  0.93841135  1  -0.60269  -0.000171  3.010525  0.0  -0.54785  -0.001175  3.270282  -0.001  -0.573006  -0.000993  3.274076  -0.001  -0.343535  -0.531739  -0.002102  3.26853  -0.003
N  N45  1  0.87184056  0.45554487  0.29250587  1  -0.634954  -0.001642  3.004916  -0.005  -0.613047  -0.001387  3.314563  -0.004  -0.643258  -0.000318  3.31826  -0.002  -0.359011  -0.592269  -0.002565  3.310921  -0.005
N  N46  1  0.12828594  0.54447675  0.70752430  1  -0.634939  -0.00163  3.00564  -0.005  -0.612889  -0.001382  3.315372  -0.004  -0.643102  -0.000321  3.319066  -0.002  -0.359055  -0.592109  -0.002562  3.311742  -0.005
N  N47  1  0.69736587  0.98684339  0.94381723  1  -0.842464  0.09293  2.992449  0.109  -0.843343  0.063737  3.252851  0.077  -0.875985  0.054647  3.237962  0.069  -0.799967  -0.821526  0.064791  3.263516  0.077
N  N48  1  0.30242100  0.01314526  0.05613687  1  -0.843025  0.093027  2.991582  0.109  -0.843939  0.063766  3.251995  0.077  -0.876616  0.054661  3.237051  0.069  -0.799908  -0.822068  0.064823  3.262594  0.077
N  N49  1  0.59122320  0.26438271  0.46596383  1  -0.857969  -0.087236  2.958141  -0.106  -0.854998  -0.05918  3.205761  -0.073  -0.888221  -0.049407  3.190017  -0.065  -0.799978  -0.833679  -0.062848  3.218807  -0.075
N  N50  1  0.40895771  0.73563212  0.53394479  1  -0.85762  -0.087203  2.95788  -0.106  -0.854643  -0.059151  3.205618  -0.073  -0.887894  -0.049385  3.189854  -0.065  -0.799806  -0.833293  -0.062816  3.218668  -0.075
N  N51  1  0.15479367  0.26819749  0.47043079  1  -0.855924  -0.083488  2.955191  -0.102  -0.850176  -0.057461  3.199114  -0.071  -0.88347  -0.047928  3.184422  -0.063  -0.793922  -0.828634  -0.061159  3.211356  -0.073
N  N52  1  0.84548464  0.73173056  0.52970889  1  -0.855421  -0.083478  2.955172  -0.102  -0.849813  -0.057454  3.199216  -0.071  -0.88315  -0.047918  3.184563  -0.063  -0.793545  -0.828233  -0.061152  3.211379  -0.073
O  O53  1  0.17715200  0.97735212  0.32994454  1  -0.624294  6.4e-05  1.903767  0.0  -0.58451  7.9e-05  2.127912  0.0  -0.606862  6.5e-05  2.114261  0.0  -0.311805  -0.568714  3.1e-05  2.136941  0.0
O  O54  1  0.82285841  0.02265368  0.67005284  1  -0.62397  6.7e-05  1.903653  0.0  -0.584273  7.7e-05  2.127695  0.0  -0.606605  6.8e-05  2.114031  0.0  -0.311744  -0.568491  3e-05  2.136724  0.0
O  O55  1  0.59352290  0.50363271  0.67182724  1  -0.622694  -0.001946  1.933624  -0.003  -0.557359  -0.001156  2.14237  -0.002  -0.581065  -0.00058  2.135029  -0.001  -0.301805  -0.540234  -0.001811  2.146724  -0.003
O  O56  1  0.40660710  0.49635182  0.32816131  1  -0.622595  -0.001956  1.933381  -0.003  -0.557674  -0.001155  2.142332  -0.002  -0.58138  -0.000581  2.134985  -0.001  -0.30193  -0.540546  -0.001813  2.146678  -0.003
O  O57  1  0.74226762  0.19295251  0.26184245  1  -0.570474  -0.083589  1.956845  -0.113  -0.525095  -0.060854  2.204794  -0.089  -0.563143  -0.048628  2.195554  -0.075  -0.309599  -0.500016  -0.066594  2.210879  -0.093
O  O58  1  0.25800718  0.80699987  0.73816521  1  -0.570626  -0.083589  1.956572  -0.113  -0.525132  -0.06085  2.20457  -0.089  -0.563213  -0.048621  2.195309  -0.075  -0.309554  -0.500016  -0.066589  2.210674  -0.093
