# generated using pymatgen
data_Zn4H43C65N17
_symmetry_space_group_name_H-M   'P 1'
_cell_length_a   13.41301264
_cell_length_b   11.71468931
_cell_length_c   15.30455145
_cell_angle_alpha   108.09978256
_cell_angle_beta   115.83547931
_cell_angle_gamma   91.68548374
_symmetry_Int_Tables_number   1
_chemical_formula_structural   Zn4H43C65N17
_chemical_formula_sum   'Zn4 H43 C65 N17'
_cell_volume   2018.79668923
_cell_formula_units_Z   1
loop_
 _symmetry_equiv_pos_site_id
 _symmetry_equiv_pos_as_xyz
  1  'x, y, z'
loop_
 _atom_site_type_symbol
 _atom_site_label
 _atom_site_symmetry_multiplicity
 _atom_site_fract_x
 _atom_site_fract_y
 _atom_site_fract_z
 _atom_site_occupancy
 _atom_site_pbe_bader_charge
 _atom_site_pbe_bader_spin_density
 _atom_site_pbe_cm5_charge
 _atom_site_pbe_ddec_charge
 _atom_site_pbe_ddec_spin_density
 _atom_site_pbe_ddec_sum_bond_order
 _atom_site_pbe_magmom
Zn  Zn0  1  0.13146915  0.68534264  0.01058739  1  1.201916  0  0.75136  0.64012  0  2.365854  0
Zn  Zn1  1  0.90715263  0.33757977  0.97574639  1  1.174227  0  0.736797  0.589645  0  2.475415  0
Zn  Zn2  1  0.85490119  0.55878141  0.87504120  1  1.186667  0  0.746432  0.622697  0  2.430357  0
Zn  Zn3  1  0.17972939  0.46821511  0.11976270  1  1.144805  0  0.750188  0.642759  0  2.315109  0
H  H4  1  0.10713913  0.96960055  0.08375868  1  0.092063  0  0.115046  0.104279  0  1.017371  0
H  H5  1  0.54891948  0.80956398  0.36432539  1  0.057575  0  0.09849  0.0983  0  1.008505  0
H  H6  1  0.83647125  0.24959602  0.16727405  1  0.081122  0  0.124685  0.09591  0  0.937827  0
H  H7  1  0.43086699  0.11872429  0.28408446  1  0.045438  0  0.093375  0.091058  0  1.046321  0
H  H8  1  0.51008655  0.07912995  0.16098953  1  0.034651  0  0.097023  0.093707  0  0.999188  0
H  H9  1  0.59058955  0.15387243  0.50849618  1  0.062766  0  0.09795  0.101239  0  1.008166  0
H  H10  1  0.29212434  0.90452285  0.51392501  1  0.049099  0  0.098683  0.104072  0  1.008621  0
H  H11  1  0.40564027  0.89748357  0.69181382  1  0.037761  0  0.089133  0.086172  0  1.019597  0
H  H12  1  0.35643264  0.93637900  0.83611438  1  0.057404  0  0.094675  0.091184  0  1.004266  0
H  H13  1  0.33024901  0.14323711  0.92069628  1  0.04526  0  0.091767  0.09203  0  1.030071  0
H  H14  1  0.36358896  0.31512240  0.86515626  1  0.095037  0  0.095487  0.097441  0  1.033071  0
H  H15  1  0.70098941  0.11986321  0.79017320  1  0.07754  0  0.118396  0.108486  0  0.994128  0
H  H16  1  0.41408004  0.27689678  0.72398036  1  0.092468  0  0.09633  0.101252  0  1.032417  0
H  H17  1  0.46482132  0.30141037  0.41140784  1  0.03734  0  0.095831  0.086015  0  1.037865  0
H  H18  1  0.77438805  0.74099240  0.02024859  1  0.100306  0  0.107593  0.09551  0  1.048247  0
H  H19  1  0.29639620  0.13380584  0.32585462  1  0.052675  0  0.098201  0.090808  0  1.031459  0
H  H20  1  0.13694434  0.16626430  0.36570054  1  0.081668  0  0.104465  0.105566  0  0.997398  0
H  H21  1  0.31324621  0.53157204  0.57879943  1  0.076282  0  0.102993  0.105387  0  0.996772  0
H  H22  1  0.47303935  0.49921137  0.53828215  1  0.059806  0  0.096188  0.089147  0  1.025101  0
H  H23  1  0.83796817  0.38871493  0.34123375  1  0.077519  0  0.105602  0.107858  0  1.003489  0
H  H24  1  0.68782476  0.35070959  0.38214798  1  0.067584  0  0.097824  0.097787  0  1.010447  0
H  H25  1  0.53699182  0.46798891  0.38277299  1  0.068663  0  0.096508  0.090247  0  1.013449  0
H  H26  1  0.27636281  0.20731109  0.10905650  1  0.047072  0  0.09072  0.072314  0  1.019435  0
H  H27  1  0.58475605  0.67712870  0.51526339  1  0.057068  0  0.098214  0.092456  0  1.006145  0
H  H28  1  0.78640475  0.76886597  0.64657684  1  0.071491  0  0.105697  0.106011  0  0.985489  0
H  H29  1  0.31693187  0.65085502  0.36611302  1  0.089762  0  0.114183  0.102868  0  1.010382  0
H  H30  1  0.93644130  0.65453559  0.64318661  1  0.097756  0  0.106302  0.11058  0  0.995371  0
H  H31  1  0.56007409  0.43608315  0.05435843  1  0.041533  0  0.095252  0.094628  0  1.004819  0
H  H32  1  0.60175947  0.70071510  0.06478662  1  0.044989  0  0.095415  0.093696  0  1.020819  0
H  H33  1  0.79678301  0.05211139  0.02386464  1  0.057387  0  0.098988  0.095767  0  0.993794  0
H  H34  1  0.04913863  0.14025784  0.18480670  1  0.075006  0  0.102331  0.110006  0  1.01356  0
H  H35  1  0.75669494  0.40757701  0.08277173  1  0.07482  0  0.111099  0.093872  0  1.017538  0
H  H36  1  0.20011013  0.90753639  0.21009792  1  0.071213  0  0.113728  0.100068  0  1.031433  0
H  H37  1  0.94560998  0.09591772  0.84145372  1  0.068624  0  0.09745  0.081277  0  1.002556  0
H  H38  1  0.13957394  0.50310031  0.34707864  1  0.127146  0  0.1212  0.11626  0  0.996786  0
H  H39  1  0.75245633  0.81102225  0.88592820  1  0.048751  0  0.118132  0.104556  0  0.992657  0
H  H40  1  0.40830831  0.73171628  0.03590215  1  0.098197  0  0.116268  0.104006  0  1.010828  0
H  H41  1  0.84285285  0.38490132  0.65934269  1  0.121175  0  0.120664  0.110904  0  0.999349  0
H  H42  1  0.18871035  0.58413408  0.82218680  1  0.119247  0  0.120959  0.11301  0  1.015255  0
H  H43  1  0.36418839  0.37820205  0.06270810  1  0.100991  0  0.115375  0.105307  0  1.013363  0
H  H44  1  0.59530099  0.40682931  0.66808874  1  0.082484  0  0.111744  0.103316  0  1.02435  0
H  H45  1  0.61677296  0.90993462  0.14463847  1  0.035488  0  0.096785  0.090137  0  1.010517  0
H  H46  1  0.63227310  0.77245210  0.24411322  1  0.078354  0  0.099606  0.096941  0  1.014471  0
C  C47  1  0.02508679  0.91007104  0.03238094  1  0.479596  0  0.024108  -0.012633  0  3.935714  0
C  C48  1  0.10325481  0.54158411  0.79730104  1  0.405955  0  0.019128  -0.026859  0  3.926857  0
C  C49  1  0.35922267  0.46858914  0.05763943  1  0.36478  0  0.001828  -0.061896  0  3.975785  0
C  C50  1  0.92655660  0.26173493  0.18716057  1  0.233518  0  0.016332  0.052684  0  3.911929  0
C  C51  1  0.63799785  0.35073539  0.71234368  1  0.408833  0  0.005547  -0.055085  0  3.975091  0
C  C52  1  0.43565903  0.54841203  0.05325841  1  0.006628  0  -0.038674  0.007813  0  4.131455  0
C  C53  1  0.60462801  0.22693711  0.69277529  1  0.019967  0  -0.035529  -0.030261  0  4.092119  0
C  C54  1  0.01748724  0.46909518  0.69699849  1  0.015624  0  -0.036503  -0.05458  0  4.075934  0
C  C55  1  0.12190961  0.09509296  0.95855479  1  -0.044587  0  -0.251499  -0.465196  0  3.555945  0
C  C56  1  0.58796047  0.84841370  0.25266550  1  -0.011776  0  -0.088457  -0.070352  0  4.024731  0
C  C57  1  0.54027482  0.86856008  0.31954498  1  -0.052186  0  -0.089151  -0.123968  0  3.959109  0
C  C58  1  0.00635291  0.34586018  0.29706681  1  -0.029305  0  0.013721  0.029649  0  3.855443  0
C  C59  1  0.48487284  0.96730799  0.33361562  1  0.005963  0  -0.005755  0.07996  0  4.00129  0
C  C60  1  0.47439678  0.04215932  0.27527575  1  -0.081342  0  -0.103408  -0.154996  0  3.996289  0
C  C61  1  0.52001143  0.02064123  0.20643044  1  -0.035349  0  -0.099454  -0.084992  0  4.056948  0
C  C62  1  0.78473113  0.65430124  0.03140605  1  0.334064  0  -0.005567  -0.068814  0  3.970946  0
C  C63  1  0.57872651  0.92503618  0.19645595  1  -0.077996  0  -0.102856  -0.109886  0  4.05597  0
C  C64  1  0.52248687  0.10051283  0.50845986  1  -0.044943  0  -0.089204  -0.171885  0  3.992443  0
C  C65  1  0.51401575  0.13117232  0.60064261  1  0.016887  0  -0.004764  0.050733  0  3.989116  0
C  C66  1  0.43083375  0.05832078  0.60412939  1  0.016089  0  -0.006316  0.029904  0  3.972129  0
C  C67  1  0.35982382  0.95828267  0.51370852  1  -0.066016  0  -0.093642  -0.182681  0  3.976156  0
C  C68  1  0.36951658  0.92680830  0.42201674  1  0.008304  0  -0.011946  0.038617  0  4.029772  0
C  C69  1  0.72324696  0.58632787  0.05890854  1  0.007389  0  -0.040718  0.019726  0  4.135647  0
C  C70  1  0.45392717  0.99903039  0.41958323  1  -0.038255  0  -0.011994  0.010943  0  3.994188  0
C  C71  1  0.39711032  0.98936518  0.73055447  1  -0.080724  0  -0.106362  -0.153299  0  4.020812  0
C  C72  1  0.37002580  0.01126649  0.81193697  1  -0.043143  0  -0.104302  -0.093587  0  4.065504  0
C  C73  1  0.35737246  0.12824639  0.86097681  1  -0.05878  0  -0.100674  -0.092745  0  4.02088  0
C  C74  1  0.27610054  0.69760735  0.31232333  1  0.362022  0  0.003313  -0.06206  0  3.973947  0
C  C75  1  0.37502214  0.22363531  0.82953703  1  -0.018547  0  -0.096723  -0.078049  0  4.007203  0
C  C76  1  0.40353733  0.20206679  0.74911021  1  -0.038436  0  -0.094225  -0.126904  0  3.963167  0
C  C77  1  0.41310089  0.08425722  0.69707483  1  -0.067997  0  -0.014822  0.064462  0  4.014846  0
C  C78  1  0.30000252  0.22158047  0.38044017  1  -0.030759  0  -0.091734  -0.075287  0  4.028614  0
C  C79  1  0.21062089  0.23936548  0.40310479  1  -0.10832  0  -0.086597  -0.124621  0  3.969092  0
C  C80  1  0.29108801  0.82280113  0.32876413  1  0.048366  0  -0.033166  -0.024137  0  4.088929  0
C  C81  1  0.21355799  0.35152313  0.47366749  1  0.031138  0  -0.010678  0.063363  0  4.025165  0
C  C82  1  0.30962373  0.44421510  0.52351290  1  -0.048822  0  -0.089999  -0.131152  0  3.980448  0
C  C83  1  0.39915104  0.42622632  0.50041460  1  -0.085361  0  -0.097072  -0.089338  0  4.038886  0
C  C84  1  0.39421806  0.31529115  0.42840685  1  -0.01845  0  -0.094281  -0.092834  0  4.02898  0
C  C85  1  0.11290655  0.41051254  0.58366064  1  0.092071  0  0.00813  -0.029396  0  4.024288  0
C  C86  1  0.77593582  0.48458835  0.06381616  1  0.432496  0  0.005582  -0.046314  0  3.936348  0
C  C87  1  0.01606542  0.43705032  0.59607152  1  0.055345  0  0.018099  0.039459  0  3.933865  0
C  C88  1  0.91677413  0.43294245  0.50616546  1  -0.028191  0  -0.000954  0.027875  0  3.950062  0
C  C89  1  0.91344556  0.38743195  0.40872041  1  -0.043658  0  -0.07725  -0.15229  0  3.943893  0
C  C90  1  0.00848868  0.35821323  0.39639603  1  0.041744  0  -0.007277  0.024918  0  4.014169  0
C  C91  1  0.38150495  0.64884219  0.04375458  1  0.418164  0  0.015927  -0.031013  0  3.943742  0
C  C92  1  0.11119257  0.37294115  0.48575398  1  -0.014384  0  0.010617  0.006803  0  3.937475  0
C  C93  1  0.70968095  0.44265616  0.43999301  1  -0.10625  0  -0.096157  -0.143187  0  3.987927  0
C  C94  1  0.62455491  0.50836602  0.44080253  1  -0.049699  0  -0.099191  -0.087169  0  4.050988  0
C  C95  1  0.65115182  0.62555035  0.51500608  1  -0.084997  0  -0.097559  -0.099696  0  4.044458  0
C  C96  1  0.76384390  0.67715987  0.58840716  1  -0.062136  0  -0.091473  -0.078833  0  4.027593  0
C  C97  1  0.84878934  0.61233983  0.58688114  1  -0.003203  0  -0.085858  -0.119709  0  3.957898  0
C  C98  1  0.21700982  0.82775967  0.23183595  1  0.374311  0  0.004211  -0.05392  0  3.979133  0
C  C99  1  0.82315351  0.49387284  0.51281191  1  -0.013791  0  -0.008405  0.067817  0  3.998325  0
C  C100  1  0.54326950  0.52792972  0.05834914  1  0.020709  0  -0.099438  -0.126616  0  4.07127  0
C  C101  1  0.62071029  0.61048837  0.06424729  1  -0.071032  0  -0.104771  -0.135548  0  4.069411  0
C  C102  1  0.69154370  0.20468368  0.77517190  1  0.425595  0  0.006892  -0.057395  0  4.000989  0
C  C103  1  0.88649804  0.04709623  0.06005651  1  -0.090028  0  -0.089911  -0.109854  0  4.06935  0
C  C104  1  0.95866696  0.13970962  0.14833066  1  -0.020554  0  -0.100787  -0.151072  0  3.900416  0
C  C105  1  0.07069713  0.42830483  0.28685024  1  0.333324  0  0.013787  -0.062421  0  3.93159  0
C  C106  1  0.84414107  0.83027326  0.92891132  1  0.45551  0  0.007328  -0.061774  0  4.002358  0
C  C107  1  0.91700007  0.93832249  0.00938733  1  0.007308  0  -0.037712  0.012497  0  4.090466  0
C  C108  1  0.21814801  0.42797800  0.67322827  1  0.844238  0  0.185271  0.243393  0  4.034416  0
C  C109  1  0.92641669  0.44004155  0.71414196  1  0.414575  0  0.01738  -0.028064  0  3.952812  0
C  C110  1  0.19075961  0.19626432  0.04792854  1  0.236466  0  -0.036434  -0.003016  0  4.143561  0
C  C111  1  0.02427681  0.14104124  0.91271454  1  0.250417  0  -0.027077  0.027769  0  4.079004  0
N  N112  1  0.01628227  0.79382818  0.97479990  1  -0.792018  0  -0.269697  -0.180973  0  3.536516  0
N  N113  1  0.86490244  0.59500514  0.01672840  1  -0.778506  0  -0.2944  -0.210008  0  3.561619  0
N  N114  1  0.20013106  0.63415928  0.21207447  1  -0.786705  0  -0.285603  -0.165458  0  3.638596  0
N  N115  1  0.85927631  0.49137619  0.03805653  1  -0.782814  0  -0.282842  -0.179262  0  3.648675  0
N  N116  1  0.16303521  0.71430367  0.16189018  1  -0.762394  0  -0.272839  -0.186387  0  3.526903  0
N  N117  1  0.03322875  0.41309152  0.18334325  1  -0.538572  0  -0.180558  -0.113397  0  3.394722  0
N  N118  1  0.90294043  0.74341250  0.90889080  1  -0.808068  0  -0.272366  -0.188121  0  3.49203  0
N  N119  1  0.28328265  0.63065119  0.04555212  1  -0.792813  0  -0.2718  -0.177686  0  3.559822  0
N  N120  1  0.30604830  0.44970405  0.74652120  1  -1.143621  0  -0.292177  -0.351412  0  2.765049  0
N  N121  1  0.77051511  0.30687006  0.83851533  1  -0.801054  0  -0.276583  -0.168384  0  3.593848  0
N  N122  1  0.95597786  0.49284028  0.81573912  1  -0.806006  0  -0.283564  -0.18947  0  3.621641  0
N  N123  1  0.13775041  0.29413360  0.05600527  1  -0.798266  0  -0.317899  -0.210942  0  3.658553  0
N  N124  1  0.03323067  0.26038504  0.97008375  1  -0.813695  0  -0.305969  -0.220516  0  3.598079  0
N  N125  1  0.06415544  0.55579832  0.86641569  1  -0.775863  0  -0.273639  -0.171389  0  3.602996  0
N  N126  1  0.26884251  0.51874551  0.05358947  1  -0.806121  0  -0.28852  -0.207748  0  3.581429  0
N  N127  1  0.73700577  0.39873096  0.80077444  1  -0.798821  0  -0.269612  -0.17933  0  3.527696  0
N  N128  1  0.94767143  0.32426524  0.12447298  1  -0.479237  0  -0.193942  -0.12917  0  3.306118  0
