# generated using pymatgen
data_MnH6C8(BrN2)2
_symmetry_space_group_name_H-M   'P 1'
_cell_length_a   7.84783957
_cell_length_b   9.52756248
_cell_length_c   9.59642721
_cell_angle_alpha   62.10199189
_cell_angle_beta   65.80421763
_cell_angle_gamma   65.62983476
_symmetry_Int_Tables_number   1
_chemical_formula_structural   MnH6C8(BrN2)2
_chemical_formula_sum   'Mn2 H12 C16 Br4 N8'
_cell_volume   556.30099622
_cell_formula_units_Z   2
loop_
 _symmetry_equiv_pos_site_id
 _symmetry_equiv_pos_as_xyz
  1  'x, y, z'
loop_
 _atom_site_type_symbol
 _atom_site_label
 _atom_site_symmetry_multiplicity
 _atom_site_fract_x
 _atom_site_fract_y
 _atom_site_fract_z
 _atom_site_occupancy
 _atom_site_hle17_ddec_charge
 _atom_site_hle17_ddec_spin_density
 _atom_site_hle17_ddec_sum_bond_order
 _atom_site_hle17_magmom
 _atom_site_hse06_10hf_ddec_charge
 _atom_site_hse06_10hf_ddec_spin_density
 _atom_site_hse06_10hf_ddec_sum_bond_order
 _atom_site_hse06_10hf_magmom
 _atom_site_hse06_ddec_charge
 _atom_site_hse06_ddec_spin_density
 _atom_site_hse06_ddec_sum_bond_order
 _atom_site_hse06_magmom
 _atom_site_pbe_cm5_charge
 _atom_site_pbe_ddec_charge
 _atom_site_pbe_ddec_spin_density
 _atom_site_pbe_ddec_sum_bond_order
 _atom_site_pbe_magmom
Mn  Mn0  1  0.76694398  0.74996482  0.24973585  1  0.830277  -4.737185  2.207938  -4.606  0.656009  -4.64856  2.740566  -4.446  0.71972  -4.717706  2.674641  -4.538  0.435571  0.609789  -4.563236  2.789897  -4.337
Mn  Mn1  1  0.23306693  0.25003437  0.75025664  1  0.830268  -4.737176  2.207924  -4.606  0.656055  -4.648569  2.74047  -4.446  0.719761  -4.717706  2.674554  -4.538  0.43555  0.609824  -4.563248  2.789809  -4.337
H  H2  1  0.88142703  0.39965963  0.21062300  1  0.080307  -0.000275  0.958948  0.0  0.083477  -0.000882  1.032316  0.0  0.086391  -0.000559  1.028696  0.0  0.109924  0.080937  -0.001238  1.035547  -0.001
H  H3  1  0.49109537  0.10023160  0.28974041  1  0.080465  -0.000267  0.959895  0.0  0.083981  -0.000881  1.0325  0.0  0.086916  -0.000554  1.0289  0.0  0.109998  0.081445  -0.001217  1.035655  -0.001
H  H4  1  0.11856732  0.60033586  0.78937592  1  0.080353  -0.000277  0.958933  0.0  0.083532  -0.000883  1.032299  0.0  0.086462  -0.000558  1.028637  0.0  0.109962  0.080992  -0.001238  1.03553  -0.001
H  H5  1  0.50890743  0.89976514  0.71026732  1  0.080421  -0.000269  0.959989  0.0  0.083972  -0.000881  1.032559  0.0  0.086906  -0.000554  1.028957  0.0  0.110015  0.081436  -0.001217  1.035715  -0.001
H  H6  1  0.07878292  0.10277872  0.33203589  1  0.126446  -0.000459  0.938626  0.0  0.133945  -0.000812  0.998082  -0.001  0.138125  -0.000569  0.996128  0.0  0.110851  0.130715  -0.001099  1.000297  -0.001
H  H7  1  0.51290040  0.39706630  0.16843204  1  0.125918  -0.000466  0.939129  0.0  0.133288  -0.000816  0.998761  -0.001  0.137483  -0.000574  0.996773  0.0  0.110484  0.12997  -0.001121  1.001184  -0.001
H  H8  1  0.92122168  0.89722170  0.66795786  1  0.126477  -0.000461  0.938649  0.0  0.133971  -0.000812  0.998085  -0.001  0.138133  -0.000569  0.996152  0.0  0.110864  0.13074  -0.001099  1.000298  -0.001
H  H9  1  0.48710029  0.60293413  0.83157389  1  0.125878  -0.000465  0.939234  0.0  0.133274  -0.000816  0.998837  -0.001  0.13747  -0.000574  0.996849  0.0  0.110475  0.129956  -0.001121  1.00126  -0.001
H  H10  1  0.20088769  0.03651062  0.56617156  1  0.077957  -0.000215  0.970169  0.0  0.083226  -0.000998  1.04186  0.0  0.086382  -0.000631  1.038732  0.0  0.107318  0.080482  -0.001379  1.044704  0.0
H  H11  1  0.80305175  0.46336601  0.93424503  1  0.078548  -0.000207  0.971783  0.0  0.082809  -0.000999  1.044106  0.0  0.085962  -0.000633  1.040965  0.0  0.107274  0.080183  -0.001388  1.046788  0.0
H  H12  1  0.79910995  0.96349228  0.43382603  1  0.077985  -0.000214  0.970204  0.0  0.08323  -0.000998  1.041897  0.0  0.086391  -0.000631  1.038763  0.0  0.107311  0.080486  -0.001379  1.044739  0.0
H  H13  1  0.19694775  0.53663072  0.06575627  1  0.078583  -0.000206  0.971671  0.0  0.082846  -0.000999  1.043992  0.0  0.085999  -0.000633  1.040853  0.0  0.107287  0.080221  -0.001388  1.046674  0.0
C  C14  1  0.94751378  0.36050520  0.30767351  1  0.206719  -0.003233  3.642732  -0.003  0.169339  -0.007359  3.899056  -0.005  0.183785  -0.005538  3.907479  -0.004  0.074909  0.158579  -0.009657  3.896029  -0.006
C  C15  1  0.61515827  0.13939243  0.19251615  1  0.205502  -0.003323  3.643039  -0.003  0.168339  -0.007427  3.89934  -0.005  0.182732  -0.005607  3.907754  -0.004  0.075225  0.157652  -0.009774  3.896293  -0.007
C  C16  1  0.05247860  0.63949276  0.69232707  1  0.206637  -0.003223  3.642854  -0.003  0.169216  -0.007356  3.899234  -0.005  0.183664  -0.005541  3.907667  -0.004  0.074879  0.158456  -0.009657  3.896211  -0.006
C  C17  1  0.38484819  0.86060923  0.80748462  1  0.205593  -0.003297  3.643109  -0.003  0.168391  -0.007428  3.899393  -0.005  0.18279  -0.00561  3.9078  -0.004  0.075251  0.157701  -0.009777  3.896355  -0.007
C  C18  1  0.05119357  0.19777477  0.37711956  1  -0.140089  0.000824  3.676335  0.001  -0.153983  -0.001431  3.932181  0.0  -0.161582  0.000561  3.94612  0.001  -0.072821  -0.151637  -0.005196  3.926466  -0.003
C  C19  1  0.62556278  0.30208635  0.12322667  1  -0.138112  0.000939  3.674825  0.001  -0.151982  -0.001354  3.930109  0.0  -0.159539  0.00064  3.944045  0.001  -0.072846  -0.149826  -0.005321  3.924705  -0.003
C  C20  1  0.94880076  0.80222689  0.62287658  1  -0.140091  0.000823  3.676359  0.001  -0.153946  -0.001434  3.932145  0.0  -0.16153  0.000564  3.946096  0.001  -0.072836  -0.151598  -0.005197  3.926431  -0.003
C  C21  1  0.37444592  0.69791408  0.87677549  1  -0.138075  0.000907  3.674639  0.001  -0.151941  -0.001353  3.929888  0.0  -0.159504  0.000643  3.943826  0.001  -0.072846  -0.149788  -0.005319  3.924491  -0.003
C  C22  1  0.12058898  0.16169318  0.50529947  1  0.180436  -0.004916  3.647081  -0.005  0.144267  -0.00936  3.904224  -0.007  0.155551  -0.006618  3.916806  -0.006  0.067534  0.136014  -0.013387  3.897809  -0.01
C  C23  1  0.78721398  0.33823520  0.99499742  1  0.179803  -0.005112  3.648256  -0.005  0.144731  -0.009595  3.90541  -0.008  0.156019  -0.006797  3.917934  -0.006  0.068255  0.136433  -0.013478  3.899098  -0.01
C  C24  1  0.87940536  0.83831096  0.49469777  1  0.180302  -0.004914  3.647172  -0.005  0.144189  -0.009358  3.904252  -0.007  0.155467  -0.006619  3.916831  -0.006  0.067524  0.13594  -0.013387  3.897839  -0.01
C  C25  1  0.21279366  0.66176646  0.00500080  1  0.179787  -0.005099  3.647899  -0.005  0.144712  -0.009598  3.905057  -0.008  0.155995  -0.0068  3.91759  -0.006  0.068251  0.136415  -0.013483  3.898747  -0.01
C  C26  1  0.00595666  0.43431903  0.47659576  1  0.317722  -0.003927  3.716391  -0.004  0.293304  -0.00987  3.965823  -0.008  0.307952  -0.006672  3.978412  -0.006  0.260813  0.281914  -0.01596  3.959647  -0.013
C  C27  1  0.91677484  0.06566567  0.02347507  1  0.317387  -0.004045  3.716637  -0.004  0.294737  -0.009961  3.963399  -0.009  0.309429  -0.006776  3.975782  -0.006  0.26118  0.283097  -0.016329  3.957734  -0.013
C  C28  1  0.99402939  0.56568139  0.52340110  1  0.3177  -0.003928  3.716356  -0.004  0.293461  -0.009869  3.965645  -0.008  0.308122  -0.006673  3.97823  -0.006  0.260793  0.282067  -0.015959  3.959475  -0.013
C  C29  1  0.08322466  0.93433847  0.97652954  1  0.317223  -0.00402  3.716587  -0.004  0.294481  -0.009963  3.963458  -0.009  0.309171  -0.006773  3.975842  -0.006  0.261069  0.282843  -0.016332  3.957794  -0.013
Br  Br30  1  0.44642520  0.77307293  0.46472107  1  -0.572354  -0.066973  0.937247  -0.038  -0.520702  -0.078222  1.231654  -0.038  -0.554117  -0.064418  1.210771  -0.029  -0.277954  -0.488115  -0.090764  1.244606  -0.047
Br  Br31  1  0.68307507  0.72579652  0.03639092  1  -0.572664  -0.066832  0.936523  -0.038  -0.520735  -0.078068  1.230619  -0.038  -0.554083  -0.064319  1.209625  -0.029  -0.278342  -0.488462  -0.090964  1.243698  -0.047
Br  Br32  1  0.55358866  0.22690403  0.53528353  1  -0.572356  -0.066972  0.937319  -0.038  -0.520702  -0.07823  1.231705  -0.038  -0.554131  -0.064418  1.210849  -0.029  -0.277956  -0.488121  -0.090782  1.244659  -0.047
Br  Br33  1  0.31692977  0.27421254  0.96359813  1  -0.57266  -0.066832  0.936561  -0.038  -0.520736  -0.07807  1.230632  -0.038  -0.554078  -0.064319  1.209635  -0.029  -0.278335  -0.488472  -0.090972  1.243726  -0.047
N  N34  1  0.92775840  0.47981162  0.35495002  1  -0.348195  -0.027333  3.177632  -0.016  -0.278655  -0.033514  3.442394  -0.018  -0.299726  -0.028348  3.452743  -0.014  -0.299935  -0.265087  -0.040413  3.437827  -0.024
N  N35  1  0.76214684  0.02019290  0.14496349  1  -0.347827  -0.027278  3.178134  -0.016  -0.279821  -0.033548  3.443589  -0.018  -0.300918  -0.028344  3.453954  -0.014  -0.300483  -0.266208  -0.040477  3.439134  -0.024
N  N36  1  0.07222937  0.52018881  0.64504930  1  -0.348172  -0.027334  3.177926  -0.016  -0.278724  -0.033515  3.442717  -0.018  -0.299805  -0.028346  3.453076  -0.014  -0.299955  -0.26514  -0.040414  3.438131  -0.024
N  N37  1  0.23786266  0.97980506  0.85503955  1  -0.347832  -0.027295  3.178118  -0.016  -0.279843  -0.033548  3.443699  -0.018  -0.300938  -0.028344  3.454058  -0.014  -0.300533  -0.266226  -0.040477  3.439245  -0.024
N  N38  1  0.09583464  0.27959366  0.55707648  1  -0.344314  -0.02484  3.186681  -0.017  -0.282512  -0.033116  3.453166  -0.023  -0.302963  -0.028245  3.466873  -0.019  -0.297911  -0.268648  -0.038809  3.445239  -0.028
N  N39  1  0.93240125  0.22036091  0.94324792  1  -0.34389  -0.024872  3.186309  -0.017  -0.283043  -0.033211  3.452606  -0.023  -0.303496  -0.028286  3.466179  -0.019  -0.298981  -0.269201  -0.038762  3.444979  -0.028
N  N40  1  0.90415405  0.72040925  0.44292441  1  -0.344197  -0.024847  3.186552  -0.017  -0.282444  -0.033119  3.452964  -0.023  -0.302903  -0.028249  3.466677  -0.019  -0.297867  -0.268584  -0.038812  3.44505  -0.028
N  N41  1  0.06759589  0.77964447  0.05675682  1  -0.343867  -0.024895  3.186151  -0.017  -0.283012  -0.033214  3.452511  -0.023  -0.303465  -0.02829  3.466084  -0.019  -0.298963  -0.269171  -0.038766  3.444887  -0.028
