# generated using pymatgen
data_Co2H8C9N4O7
_symmetry_space_group_name_H-M   'P 1'
_cell_length_a   6.45913589
_cell_length_b   10.40019355
_cell_length_c   12.14436288
_cell_angle_alpha   111.23995088
_cell_angle_beta   90.23563526
_cell_angle_gamma   88.81203137
_symmetry_Int_Tables_number   1
_chemical_formula_structural   Co2H8C9N4O7
_chemical_formula_sum   'Co4 H16 C18 N8 O14'
_cell_volume   760.22741425
_cell_formula_units_Z   2
loop_
 _symmetry_equiv_pos_site_id
 _symmetry_equiv_pos_as_xyz
  1  'x, y, z'
loop_
 _atom_site_type_symbol
 _atom_site_label
 _atom_site_symmetry_multiplicity
 _atom_site_fract_x
 _atom_site_fract_y
 _atom_site_fract_z
 _atom_site_occupancy
 _atom_site_pbe_bader_charge
 _atom_site_pbe_bader_spin_density
 _atom_site_pbe_cm5_charge
 _atom_site_pbe_ddec_charge
 _atom_site_pbe_ddec_spin_density
 _atom_site_pbe_ddec_sum_bond_order
 _atom_site_pbe_magmom
Co  Co0  1  0.74659021  0.85892484  0.73169336  1  1.243371  2.516911  0.656673  0.845109  2.704966  2.495166  2.492
Co  Co1  1  0.25341064  0.14107343  0.26829192  1  1.243261  2.516949  0.656594  0.845006  2.704976  2.495142  2.492
Co  Co2  1  0.50000673  0.00000191  0.00000038  1  1.141773  1.053775  0.685203  0.73328  1.120396  2.950798  1.041
Co  Co3  1  0.00000150  0.00000308  0.00000093  1  1.136026  1.058737  0.688378  0.722242  1.124637  2.96301  1.046
H  H4  1  0.43686710  0.75535169  0.04342123  1  0.627204  0.000768  0.301016  0.393889  0.000608  0.925462  0.0
H  H5  1  0.56939568  0.71572602  0.92467234  1  0.636962  0.000376  0.300591  0.392178  0.000172  0.93192  0.0
H  H6  1  0.00229986  0.25352948  0.96433184  1  0.608142  0.000766  0.309622  0.39383  0.00044  0.907945  0.0
H  H7  1  0.08497348  0.28164645  0.09389523  1  0.63116  0.000242  0.294569  0.390948  2.5e-05  0.943935  0.0
H  H8  1  0.56318949  0.24466033  0.95662261  1  0.627184  0.00077  0.300858  0.393745  0.000608  0.92563  0.0
H  H9  1  0.43056065  0.28425224  0.07532993  1  0.640053  0.000379  0.300584  0.392141  0.000172  0.932043  0.0
H  H10  1  0.99767475  0.74646060  0.03564189  1  0.608382  0.000764  0.309684  0.39389  0.000438  0.908045  0.0
H  H11  1  0.91499315  0.71836129  0.90608876  1  0.631691  0.000238  0.294671  0.391161  2.3e-05  0.943667  0.0
H  H12  1  0.75343943  0.41281663  0.79060115  1  0.109286  0.000627  0.107045  0.112429  0.000343  1.007593  0.0
H  H13  1  0.74823809  0.04395582  0.47991948  1  0.152261  0.000459  0.114207  0.124075  0.000148  0.988159  0.0
H  H14  1  0.75075453  0.44390234  0.44665744  1  0.095595  0.00053  0.113465  0.121829  0.000204  0.985756  0.0
H  H15  1  0.75508448  0.07107538  0.88638871  1  0.638585  0.000865  0.28605  0.34285  0.001081  1.010227  0.003
H  H16  1  0.24658302  0.58719212  0.20941120  1  0.109307  0.000627  0.107017  0.112402  0.000343  1.007745  0.0
H  H17  1  0.25174873  0.95605526  0.52009436  1  0.152092  0.000459  0.114171  0.124017  0.000147  0.988125  0.0
H  H18  1  0.24923846  0.55611078  0.55335867  1  0.095489  0.00053  0.113423  0.121778  0.000204  0.985745  0.0
H  H19  1  0.24493047  0.92891470  0.11360647  1  0.638674  0.000866  0.286016  0.34278  0.001083  1.010329  0.003
C  C20  1  0.75247456  0.59660215  0.67764986  1  1.486878  -0.007206  0.206467  0.558666  -0.009183  4.193952  -0.007
C  C21  1  0.75126531  0.44364382  0.62377594  1  -0.044838  0.003995  -0.016341  -0.033494  0.001904  3.992218  0.003
C  C22  1  0.75182683  0.36340134  0.69471583  1  -0.019977  -0.003884  -0.06804  -0.091665  -0.004356  3.916035  -0.002
C  C23  1  0.75100194  0.21956307  0.64256724  1  0.121799  0.007734  -0.015898  -0.036325  0.003805  3.992671  0.007
C  C24  1  0.74928004  0.15617420  0.51925919  1  -0.160649  -0.005658  -0.059926  -0.093526  -0.006231  3.884735  -0.004
C  C25  1  0.74918171  0.23611562  0.44833112  1  0.046186  0.001654  0.003196  0.027183  3.7e-05  4.013172  0.002
C  C26  1  0.75023791  0.37981211  0.50044873  1  0.060928  -0.004844  -0.059963  -0.089126  -0.005429  3.88936  -0.003
C  C27  1  0.75262763  0.13135542  0.71618394  1  1.517518  -0.006513  0.216693  0.578539  -0.007934  4.171423  -0.004
C  C28  1  0.74943901  0.16704658  0.31887461  1  0.962727  -0.00762  0.244254  0.281768  -0.008823  3.961532  -0.005
C  C29  1  0.24750769  0.40339948  0.32234630  1  1.486668  -0.007206  0.20634  0.558518  -0.009187  4.193924  -0.007
C  C30  1  0.24872630  0.55635469  0.37622258  1  -0.045378  0.003996  -0.016351  -0.033516  0.001904  3.992471  0.003
C  C31  1  0.24817713  0.63660240  0.30529664  1  -0.019285  -0.003885  -0.068019  -0.091707  -0.004356  3.916431  -0.002
C  C32  1  0.24899574  0.78044257  0.35743015  1  0.121746  0.007735  -0.015998  -0.036336  0.003805  3.992402  0.007
C  C33  1  0.25070986  0.84383573  0.48074773  1  -0.160822  -0.005661  -0.059864  -0.093473  -0.006234  3.884422  -0.004
C  C34  1  0.25081294  0.76388487  0.55166306  1  0.046442  0.001655  0.003141  0.027102  3.7e-05  4.013174  0.002
C  C35  1  0.24975214  0.62018749  0.49955342  1  0.061033  -0.004848  -0.059847  -0.088946  -0.005434  3.889271  -0.003
C  C36  1  0.24738865  0.86865018  0.28382005  1  1.517546  -0.006513  0.216708  0.578526  -0.007933  4.171528  -0.004
C  C37  1  0.25056485  0.83296222  0.68113115  1  0.962618  -0.007619  0.244342  0.281998  -0.008825  3.961331  -0.005
N  N38  1  0.57770114  0.13375897  0.25129747  1  -0.653123  0.033028  -0.214399  -0.248901  0.017881  3.42207  0.031
N  N39  1  0.64737647  0.06877899  0.14093306  1  -0.103768  -0.01839  -0.146019  -0.0051  -0.020239  3.632654  -0.015
N  N40  1  0.07885719  0.87595948  0.74873677  1  -0.685867  0.030832  -0.207349  -0.245525  0.015341  3.3804  0.032
N  N41  1  0.14893018  0.93836523  0.85876704  1  -0.220102  -0.018044  -0.144686  0.004935  -0.019868  3.629596  -0.015
N  N42  1  0.42231213  0.86623935  0.74869855  1  -0.653083  0.033027  -0.214518  -0.249127  0.017883  3.422231  0.031
N  N43  1  0.35263066  0.93121631  0.85906452  1  -0.103784  -0.018391  -0.14593  -0.004928  -0.020239  3.632559  -0.015
N  N44  1  0.92114054  0.12404311  0.25126299  1  -0.685826  0.030838  -0.207333  -0.245407  0.015344  3.380301  0.032
N  N45  1  0.85108004  0.06163109  0.14123168  1  -0.220231  -0.018043  -0.144675  0.004997  -0.019867  3.629529  -0.015
O  O46  1  0.55517722  0.78159108  0.00627547  1  -1.225347  0.058906  -0.570287  -0.755535  0.029408  2.071656  0.048
O  O47  1  0.97657719  0.23539150  0.03633111  1  -1.203081  0.059818  -0.571355  -0.752071  0.030064  2.087919  0.049
O  O48  1  0.44483308  0.21840336  0.99373585  1  -1.228377  0.058908  -0.570105  -0.755359  0.029411  2.071955  0.048
O  O49  1  0.02343174  0.76458506  0.96364929  1  -1.203735  0.059819  -0.571567  -0.752362  0.030067  2.08775  0.049
O  O50  1  0.73456897  0.65928864  0.78964684  1  -1.20922  0.047384  -0.312165  -0.583602  0.023537  2.267119  0.04
O  O51  1  0.77083346  0.66592082  0.61026858  1  -1.114856  0.091038  -0.304591  -0.519858  0.046622  2.28675  0.076
O  O52  1  0.76552800  0.18768524  0.82845706  1  -1.205758  0.00034  -0.313301  -0.555125  -0.001657  2.22228  0.001
O  O53  1  0.74142845  0.00139516  0.65984179  1  -1.132262  0.098098  -0.312028  -0.538466  0.050425  2.38934  0.082
O  O54  1  0.75031896  0.98524830  0.90945854  1  -1.098547  0.061521  -0.524298  -0.747833  0.034192  2.55271  0.051
O  O55  1  0.26540246  0.34071200  0.21034737  1  -1.209086  0.04739  -0.312056  -0.583471  0.023541  2.267131  0.04
O  O56  1  0.22915354  0.33407351  0.38972292  1  -1.114675  0.091033  -0.30454  -0.519784  0.046622  2.28661  0.076
O  O57  1  0.23451150  0.81232015  0.17154359  1  -1.205734  0.00034  -0.313231  -0.555065  -0.001657  2.222305  0.001
O  O58  1  0.25857082  0.99860739  0.34015549  1  -1.13237  0.098083  -0.312076  -0.53852  0.050423  2.389375  0.082
O  O59  1  0.24968971  0.01474804  0.09054018  1  -1.098811  0.061514  -0.524222  -0.747662  0.034188  2.552517  0.051
