# generated using pymatgen
data_Cu5H10C10S2N2Cl5
_symmetry_space_group_name_H-M   'P 1'
_cell_length_a   11.97297140
_cell_length_b   13.65740068
_cell_length_c   13.58826221
_cell_angle_alpha   79.27413303
_cell_angle_beta   63.86027894
_cell_angle_gamma   65.01139509
_symmetry_Int_Tables_number   1
_chemical_formula_structural   Cu5H10C10S2N2Cl5
_chemical_formula_sum   'Cu20 H40 C40 S8 N8 Cl20'
_cell_volume   1807.97298920
_cell_formula_units_Z   4
loop_
 _symmetry_equiv_pos_site_id
 _symmetry_equiv_pos_as_xyz
  1  'x, y, z'
loop_
 _atom_site_type_symbol
 _atom_site_label
 _atom_site_symmetry_multiplicity
 _atom_site_fract_x
 _atom_site_fract_y
 _atom_site_fract_z
 _atom_site_occupancy
 _atom_site_hle17_bader_spin_density
 _atom_site_hle17_ddec_charge
 _atom_site_hle17_ddec_spin_density
 _atom_site_hle17_ddec_sum_bond_order
 _atom_site_hle17_magmom
 _atom_site_hse06_10hf_bader_spin_density
 _atom_site_hse06_10hf_ddec_charge
 _atom_site_hse06_10hf_ddec_spin_density
 _atom_site_hse06_10hf_ddec_sum_bond_order
 _atom_site_hse06_10hf_magmom
 _atom_site_hse06_bader_spin_density
 _atom_site_hse06_ddec_charge
 _atom_site_hse06_ddec_spin_density
 _atom_site_hse06_ddec_sum_bond_order
 _atom_site_hse06_magmom
 _atom_site_pbe_bader_charge
 _atom_site_pbe_bader_spin_density
 _atom_site_pbe_cm5_charge
 _atom_site_pbe_ddec_charge
 _atom_site_pbe_ddec_spin_density
 _atom_site_pbe_ddec_sum_bond_order
 _atom_site_pbe_magmom
Cu  Cu0  1  0.33771811  0.74351880  0.74863301  1  0  0.386608  0  2.244221  0  0  0.344708  0  2.717125  0  0  0.332639  0  2.677478  0  0.548305  0  0.32067  0.355069  0  2.742435  0
Cu  Cu1  1  0.08497418  0.25062800  0.25089013  1  0  0.388655  0  2.231855  0  0  0.345169  0  2.70653  0  0  0.333629  0  2.666357  0  0.546696  0  0.318341  0.355149  0  2.732241  0
Cu  Cu2  1  0.66228201  0.25647695  0.25136970  1  0  0.386653  0  2.244081  0  0  0.344751  0  2.71699  0  0  0.332688  0  2.677339  0  0.548336  0  0.320693  0.355114  0  2.742302  0
Cu  Cu3  1  0.91502764  0.74937173  0.74910684  1  0  0.388634  0  2.231826  0  0  0.345145  0  2.706506  0  0  0.333607  0  2.666331  0  0.546697  0  0.318355  0.355122  0  2.732224  0
Cu  Cu4  1  0.07014572  0.94146092  0.65812097  1  0  0.381104  0  2.196429  0  0  0.343162  0  2.660144  0  0  0.335817  0  2.614712  0  0.517438  0  0.318408  0.350205  0  2.690007  0
Cu  Cu5  1  0.72717211  0.34236643  0.44165560  1  0  0.381612  0  2.185275  0  0  0.342823  0  2.648328  0  0  0.335404  0  2.602971  0  0.519103  0  0.319298  0.349628  0  2.67866  0
Cu  Cu6  1  0.01272227  0.15849970  0.05740958  1  0  0.387458  0  2.187349  0  0  0.34794  0  2.654465  0  0  0.340882  0  2.608637  0  0.519874  0  0.319678  0.355508  0  2.683996  0
Cu  Cu7  1  0.17387099  0.55559962  0.84000828  1  0  0.379067  0  2.20838  0  0  0.342457  0  2.672144  0  0  0.334074  0  2.627747  0  0.518841  0  0.319622  0.350843  0  2.700836  0
Cu  Cu8  1  0.92985487  0.05854061  0.34188421  1  0  0.381061  0  2.196511  0  0  0.343102  0  2.660252  0  0  0.335758  0  2.614812  0  0.517467  0  0.318399  0.350149  0  2.690111  0
Cu  Cu9  1  0.27282216  0.65763979  0.55833974  1  0  0.381575  0  2.185294  0  0  0.342771  0  2.648377  0  0  0.335354  0  2.603017  0  0.519203  0  0.319298  0.349578  0  2.678703  0
Cu  Cu10  1  0.98727326  0.84149929  0.94259395  1  0  0.387508  0  2.187293  0  0  0.347997  0  2.6544  0  0  0.340937  0  2.608577  0  0.5199  0  0.319687  0.355562  0  2.683933  0
Cu  Cu11  1  0.82612775  0.44440154  0.15999197  1  0  0.379113  0  2.208355  0  0  0.342512  0  2.672113  0  0  0.334127  0  2.627714  0  0.518845  0  0.319641  0.350896  0  2.700801  0
Cu  Cu12  1  0.15054349  0.98954743  0.80595570  1  0  0.394396  0  1.921779  0  0  0.307029  0  2.40677  0  0  0.327505  0  2.343955  0  0.543993  0  0.251357  0.293736  0  2.449609  0
Cu  Cu13  1  0.95788517  0.19289812  0.48719731  1  0  0.391947  0  1.910463  0  0  0.302443  0  2.395323  0  0  0.324356  0  2.331231  0  0.543097  0  0.250574  0.288898  0  2.43828  0
Cu  Cu14  1  0.14247451  0.30904415  0.00796164  1  0  0.39943  0  1.905172  0  0  0.311451  0  2.390151  0  0  0.331856  0  2.32758  0  0.545768  0  0.251038  0.297958  0  2.432724  0
Cu  Cu15  1  0.44266119  0.51465897  0.69440006  1  0  0.379159  0  1.940967  0  0  0.287541  0  2.43372  0  0  0.310942  0  2.36699  0  0.533779  0  0.246483  0.272547  0  2.478651  0
Cu  Cu16  1  0.84945195  0.01045662  0.19404538  1  0  0.394421  0  1.92171  0  0  0.307076  0  2.406679  0  0  0.327541  0  2.343848  0  0.543867  0  0.25137  0.293776  0  2.449511  0
Cu  Cu17  1  0.04211042  0.80710485  0.51280376  1  0  0.391984  0  1.910364  0  0  0.302476  0  2.395227  0  0  0.324396  0  2.331125  0  0.543233  0  0.25058  0.288919  0  2.438214  0
Cu  Cu18  1  0.85752218  0.69095521  0.99203697  1  0  0.399371  0  1.905284  0  0  0.311399  0  2.390232  0  0  0.331783  0  2.327712  0  0.54575  0  0.251003  0.297904  0  2.432808  0
Cu  Cu19  1  0.55733962  0.48533931  0.30560184  1  0  0.379132  0  1.941039  0  0  0.287512  0  2.433803  0  0  0.310899  0  2.367083  0  0.533797  0  0.246482  0.272517  0  2.478728  0
H  H20  1  0.55044723  0.68145942  0.47028210  1  0  0.132197  0  0.959912  0  0  0.138305  0  1.023783  0  0  0.141999  0  1.02323  0  0.141634  0  0.100065  0.135457  0  1.024763  0
H  H21  1  0.02431637  0.53157310  0.17773434  1  0  0.131844  0  0.961357  0  0  0.138597  0  1.024396  0  0  0.142153  0  1.02416  0  0.129342  0  0.099543  0.135785  0  1.025275  0
H  H22  1  0.23078102  0.96932968  0.32144233  1  0  0.131572  0  0.963794  0  0  0.138526  0  1.02666  0  0  0.142241  0  1.026121  0  0.130119  0  0.099219  0.135564  0  1.02774  0
H  H23  1  0.19711589  0.82142010  0.03506255  1  0  0.13309  0  0.957875  0  0  0.139684  0  1.020969  0  0  0.14338  0  1.020538  0  0.160968  0  0.100344  0.136754  0  1.021943  0
H  H24  1  0.44955210  0.31853741  0.52971816  1  0  0.132159  0  0.959995  0  0  0.138282  0  1.023849  0  0  0.141975  0  1.023299  0  0.141679  0  0.100075  0.135438  0  1.024821  0
H  H25  1  0.97568940  0.46842518  0.82226510  1  0  0.131869  0  0.961335  0  0  0.138657  0  1.024333  0  0  0.142214  0  1.024093  0  0.12943  0  0.09957  0.135845  0  1.025212  0
H  H26  1  0.76922309  0.03067149  0.67855465  1  0  0.131617  0  0.96376  0  0  0.138574  0  1.02661  0  0  0.142289  0  1.026075  0  0.130119  0  0.099248  0.135611  0  1.027693  0
H  H27  1  0.80288755  0.17857999  0.96493607  1  0  0.133089  0  0.957833  0  0  0.139705  0  1.020922  0  0  0.143401  0  1.020493  0  0.160883  0  0.100357  0.136774  0  1.021899  0
H  H28  1  0.26771280  0.01604199  0.51865777  1  0  0.122206  0  0.982016  0  0  0.123732  0  1.056269  0  0  0.129198  0  1.052812  0  0.135476  0  0.091064  0.119669  0  1.059038  0
H  H29  1  0.78668030  0.47934035  0.51758223  1  0  0.120458  0  0.982955  0  0  0.122504  0  1.056756  0  0  0.127961  0  1.053353  0  0.144123  0  0.090236  0.118318  0  1.059716  0
H  H30  1  0.28465975  0.01998264  0.98100036  1  0  0.123347  0  0.978618  0  0  0.125117  0  1.051804  0  0  0.130623  0  1.048361  0  0.150277  0  0.091907  0.121002  0  1.054558  0
H  H31  1  0.30232008  0.48522526  0.97815492  1  0  0.120791  0  0.985389  0  0  0.122598  0  1.059525  0  0  0.128121  0  1.055931  0  0.137953  0  0.090389  0.11838  0  1.062529  0
H  H32  1  0.73229188  0.98395702  0.48134986  1  0  0.122212  0  0.981988  0  0  0.123721  0  1.056253  0  0  0.129186  0  1.052797  0  0.135395  0  0.091028  0.119657  0  1.059028  0
H  H33  1  0.21332102  0.52065865  0.48241721  1  0  0.120476  0  0.982919  0  0  0.122524  0  1.0567  0  0  0.127978  0  1.053299  0  0.144103  0  0.090252  0.118335  0  1.059671  0
H  H34  1  0.71533369  0.98001780  0.01900072  1  0  0.12326  0  0.978719  0  0  0.125021  0  1.051913  0  0  0.130528  0  1.04847  0  0.150267  0  0.091854  0.120908  0  1.054667  0
H  H35  1  0.69767951  0.51477447  0.02185025  1  0  0.120978  0  0.985281  0  0  0.122724  0  1.059459  0  0  0.128242  0  1.055862  0  0.137982  0  0.090454  0.118505  0  1.062464  0
H  H36  1  0.66060000  0.93068146  0.27726635  1  0  0.282874  0  0.914212  0  0  0.255433  0  0.996557  0  0  0.265996  0  0.986841  0  0.483843  0  0.289858  0.247792  0  1.003574  0
H  H37  1  0.93504509  0.72409322  0.43086163  1  0  0.285613  0  0.913315  0  0  0.258163  0  0.99473  0  0  0.26847  0  0.985392  0  0.510886  0  0.290248  0.250484  0  1.00186  0
H  H38  1  0.58517586  0.78073273  0.06868311  1  0  0.285555  0  0.909871  0  0  0.258003  0  0.99122  0  0  0.268367  0  0.981845  0  0.500646  0  0.291805  0.250451  0  0.998028  0
H  H39  1  0.36760465  0.57196649  0.22111103  1  0  0.287426  0  0.905655  0  0  0.260681  0  0.985491  0  0  0.270885  0  0.976312  0  0.501735  0  0.294036  0.253089  0  0.992432  0
H  H40  1  0.33940089  0.06931609  0.72273308  1  0  0.282936  0  0.914214  0  0  0.255471  0  0.996555  0  0  0.266037  0  0.986836  0  0.48383  0  0.28986  0.247825  0  1.003573  0
H  H41  1  0.06495415  0.27590867  0.56913616  1  0  0.28563  0  0.913307  0  0  0.258175  0  0.994746  0  0  0.268484  0  0.985398  0  0.510924  0  0.290236  0.250493  0  1.001881  0
H  H42  1  0.41482249  0.21926808  0.93131305  1  0  0.285703  0  0.909824  0  0  0.25815  0  0.991185  0  0  0.268513  0  0.981808  0  0.499797  0  0.291876  0.250598  0  0.997992  0
H  H43  1  0.63240112  0.42803179  0.77888840  1  0  0.287454  0  0.905667  0  0  0.260664  0  0.985524  0  0  0.270864  0  0.976358  0  0.501767  0  0.294046  0.253072  0  0.992463  0
H  H44  1  0.45200752  0.06547763  0.36478377  1  0  0.106187  0  0.94498  0  0  0.113302  0  1.006732  0  0  0.116853  0  1.003918  0  0.174031  0  0.116518  0.110479  0  1.009114  0
H  H45  1  0.81438068  0.63402444  0.56784420  1  0  0.105777  0  0.946872  0  0  0.112835  0  1.008917  0  0  0.116345  0  1.006069  0  0.163188  0  0.116135  0.110069  0  1.01125  0
H  H46  1  0.51365571  0.86838249  0.93152291  1  0  0.106438  0  0.940721  0  0  0.113888  0  1.002165  0  0  0.117563  0  0.999157  0  0.167136  0  0.117744  0.110988  0  1.004697  0
H  H47  1  0.38331444  0.43605581  0.13004810  1  0  0.106027  0  0.945709  0  0  0.113554  0  1.007141  0  0  0.1171  0  1.004299  0  0.150788  0  0.11639  0.110692  0  1.009586  0
H  H48  1  0.54799509  0.93452426  0.63522223  1  0  0.106156  0  0.945018  0  0  0.11324  0  1.00681  0  0  0.1168  0  1.003983  0  0.173725  0  0.116485  0.11042  0  1.00919  0
H  H49  1  0.18561847  0.36597672  0.43215524  1  0  0.105775  0  0.946857  0  0  0.112803  0  1.008929  0  0  0.116316  0  1.006078  0  0.163174  0  0.116137  0.110037  0  1.011262  0
H  H50  1  0.48633768  0.13161976  0.06847653  1  0  0.106381  0  0.940633  0  0  0.113845  0  1.002078  0  0  0.117515  0  0.999076  0  0.167151  0  0.117724  0.110945  0  1.004606  0
H  H51  1  0.61668736  0.56394427  0.86995380  1  0  0.106006  0  0.945701  0  0  0.113531  0  1.007156  0  0  0.117032  0  1.004367  0  0.150826  0  0.116373  0.110679  0  1.00959  0
H  H52  1  0.72136550  0.74532736  0.31681880  1  0  0.10019  0  0.958247  0  0  0.108773  0  1.020785  0  0  0.111191  0  1.019344  0  0.1409  0  0.115048  0.107056  0  1.021781  0
H  H53  1  0.03834963  0.68611385  0.24253254  1  0  0.097261  0  0.963106  0  0  0.105622  0  1.026856  0  0  0.107788  0  1.025738  0  0.157261  0  0.114139  0.103864  0  1.028033  0
H  H54  1  0.46113854  0.81840038  0.25735897  1  0  0.099753  0  0.954909  0  0  0.108166  0  1.018205  0  0  0.110446  0  1.016903  0  0.134433  0  0.115856  0.106413  0  1.019266  0
H  H55  1  0.28007223  0.75769380  0.18634934  1  0  0.098049  0  0.964161  0  0  0.106017  0  1.028382  0  0  0.108233  0  1.027174  0  0.155986  0  0.114287  0.104146  0  1.029695  0
H  H56  1  0.27863077  0.25467055  0.68317981  1  0  0.10017  0  0.958196  0  0  0.108737  0  1.020753  0  0  0.111152  0  1.019311  0  0.140912  0  0.115058  0.107022  0  1.021749  0
H  H57  1  0.96165702  0.31388841  0.75746280  1  0  0.097322  0  0.96304  0  0  0.105674  0  1.026781  0  0  0.107838  0  1.025664  0  0.157344  0  0.114178  0.103917  0  1.02796  0
H  H58  1  0.53886359  0.18159863  0.74263883  1  0  0.09977  0  0.954923  0  0  0.108165  0  1.01823  0  0  0.110444  0  1.016928  0  0.13457  0  0.115845  0.106411  0  1.019292  0
H  H59  1  0.71993518  0.24230448  0.81364681  1  0  0.098038  0  0.964113  0  0  0.106006  0  1.028323  0  0  0.10822  0  1.02712  0  0.155969  0  0.114294  0.104134  0  1.029639  0
C  C60  1  0.52610526  0.76701214  0.45081575  1  0  -0.156202  0  3.669463  0  0  -0.172476  0  3.921105  0  0  -0.180971  0  3.937104  0  0.096541  0  -0.086551  -0.167586  0  3.911574  0
C  C61  1  0.97927837  0.55044638  0.26459593  1  0  -0.153635  0  3.669245  0  0  -0.170307  0  3.920477  0  0  -0.178851  0  3.93691  0  0.097883  0  -0.086355  -0.165626  0  3.911135  0
C  C62  1  0.29138859  0.95090215  0.23457827  1  0  -0.153612  0  3.666347  0  0  -0.170887  0  3.917465  0  0  -0.179357  0  3.933732  0  0.090923  0  -0.085678  -0.166145  0  3.908092  0
C  C63  1  0.24004132  0.73569192  0.05226796  1  0  -0.15399  0  3.664405  0  0  -0.170769  0  3.916074  0  0  -0.179236  0  3.932108  0  0.027114  0  -0.085801  -0.166165  0  3.906976  0
C  C64  1  0.47389450  0.23298613  0.54918451  1  0  -0.156183  0  3.669441  0  0  -0.172466  0  3.921028  0  0  -0.18096  0  3.937028  0  0.096679  0  -0.086545  -0.167572  0  3.911496  0
C  C65  1  0.02072451  0.44955479  0.73540350  1  0  -0.153612  0  3.669358  0  0  -0.170288  0  3.920533  0  0  -0.178815  0  3.936985  0  0.097771  0  -0.086345  -0.165608  0  3.911191  0
C  C66  1  0.70861324  0.04909902  0.76541952  1  0  -0.153626  0  3.666338  0  0  -0.170887  0  3.917449  0  0  -0.179362  0  3.93372  0  0.090875  0  -0.085695  -0.166149  0  3.90808  0
C  C67  1  0.75996739  0.26430745  0.94772902  1  0  -0.153877  0  3.664262  0  0  -0.170736  0  3.91598  0  0  -0.179207  0  3.932019  0  0.027459  0  -0.085799  -0.166132  0  3.906883  0
C  C68  1  0.36750797  0.95423282  0.47769777  1  0  -0.159711  0  3.675426  0  0  -0.17499  0  3.925977  0  0  -0.184689  0  3.94316  0  0.025436  0  -0.090941  -0.169105  0  3.915446  0
C  C69  1  0.84575524  0.52138520  0.45481460  1  0  -0.159562  0  3.677721  0  0  -0.174175  0  3.925854  0  0  -0.184025  0  3.943415  0  0.044896  0  -0.090518  -0.168251  0  3.915464  0
C  C70  1  0.32135022  0.97911883  0.04412596  1  0  -0.162783  0  3.677691  0  0  -0.17674  0  3.92662  0  0  -0.186541  0  3.94391  0  -0.036734  0  -0.090675  -0.170781  0  3.916066  0
C  C71  1  0.29878872  0.54759755  0.02037712  1  0  -0.162301  0  3.680607  0  0  -0.177051  0  3.930372  0  0  -0.186794  0  3.947547  0  0.059025  0  -0.091571  -0.171146  0  3.920017  0
C  C72  1  0.63249473  0.04576835  0.52230576  1  0  -0.15966  0  3.67531  0  0  -0.174945  0  3.925869  0  0  -0.184643  0  3.943055  0  0.025563  0  -0.090881  -0.169055  0  3.915335  0
C  C73  1  0.15424560  0.47861416  0.54518319  1  0  -0.159643  0  3.677666  0  0  -0.17424  0  3.925769  0  0  -0.18407  0  3.943351  0  0.044864  0  -0.090587  -0.168318  0  3.915375  0
C  C74  1  0.67864663  0.02088089  0.95587347  1  0  -0.162651  0  3.677569  0  0  -0.17659  0  3.926488  0  0  -0.186391  0  3.943775  0  -0.036691  0  -0.090546  -0.170636  0  3.915938  0
C  C75  1  0.70121349  0.45240253  0.97962396  1  0  -0.16261  0  3.680692  0  0  -0.177304  0  3.93047  0  0  -0.187035  0  3.947621  0  0.058781  0  -0.091667  -0.171399  0  3.920118  0
C  C76  1  0.39553564  0.84443038  0.50771133  1  0  0.190099  0  3.6912  0  0  0.203965  0  3.942529  0  0  0.216679  0  3.957506  0  -0.147437  0  0.010939  0.194964  0  3.932801  0
C  C77  1  0.90536953  0.49233424  0.34333111  1  0  0.189131  0  3.692516  0  0  0.203507  0  3.943843  0  0  0.21595  0  3.95892  0  -0.143274  0  0.011145  0.194545  0  3.934411  0
C  C78  1  0.23990701  0.00802645  0.15559389  1  0  0.191163  0  3.682545  0  0  0.205457  0  3.933276  0  0  0.218147  0  3.948405  0  -0.135038  0  0.011563  0.196504  0  3.923578  0
C  C79  1  0.24489433  0.65770939  0.99336910  1  0  0.190047  0  3.686808  0  0  0.204103  0  3.938066  0  0  0.216863  0  3.952927  0  -0.14497  0  0.010809  0.195135  0  3.928684  0
C  C80  1  0.60446680  0.15556971  0.49229302  1  0  0.190044  0  3.6912  0  0  0.203905  0  3.942527  0  0  0.216617  0  3.9575  0  -0.147389  0  0.010944  0.194907  0  3.932792  0
C  C81  1  0.09463564  0.50766079  0.65666669  1  0  0.189072  0  3.692488  0  0  0.20345  0  3.943801  0  0  0.215832  0  3.958969  0  -0.143099  0  0.011116  0.194492  0  3.934364  0
C  C82  1  0.76009172  0.99197472  0.84440637  1  0  0.191177  0  3.682554  0  0  0.205447  0  3.933306  0  0  0.218137  0  3.948435  0  -0.135031  0  0.011541  0.196493  0  3.923611  0
C  C83  1  0.75510664  0.34228925  0.00663361  1  0  0.189932  0  3.686893  0  0  0.204037  0  3.938109  0  0  0.216796  0  3.952974  0  -0.144746  0  0.010782  0.195069  0  3.928727  0
C  C84  1  0.46640608  0.98310007  0.39410134  1  0  0.137442  0  3.645152  0  0  0.097033  0  3.897921  0  0  0.108577  0  3.910348  0  0.37687  0  0.04972  0.089324  0  3.890061  0
C  C85  1  0.85959570  0.60538287  0.48413873  1  0  0.140125  0  3.644338  0  0  0.099816  0  3.895889  0  0  0.111378  0  3.908235  0  0.357287  0  0.050822  0.09195  0  3.888315  0
C  C86  1  0.44669729  0.89664116  0.01520844  1  0  0.139602  0  3.646693  0  0  0.097912  0  3.900036  0  0  0.109515  0  3.912224  0  0.419718  0  0.050933  0.090059  0  3.892498  0
C  C87  1  0.34374620  0.51880301  0.10290866  1  0  0.139813  0  3.647656  0  0  0.098924  0  3.899851  0  0  0.110576  0  3.912062  0  0.383556  0  0.05066  0.091057  0  3.892341  0
C  C88  1  0.53359203  0.01689676  0.60590138  1  0  0.137472  0  3.645221  0  0  0.097096  0  3.897954  0  0  0.108636  0  3.910373  0  0.377168  0  0.049697  0.089374  0  3.890099  0
C  C89  1  0.14040293  0.39461613  0.51586234  1  0  0.140239  0  3.644502  0  0  0.099963  0  3.896027  0  0  0.111522  0  3.908376  0  0.357389  0  0.050901  0.092096  0  3.888454  0
C  C90  1  0.55329796  0.10335964  0.98479017  1  0  0.139564  0  3.646591  0  0  0.0979  0  3.899957  0  0  0.109505  0  3.912147  0  0.419801  0  0.050841  0.090047  0  3.892422  0
C  C91  1  0.65625606  0.48119527  0.89709405  1  0  0.13989  0  3.647625  0  0  0.098991  0  3.899815  0  0  0.110676  0  3.91204  0  0.383489  0  0.050626  0.091116  0  3.8923  0
C  C92  1  0.62109236  0.80020670  0.36760871  1  0  0.138601  0  3.633626  0  0  0.096948  0  3.887004  0  0  0.109323  0  3.898405  0  0.352681  0  0.046843  0.088667  0  3.879628  0
C  C93  1  0.98911743  0.63428957  0.29827634  1  0  0.140185  0  3.638531  0  0  0.098123  0  3.892576  0  0  0.110388  0  3.904201  0  0.332784  0  0.047931  0.089667  0  3.88555  0
C  C94  1  0.41736155  0.86895547  0.20124873  1  0  0.136292  0  3.63472  0  0  0.094793  0  3.889127  0  0  0.107074  0  3.900537  0  0.368679  0  0.047794  0.086363  0  3.882161  0
C  C95  1  0.28606756  0.70257256  0.13422648  1  0  0.136932  0  3.636073  0  0  0.094934  0  3.890853  0  0  0.107238  0  3.902328  0  0.357471  0  0.046461  0.086439  0  3.884073  0
C  C96  1  0.37890889  0.19978833  0.63239319  1  0  0.138666  0  3.633717  0  0  0.097045  0  3.887039  0  0  0.109426  0  3.89845  0  0.352405  0  0.046816  0.088753  0  3.879669  0
C  C97  1  0.01088456  0.36571197  0.70172228  1  0  0.140142  0  3.638435  0  0  0.098077  0  3.892511  0  0  0.110342  0  3.904136  0  0.332795  0  0.047871  0.08962  0  3.885486  0
C  C98  1  0.58264044  0.13104462  0.79874906  1  0  0.136192  0  3.634782  0  0  0.094756  0  3.889205  0  0  0.107038  0  3.900617  0  0.36849  0  0.047766  0.086327  0  3.882239  0
C  C99  1  0.71393587  0.29742608  0.86577131  1  0  0.136914  0  3.635999  0  0  0.094954  0  3.890773  0  0  0.107261  0  3.902248  0  0.35724  0  0.046463  0.086456  0  3.883997  0
S  S100  1  0.27084642  0.80520560  0.60954527  1  0  -0.386803  0  3.302595  0  0  -0.376131  0  3.870826  0  0  -0.368991  0  3.81673  0  -0.274201  0  -0.275436  -0.381902  0  3.907182  0
S  S101  1  0.88314665  0.39055010  0.30337615  1  0  -0.385947  0  3.299912  0  0  -0.375663  0  3.869905  0  0  -0.367965  0  3.815276  0  -0.272958  0  -0.276369  -0.382306  0  3.907283  0
S  S102  1  0.07863151  0.10827989  0.19463234  1  0  -0.385704  0  3.293538  0  0  -0.376229  0  3.864049  0  0  -0.369254  0  3.81048  0  -0.274972  0  -0.276481  -0.382434  0  3.899809  0
S  S103  1  0.18167244  0.69616976  0.89303863  1  0  -0.383233  0  3.295221  0  0  -0.373319  0  3.863617  0  0  -0.366063  0  3.810116  0  -0.275475  0  -0.276157  -0.380296  0  3.900177  0
S  S104  1  0.72915237  0.19479376  0.39045662  1  0  -0.386767  0  3.302648  0  0  -0.376106  0  3.870898  0  0  -0.368959  0  3.816794  0  -0.274335  0  -0.275458  -0.381911  0  3.907333  0
S  S105  1  0.11685223  0.60944998  0.69662410  1  0  -0.385858  0  3.299725  0  0  -0.375578  0  3.869712  0  0  -0.367859  0  3.815106  0  -0.273186  0  -0.27635  -0.38222  0  3.907091  0
S  S106  1  0.92136567  0.89172055  0.80536874  1  0  -0.38577  0  3.293579  0  0  -0.376298  0  3.864108  0  0  -0.369317  0  3.810532  0  -0.274935  0  -0.276482  -0.382482  0  3.899826  0
S  S107  1  0.81832985  0.30382961  0.10695999  1  0  -0.383227  0  3.295381  0  0  -0.373329  0  3.86377  0  0  -0.366073  0  3.81027  0  -0.275522  0  -0.276163  -0.380299  0  3.900322  0
N  N108  1  0.58994095  0.90652347  0.34114477  1  0  -0.233059  0  3.506892  0  0  -0.160965  0  3.734105  0  0  -0.17614  0  3.746846  0  -1.279799  0  -0.363232  -0.151285  0  3.725831  0
N  N109  1  0.93010725  0.65969999  0.40624383  1  0  -0.235307  0  3.509364  0  0  -0.162169  0  3.735991  0  0  -0.177118  0  3.748545  0  -1.291636  0  -0.363664  -0.152628  0  3.728266  0
N  N110  1  0.49216973  0.84364859  0.09328288  1  0  -0.233858  0  3.50478  0  0  -0.160355  0  3.731626  0  0  -0.175252  0  3.74411  0  -1.287959  0  -0.361617  -0.151007  0  3.723829  0
N  N111  1  0.33685767  0.59592408  0.15770399  1  0  -0.235457  0  3.506022  0  0  -0.162648  0  3.733086  0  0  -0.177667  0  3.74579  0  -1.287153  0  -0.364153  -0.153142  0  3.725272  0
N  N112  1  0.41005915  0.09347698  0.65885794  1  0  -0.233186  0  3.507249  0  0  -0.16107  0  3.734434  0  0  -0.176247  0  3.747176  0  -1.279651  0  -0.363201  -0.151367  0  3.726153  0
N  N113  1  0.06989370  0.34030154  0.59375315  1  0  -0.235369  0  3.509376  0  0  -0.16223  0  3.735987  0  0  -0.177176  0  3.748539  0  -1.291776  0  -0.363669  -0.152689  0  3.728265  0
N  N114  1  0.50782724  0.15635330  0.90671573  1  0  -0.233898  0  3.504896  0  0  -0.160497  0  3.731888  0  0  -0.175399  0  3.744377  0  -1.2872  0  -0.361619  -0.151146  0  3.72409  0
N  N115  1  0.66314917  0.40407529  0.84229299  1  0  -0.235449  0  3.50593  0  0  -0.162592  0  3.733013  0  0  -0.177604  0  3.745693  0  -1.287128  0  -0.364102  -0.153086  0  3.725206  0
Cl  Cl116  1  0.00000130  0.99999932  0.49999972  1  0  -0.477298  0  1.564349  0  0  -0.412207  0  1.981889  0  0  -0.422318  0  1.933228  0  -0.638531  0  -0.280409  -0.405491  0  2.015555  0
Cl  Cl117  1  0.49999929  0.50000040  0.49999972  1  0  -0.47436  0  1.546945  0  0  -0.40867  0  1.96482  0  0  -0.419252  0  1.915739  0  -0.64004  0  -0.280758  -0.401649  0  1.999615  0
Cl  Cl118  1  0.99999928  0.99999864  0.99999861  1  0  -0.481092  0  1.577493  0  0  -0.416282  0  1.998462  0  0  -0.426029  0  1.949653  0  -0.640403  0  -0.283207  -0.40985  0  2.032573  0
Cl  Cl119  1  0.99999989  0.49999950  0.99999918  1  0  -0.480545  0  1.557317  0  0  -0.415822  0  1.974517  0  0  -0.42556  0  1.926488  0  -0.644572  0  -0.280629  -0.409194  0  2.008134  0
Cl  Cl120  1  0.35253471  0.89111876  0.80605079  1  0  -0.506365  0  1.359292  0  0  -0.435402  0  1.706388  0  0  -0.455426  0  1.676815  0  -0.624678  0  -0.293887  -0.420789  0  1.726094  0
Cl  Cl121  1  0.16399591  0.19227437  0.39143461  1  0  -0.500051  0  1.365922  0  0  -0.428668  0  1.712464  0  0  -0.448667  0  1.682744  0  -0.62094  0  -0.291272  -0.413953  0  1.732005  0
Cl  Cl122  1  0.24950928  0.30690705  0.10671078  1  0  -0.505148  0  1.360399  0  0  -0.434048  0  1.708217  0  0  -0.453887  0  1.678364  0  -0.622202  0  -0.294358  -0.419545  0  1.728107  0
Cl  Cl123  1  0.55479945  0.60865948  0.69561742  1  0  -0.492579  0  1.371419  0  0  -0.422198  0  1.720135  0  0  -0.441924  0  1.689971  0  -0.617931  0  -0.290786  -0.407704  0  1.740132  0
Cl  Cl124  1  0.64745899  0.10888132  0.19394864  1  0  -0.50639  0  1.359227  0  0  -0.435436  0  1.70634  0  0  -0.455456  0  1.676757  0  -0.624607  0  -0.293887  -0.420816  0  1.726036  0
Cl  Cl125  1  0.83600012  0.80772535  0.60856646  1  0  -0.50004  0  1.365854  0  0  -0.428652  0  1.712373  0  0  -0.44865  0  1.682657  0  -0.620979  0  -0.291261  -0.413941  0  1.731926  0
Cl  Cl126  1  0.75048979  0.69309303  0.89328538  1  0  -0.505148  0  1.36043  0  0  -0.434043  0  1.708235  0  0  -0.45389  0  1.678404  0  -0.622214  0  -0.29436  -0.419541  0  1.728131  0
Cl  Cl127  1  0.44520161  0.39133989  0.30438365  1  0  -0.492562  0  1.371376  0  0  -0.422186  0  1.720098  0  0  -0.441917  0  1.689945  0  -0.617938  0  -0.290784  -0.407688  0  1.740091  0
Cl  Cl128  1  0.04965692  0.10681894  0.70586049  1  0  -0.503328  0  1.388556  0  0  -0.437872  0  1.758802  0  0  -0.456944  0  1.726229  0  -0.619073  0  -0.301501  -0.42393  0  1.78094  0
Cl  Cl129  1  0.75635047  0.29259980  0.60628093  1  0  -0.503893  0  1.383421  0  0  -0.438405  0  1.754336  0  0  -0.457762  0  1.721411  0  -0.62193  0  -0.301399  -0.423914  0  1.776633  0
Cl  Cl130  1  0.15575233  0.20774796  0.89093919  1  0  -0.507439  0  1.399122  0  0  -0.441994  0  1.773228  0  0  -0.46084  0  1.739727  0  -0.619439  0  -0.30238  -0.428203  0  1.795475  0
Cl  Cl131  1  0.36179423  0.39220368  0.79246140  1  0  -0.498909  0  1.382355  0  0  -0.433791  0  1.752647  0  0  -0.452766  0  1.719355  0  -0.618922  0  -0.302622  -0.419728  0  1.774764  0
Cl  Cl132  1  0.95034186  0.89318475  0.29413648  1  0  -0.503322  0  1.388535  0  0  -0.437851  0  1.758752  0  0  -0.456929  0  1.726191  0  -0.619062  0  -0.301495  -0.4239  0  1.78088  0
Cl  Cl133  1  0.24364266  0.70740136  0.39371932  1  0  -0.503932  0  1.383445  0  0  -0.438441  0  1.754356  0  0  -0.4578  0  1.721442  0  -0.622056  0  -0.301427  -0.42396  0  1.776677  0
Cl  Cl134  1  0.84424425  0.79224923  0.10906025  1  0  -0.50741  0  1.399134  0  0  -0.441974  0  1.773263  0  0  -0.460811  0  1.739761  0  -0.61946  0  -0.302373  -0.428176  0  1.795498  0
Cl  Cl135  1  0.63820279  0.60779640  0.20753885  1  0  -0.498914  0  1.382357  0  0  -0.433798  0  1.752652  0  0  -0.452765  0  1.719355  0  -0.618919  0  -0.302635  -0.419733  0  1.774761  0
