# generated using pymatgen
data_Zn2H9C12N5Cl2O
_symmetry_space_group_name_H-M   'P 1'
_cell_length_a   7.24517375
_cell_length_b   7.24516775
_cell_length_c   15.63781041
_cell_angle_alpha   79.77166481
_cell_angle_beta   79.77178002
_cell_angle_gamma   64.83359274
_symmetry_Int_Tables_number   1
_chemical_formula_structural   Zn2H9C12N5Cl2O
_chemical_formula_sum   'Zn4 H18 C24 N10 Cl4 O2'
_cell_volume   726.32568816
_cell_formula_units_Z   2
loop_
 _symmetry_equiv_pos_site_id
 _symmetry_equiv_pos_as_xyz
  1  'x, y, z'
loop_
 _atom_site_type_symbol
 _atom_site_label
 _atom_site_symmetry_multiplicity
 _atom_site_fract_x
 _atom_site_fract_y
 _atom_site_fract_z
 _atom_site_occupancy
 _atom_site_hle17_bader_spin_density
 _atom_site_hle17_ddec_charge
 _atom_site_hle17_ddec_spin_density
 _atom_site_hle17_ddec_sum_bond_order
 _atom_site_hle17_magmom
 _atom_site_hse06_10hf_bader_spin_density
 _atom_site_hse06_10hf_ddec_charge
 _atom_site_hse06_10hf_ddec_spin_density
 _atom_site_hse06_10hf_ddec_sum_bond_order
 _atom_site_hse06_10hf_magmom
 _atom_site_hse06_bader_spin_density
 _atom_site_hse06_ddec_charge
 _atom_site_hse06_ddec_spin_density
 _atom_site_hse06_ddec_sum_bond_order
 _atom_site_hse06_magmom
 _atom_site_pbe_bader_spin_density
 _atom_site_pbe_cm5_charge
 _atom_site_pbe_ddec_charge
 _atom_site_pbe_ddec_spin_density
 _atom_site_pbe_ddec_sum_bond_order
 _atom_site_pbe_magmom
Zn  Zn0  1  0.73030613  0.38353637  0.33525034  1  0  0.925982  0  2.062025  0  0  0.744484  0  2.554357  0  0  0.785852  0  2.503362  0  0  0.611082  0.715766  0  2.589358  0
Zn  Zn1  1  0.61646581  0.26969309  0.16474955  1  0  0.925986  0  2.062031  0  0  0.744482  0  2.554375  0  0  0.785852  0  2.503379  0  0  0.611077  0.715759  0  2.589375  0
Zn  Zn2  1  0.26969269  0.61646456  0.66474959  1  0  0.925998  0  2.062031  0  0  0.74449  0  2.554369  0  0  0.785863  0  2.503376  0  0  0.611099  0.715778  0  2.589374  0
Zn  Zn3  1  0.38353644  0.73030631  0.83525022  1  0  0.925981  0  2.062046  0  0  0.744471  0  2.554385  0  0  0.785839  0  2.503387  0  0  0.611081  0.715758  0  2.589391  0
H  H4  1  0.93700258  0.06299579  0.25000056  1  0  0.388466  0  0.936451  0  0  0.348333  0  1.016539  0  0  0.359057  0  1.001538  0  0  0.262051  0.340541  0  1.027412  0
H  H5  1  0.06299609  0.93700206  0.75000026  1  0  0.388466  0  0.93644  0  0  0.34833  0  1.016538  0  0  0.359052  0  1.001539  0  0  0.26205  0.340535  0  1.027414  0
H  H6  1  0.74862337  0.96354606  0.39283471  1  0  0.092095  0  0.953197  0  0  0.097998  0  1.020043  0  0  0.10117  0  1.016959  0  0  0.110498  0.095618  0  1.022281  0
H  H7  1  0.03645219  0.25137750  0.10716639  1  0  0.092092  0  0.953204  0  0  0.098  0  1.020046  0  0  0.101173  0  1.016961  0  0  0.110501  0.095619  0  1.022284  0
H  H8  1  0.25137872  0.03645027  0.60716532  1  0  0.092106  0  0.953193  0  0  0.098011  0  1.020028  0  0  0.101185  0  1.016944  0  0  0.11052  0.095635  0  1.022268  0
H  H9  1  0.96354601  0.74862496  0.89283410  1  0  0.0921  0  0.953196  0  0  0.098003  0  1.020043  0  0  0.101176  0  1.016958  0  0  0.110505  0.095626  0  1.022282  0
H  H10  1  0.79465246  0.72147134  0.53060124  1  0  0.109132  0  0.958606  0  0  0.115042  0  1.02523  0  0  0.11849  0  1.023979  0  0  0.099266  0.112527  0  1.026332  0
H  H11  1  0.27852997  0.20534530  0.96940011  1  0  0.109129  0  0.958592  0  0  0.115046  0  1.025213  0  0  0.118496  0  1.023962  0  0  0.099256  0.112529  0  1.026316  0
H  H12  1  0.20535259  0.27852806  0.46939959  1  0  0.109165  0  0.95853  0  0  0.115067  0  1.025158  0  0  0.118509  0  1.023903  0  0  0.099274  0.112548  0  1.02626  0
H  H13  1  0.72147150  0.79465256  0.03060049  1  0  0.109138  0  0.958618  0  0  0.115056  0  1.02523  0  0  0.118504  0  1.023978  0  0  0.099275  0.112538  0  1.026333  0
H  H14  1  0.76699159  0.85433612  0.67285355  1  0  0.111865  0  0.945185  0  0  0.118628  0  1.01141  0  0  0.122183  0  1.008065  0  0  0.106279  0.115944  0  1.013987  0
H  H15  1  0.14567044  0.23300160  0.82714767  1  0  0.111858  0  0.94519  0  0  0.11862  0  1.01142  0  0  0.122175  0  1.008076  0  0  0.106292  0.115937  0  1.014  0
H  H16  1  0.23300675  0.14566941  0.32714668  1  0  0.111849  0  0.945151  0  0  0.118599  0  1.01139  0  0  0.122155  0  1.008045  0  0  0.10626  0.115913  0  1.013969  0
H  H17  1  0.85433367  0.76699319  0.17285360  1  0  0.111888  0  0.945164  0  0  0.118641  0  1.011401  0  0  0.122196  0  1.008056  0  0  0.10628  0.115956  0  1.013976  0
H  H18  1  0.68427473  0.44080300  0.52421754  1  0  0.080203  0  0.956422  0  0  0.085  0  1.029981  0  0  0.087667  0  1.027653  0  0  0.112803  0.082989  0  1.031783  0
H  H19  1  0.55919767  0.31572598  0.97578177  1  0  0.080149  0  0.956382  0  0  0.084941  0  1.029965  0  0  0.08761  0  1.027635  0  0  0.112773  0.08293  0  1.031768  0
H  H20  1  0.31571926  0.55919947  0.47578137  1  0  0.080138  0  0.956362  0  0  0.084933  0  1.029947  0  0  0.087601  0  1.027617  0  0  0.112777  0.082921  0  1.031748  0
H  H21  1  0.44080318  0.68427342  0.02421747  1  0  0.080203  0  0.956349  0  0  0.084947  0  1.029967  0  0  0.087614  0  1.027638  0  0  0.112793  0.082938  0  1.031763  0
C  C22  1  0.74003678  0.01462038  0.45555297  1  0  0.132308  0  3.667763  0  0  0.099867  0  3.914108  0  0  0.107292  0  3.932751  0  0  0.046962  0.095241  0  3.901353  0
C  C23  1  0.98538283  0.25996183  0.04444640  1  0  0.132311  0  3.667794  0  0  0.099853  0  3.914159  0  0  0.107279  0  3.932799  0  0  0.046944  0.095225  0  3.901403  0
C  C24  1  0.25996423  0.98538209  0.54444537  1  0  0.132373  0  3.667719  0  0  0.099937  0  3.914059  0  0  0.107364  0  3.932698  0  0  0.046959  0.095305  0  3.901311  0
C  C25  1  0.01461943  0.74003757  0.95555273  1  0  0.132292  0  3.667794  0  0  0.099842  0  3.914155  0  0  0.107268  0  3.932795  0  0  0.046941  0.095208  0  3.901409  0
C  C26  1  0.76349157  0.88149999  0.53276672  1  0  -0.105706  0  3.72629  0  0  -0.116826  0  3.977414  0  0  -0.124919  0  4.000049  0  0  -0.080665  -0.111711  0  3.962254  0
C  C27  1  0.11849823  0.23650643  0.96723413  1  0  -0.105706  0  3.726333  0  0  -0.11683  0  3.977442  0  0  -0.124927  0  4.00008  0  0  -0.080653  -0.111711  0  3.96228  0
C  C28  1  0.23651192  0.11849633  0.46723384  1  0  -0.105826  0  3.726345  0  0  -0.116953  0  3.977499  0  0  -0.125039  0  4.000127  0  0  -0.080709  -0.111833  0  3.962338  0
C  C29  1  0.88150121  0.76349297  0.03276714  1  0  -0.105719  0  3.726396  0  0  -0.116846  0  3.977526  0  0  -0.124938  0  4.000159  0  0  -0.080672  -0.111728  0  3.962365  0
C  C30  1  0.75095613  0.95436638  0.61111772  1  0  -0.014949  0  3.644184  0  0  -0.042164  0  3.88731  0  0  -0.037615  0  3.903144  0  0  -0.053596  -0.044826  0  3.876638  0
C  C31  1  0.04563549  0.24904247  0.88888275  1  0  -0.014957  0  3.644255  0  0  -0.042182  0  3.887376  0  0  -0.037632  0  3.903209  0  0  -0.053614  -0.044842  0  3.876699  0
C  C32  1  0.24904330  0.04563301  0.38888483  1  0  -0.01486  0  3.644184  0  0  -0.042066  0  3.887295  0  0  -0.037512  0  3.903121  0  0  -0.053556  -0.044726  0  3.876615  0
C  C33  1  0.95436598  0.75095540  0.11111657  1  0  -0.014993  0  3.644267  0  0  -0.04222  0  3.887375  0  0  -0.037671  0  3.903209  0  0  -0.053605  -0.044874  0  3.876687  0
C  C34  1  0.71544011  0.16084464  0.60979538  1  0  -0.03348  0  3.769127  0  0  -0.010909  0  4.003512  0  0  -0.01761  0  4.026328  0  0  0.005857  -0.006946  0  3.988301  0
C  C35  1  0.83915612  0.28456069  0.89020469  1  0  -0.033448  0  3.769206  0  0  -0.010852  0  4.003538  0  0  -0.01755  0  4.026351  0  0  0.005885  -0.00689  0  3.988331  0
C  C36  1  0.28455871  0.83915629  0.39020455  1  0  -0.033541  0  3.769212  0  0  -0.010948  0  4.00357  0  0  -0.01765  0  4.026387  0  0  0.005851  -0.006977  0  3.988349  0
C  C37  1  0.16084410  0.71544024  0.10979576  1  0  -0.033511  0  3.769226  0  0  -0.010862  0  4.003493  0  0  -0.017562  0  4.026308  0  0  0.005844  -0.006899  0  3.988284  0
C  C38  1  0.69935387  0.28309870  0.52938028  1  0  0.087193  0  3.69701  0  0  0.046486  0  3.949083  0  0  0.053635  0  3.966059  0  0  0.047097  0.041997  0  3.93757  0
C  C39  1  0.71690563  0.30064571  0.97061953  1  0  0.087251  0  3.696986  0  0  0.046558  0  3.949006  0  0  0.053694  0  3.966004  0  0  0.047114  0.042068  0  3.937493  0
C  C40  1  0.30064308  0.71690684  0.47061878  1  0  0.087291  0  3.696982  0  0  0.046577  0  3.949047  0  0  0.053718  0  3.966044  0  0  0.047116  0.042086  0  3.937534  0
C  C41  1  0.28309802  0.69935369  0.02938012  1  0  0.087196  0  3.696919  0  0  0.046511  0  3.948973  0  0  0.053658  0  3.965951  0  0  0.047096  0.04202  0  3.937462  0
C  C42  1  0.69834279  0.24915514  0.68960907  1  0  0.328375  0  3.789572  0  0  0.296334  0  4.059213  0  0  0.310226  0  4.076027  0  0  0.220824  0.287349  0  4.047608  0
C  C43  1  0.75084529  0.30165694  0.81039043  1  0  0.32839  0  3.78964  0  0  0.296336  0  4.059274  0  0  0.310228  0  4.076088  0  0  0.220871  0.287352  0  4.047669  0
C  C44  1  0.30165541  0.75084733  0.31039014  1  0  0.328438  0  3.789458  0  0  0.296368  0  4.059127  0  0  0.310261  0  4.075939  0  0  0.220839  0.287376  0  4.047523  0
C  C45  1  0.24915416  0.69834246  0.18960829  1  0  0.328516  0  3.789521  0  0  0.296449  0  4.059151  0  0  0.31034  0  4.075969  0  0  0.220863  0.287459  0  4.047545  0
N  N46  1  0.71025481  0.21188518  0.45409985  1  0  -0.331231  0  3.34975  0  0  -0.242787  0  3.623002  0  0  -0.262488  0  3.639622  0  0  -0.334277  -0.229567  0  3.611546  0
N  N47  1  0.78811556  0.28974419  0.04590023  1  0  -0.331229  0  3.349697  0  0  -0.242787  0  3.62296  0  0  -0.262484  0  3.639572  0  0  -0.334263  -0.229567  0  3.611503  0
N  N48  1  0.28974183  0.78811422  0.54589909  1  0  -0.331264  0  3.349659  0  0  -0.242818  0  3.622922  0  0  -0.26252  0  3.63954  0  0  -0.334274  -0.229601  0  3.611475  0
N  N49  1  0.21188389  0.71025521  0.95409977  1  0  -0.331208  0  3.349711  0  0  -0.242759  0  3.622951  0  0  -0.262458  0  3.639568  0  0  -0.334262  -0.229542  0  3.611505  0
N  N50  1  0.83233635  0.16766507  0.74999969  1  0  -0.440473  0  2.995692  0  0  -0.389761  0  3.25005  0  0  -0.408357  0  3.262197  0  0  -0.312528  -0.377081  0  3.241681  0
N  N51  1  0.16766590  0.83233433  0.24999944  1  0  -0.440517  0  2.995677  0  0  -0.389795  0  3.250035  0  0  -0.40839  0  3.262181  0  0  -0.312485  -0.377116  0  3.241666  0
N  N52  1  0.54207642  0.42522561  0.71093232  1  0  -0.314789  0  3.213041  0  0  -0.248121  0  3.501425  0  0  -0.265845  0  3.517132  0  0  -0.252497  -0.236209  0  3.490846  0
N  N53  1  0.57477529  0.45792221  0.78906837  1  0  -0.314852  0  3.213104  0  0  -0.248184  0  3.501504  0  0  -0.265906  0  3.517207  0  0  -0.252534  -0.236274  0  3.490929  0
N  N54  1  0.45792100  0.57477532  0.28906836  1  0  -0.314856  0  3.212975  0  0  -0.248187  0  3.501382  0  0  -0.265907  0  3.517084  0  0  -0.252529  -0.236278  0  3.490808  0
N  N55  1  0.42522618  0.54207565  0.21093223  1  0  -0.314836  0  3.212975  0  0  -0.248168  0  3.501367  0  0  -0.26589  0  3.517073  0  0  -0.252509  -0.236256  0  3.490786  0
Cl  Cl56  1  0.89700492  0.56602116  0.35470936  1  0  -0.571073  0  0.925211  0  0  -0.507742  0  1.203101  0  0  -0.524248  0  1.180662  0  0  -0.312634  -0.495718  0  1.218503  0
Cl  Cl57  1  0.43398074  0.10299229  0.14529198  1  0  -0.571071  0  0.925207  0  0  -0.507743  0  1.203102  0  0  -0.524249  0  1.180664  0  0  -0.312635  -0.495721  0  1.218505  0
Cl  Cl58  1  0.10299312  0.43397823  0.64529203  1  0  -0.571065  0  0.925192  0  0  -0.507743  0  1.203088  0  0  -0.524249  0  1.18065  0  0  -0.312628  -0.495717  0  1.218491  0
Cl  Cl59  1  0.56602276  0.89700403  0.85470858  1  0  -0.571062  0  0.925211  0  0  -0.507737  0  1.20311  0  0  -0.524241  0  1.18067  0  0  -0.312626  -0.495712  0  1.218514  0
O  O60  1  0.80866093  0.19133807  0.25000046  1  0  -0.939852  0  1.936725  0  0  -0.829138  0  2.249715  0  0  -0.858275  0  2.208547  0  0  -0.603554  -0.808346  0  2.278088  0
O  O61  1  0.19133710  0.80866132  0.75000029  1  0  -0.939851  0  1.936742  0  0  -0.829109  0  2.249687  0  0  -0.858245  0  2.208521  0  0  -0.603549  -0.808322  0  2.278077  0
