# generated using pymatgen
data_CuH2C2N8O
_symmetry_space_group_name_H-M   'P 1'
_cell_length_a   6.80426940
_cell_length_b   6.80395197
_cell_length_c   7.74823808
_cell_angle_alpha   105.76545548
_cell_angle_beta   106.55622921
_cell_angle_gamma   111.47214545
_symmetry_Int_Tables_number   1
_chemical_formula_structural   CuH2C2N8O
_chemical_formula_sum   'Cu2 H4 C4 N16 O2'
_cell_volume   290.15915011
_cell_formula_units_Z   2
loop_
 _symmetry_equiv_pos_site_id
 _symmetry_equiv_pos_as_xyz
  1  'x, y, z'
loop_
 _atom_site_type_symbol
 _atom_site_label
 _atom_site_symmetry_multiplicity
 _atom_site_fract_x
 _atom_site_fract_y
 _atom_site_fract_z
 _atom_site_occupancy
 _atom_site_hle17_ddec_charge
 _atom_site_hle17_ddec_spin_density
 _atom_site_hle17_ddec_sum_bond_order
 _atom_site_hle17_magmom
 _atom_site_hse06_10hf_ddec_charge
 _atom_site_hse06_10hf_ddec_spin_density
 _atom_site_hse06_10hf_ddec_sum_bond_order
 _atom_site_hse06_10hf_magmom
 _atom_site_hse06_ddec_charge
 _atom_site_hse06_ddec_spin_density
 _atom_site_hse06_ddec_sum_bond_order
 _atom_site_hse06_magmom
 _atom_site_pbe_cm5_charge
 _atom_site_pbe_ddec_charge
 _atom_site_pbe_ddec_spin_density
 _atom_site_pbe_ddec_sum_bond_order
 _atom_site_pbe_magmom
Cu  Cu0  1  0.50000022  0.99999976  0.99999964  1  0.761001  -0.706163  1.918844  -0.524  0.712624  -0.792822  2.308811  -0.634  0.786935  -0.868083  2.256996  -0.713  0.81044  0.665822  -0.715022  2.344353  -0.564
Cu  Cu1  1  0.49999962  0.49999860  0.49999902  1  0.760957  0.706288  1.91755  0.524  0.713645  0.79291  2.306205  0.634  0.787486  0.868178  2.255233  0.713  0.810426  0.666883  0.715103  2.341723  0.564
H  H2  1  0.34913315  0.47283367  0.80149533  1  0.412618  4.3e-05  0.871961  0.0  0.377402  3.2e-05  0.960184  0.0  0.388437  2.2e-05  0.943864  0.0  0.295623  0.369828  3.9e-05  0.97141  0.0
H  H3  1  0.17162832  0.54760933  0.69862440  1  0.411289  -4.4e-05  0.873391  0.0  0.376147  -3.1e-05  0.961926  0.0  0.387186  -2.1e-05  0.945604  0.0  0.294965  0.368564  -3.9e-05  0.973167  0.0
H  H4  1  0.65086777  0.52716700  0.19850785  1  0.412636  4.4e-05  0.871954  0.0  0.377422  3.2e-05  0.960162  0.0  0.388458  2.2e-05  0.943841  0.0  0.295633  0.369848  3.9e-05  0.971389  0.0
H  H5  1  0.82837090  0.45238786  0.30137880  1  0.411299  -4.4e-05  0.87336  0.0  0.37616  -3.2e-05  0.961904  0.0  0.387202  -2.1e-05  0.945579  0.0  0.294973  0.36858  -3.9e-05  0.973142  0.0
C  C6  1  0.75042077  0.12895962  0.73589978  1  0.238142  0.004123  3.764546  0.004  0.221301  0.000888  4.039031  0.001  0.231951  0.001461  4.051919  0.002  0.229021  0.214061  0.000511  4.030638  0.0
C  C7  1  0.89306357  0.01440369  0.76410443  1  0.23753  -0.004113  3.767685  -0.004  0.219001  -0.000889  4.043826  -0.001  0.229913  -0.001466  4.056423  -0.002  0.228777  0.211579  -0.000513  4.035608  0.0
C  C8  1  0.24957305  0.87105160  0.26409250  1  0.238199  0.004133  3.764388  0.004  0.221371  0.000891  4.03885  0.001  0.232026  0.001464  4.051738  0.002  0.229039  0.214123  0.000513  4.030466  0.0
C  C9  1  0.10694551  0.98559169  0.23589953  1  0.237518  -0.004139  3.767809  -0.004  0.219016  -0.00089  4.043893  -0.001  0.229914  -0.001469  4.056515  -0.002  0.228704  0.211599  -0.000515  4.035671  0.0
N  N10  1  0.51504695  0.26569681  0.75976921  1  -0.045244  -0.001299  2.968898  -0.001  -0.033267  -0.00031  3.262823  0.0  -0.028983  -0.000701  3.278092  0.0  -0.076685  -0.036102  2e-06  3.253102  0.001
N  N11  1  0.00601338  0.75524451  0.74021824  1  -0.049228  0.001312  2.972665  0.001  -0.037512  0.00031  3.266754  0.0  -0.033256  0.00071  3.282065  0.0  -0.07848  -0.040324  0.0  3.257013  -0.001
N  N12  1  0.48495313  0.73430213  0.24023075  1  -0.04519  -0.001308  2.968846  -0.001  -0.03321  -0.000311  3.262767  0.0  -0.028929  -0.000703  3.278038  0.0  -0.076659  -0.036043  1e-06  3.253045  0.001
N  N13  1  0.99398517  0.24475444  0.25978135  1  -0.049122  0.001295  2.972705  0.001  -0.037422  0.000311  3.266782  0.0  -0.033164  0.000707  3.28209  0.0  -0.078401  -0.040233  -0.0  3.257041  -0.001
N  N14  1  0.60171070  0.32292094  0.63860828  1  -0.071732  0.068956  3.303337  0.088  -0.045427  0.050111  3.634577  0.068  -0.065663  0.04348  3.655773  0.061  -0.127112  -0.032506  0.051674  3.620929  0.068
N  N15  1  0.18434833  0.96307860  0.86139556  1  -0.069166  -0.069001  3.304375  -0.088  -0.042068  -0.050128  3.634587  -0.068  -0.062387  -0.043494  3.655866  -0.061  -0.125868  -0.029173  -0.051685  3.620891  -0.068
N  N16  1  0.39828938  0.67707800  0.36139039  1  -0.071792  0.068973  3.303327  0.088  -0.045464  0.05011  3.634551  0.068  -0.065698  0.043475  3.655747  0.061  -0.127173  -0.032545  0.051672  3.620904  0.068
N  N17  1  0.81565107  0.03692209  0.13860336  1  -0.069215  -0.068992  3.304427  -0.088  -0.042106  -0.050127  3.634643  -0.068  -0.06243  -0.043494  3.655925  -0.061  -0.125903  -0.02921  -0.051683  3.620948  -0.068
N  N18  1  0.60626716  0.14183735  0.82344809  1  -0.262443  -0.071049  3.221244  -0.091  -0.243789  -0.051729  3.544523  -0.07  -0.271279  -0.044191  3.563673  -0.062  -0.233157  -0.226123  -0.054033  3.532306  -0.071
N  N19  1  0.81844163  0.78273527  0.67652179  1  -0.259754  0.07103  3.222751  0.091  -0.240876  0.05171  3.545962  0.07  -0.268287  0.044165  3.565036  0.062  -0.232391  -0.223192  0.054016  3.533809  0.071
N  N20  1  0.39373445  0.85816158  0.17655097  1  -0.262439  -0.07105  3.221233  -0.091  -0.243809  -0.051734  3.544528  -0.07  -0.271298  -0.044188  3.563678  -0.062  -0.233133  -0.226142  -0.054038  3.532314  -0.071
N  N21  1  0.18155931  0.21726542  0.32347622  1  -0.259836  0.071053  3.22271  0.091  -0.240954  0.051711  3.545898  0.07  -0.26836  0.044169  3.564974  0.062  -0.232427  -0.223269  0.054019  3.533742  0.071
N  N22  1  0.75057340  0.24255681  0.61956913  1  -0.23846  -0.005148  2.894891  -0.006  -0.232329  -0.000526  3.177396  0.0  -0.239087  -0.0011  3.191781  -0.001  -0.200859  -0.227758  -0.000231  3.167936  0.0
N  N23  1  0.12298319  0.13095043  0.88044399  1  -0.23958  0.005128  2.895829  0.006  -0.233225  0.000519  3.178637  0.0  -0.240054  0.001092  3.193003  0.001  -0.201749  -0.228599  0.00022  3.169213  0.0
N  N24  1  0.24942668  0.75744213  0.38043212  1  -0.238484  -0.005174  2.894415  -0.006  -0.232378  -0.000529  3.17693  0.0  -0.239137  -0.001105  3.191312  -0.001  -0.200841  -0.227807  -0.000234  3.167471  0.0
N  N25  1  0.87701452  0.86904678  0.11955239  1  -0.239567  0.005148  2.895646  0.006  -0.233235  0.000521  3.178442  0.0  -0.240061  0.001096  3.192818  0.001  -0.201706  -0.228609  0.000223  3.169014  0.0
O  O26  1  0.33737140  0.58717883  0.75007798  1  -0.82496  -1e-06  1.902245  0.0  -0.798497  -1e-06  2.138779  0.0  -0.815705  -1e-06  2.099365  0.0  -0.582521  -0.786613  0.0  2.166446  0.0
O  O27  1  0.66262868  0.41282011  0.24992457  1  -0.824978  -0.0  1.90221  0.0  -0.79852  1e-06  2.138737  0.0  -0.81573  -0.0  2.099325  0.0  -0.582532  -0.786639  0.0  2.166407  0.0
