# generated using pymatgen
data_Zr6H25C52N5O48
_symmetry_space_group_name_H-M   'P 1'
_cell_length_a   14.75996487
_cell_length_b   14.75795236
_cell_length_c   14.80104565
_cell_angle_alpha   59.96026688
_cell_angle_beta   59.84046623
_cell_angle_gamma   59.94415517
_symmetry_Int_Tables_number   1
_chemical_formula_structural   Zr6H25C52N5O48
_chemical_formula_sum   'Zr6 H25 C52 N5 O48'
_cell_volume   2275.35481287
_cell_formula_units_Z   1
loop_
 _symmetry_equiv_pos_site_id
 _symmetry_equiv_pos_as_xyz
  1  'x, y, z'
loop_
 _atom_site_type_symbol
 _atom_site_label
 _atom_site_symmetry_multiplicity
 _atom_site_fract_x
 _atom_site_fract_y
 _atom_site_fract_z
 _atom_site_occupancy
 _atom_site_pbe_bader_charge
 _atom_site_pbe_bader_spin_density
 _atom_site_pbe_cm5_charge
 _atom_site_pbe_ddec_charge
 _atom_site_pbe_ddec_spin_density
 _atom_site_pbe_ddec_sum_bond_order
 _atom_site_pbe_magmom
Zr  Zr0  1  0.86617910  0.88697790  0.62092677  1  2.632072  0  1.621811  2.368538  0  2.738416  0
Zr  Zr1  1  0.10720216  0.12434571  0.38475809  1  2.639875  0  1.635464  2.37624  0  2.757794  0
Zr  Zr2  1  0.10464924  0.88549585  0.62355433  1  2.63363  0  1.632075  2.376461  0  2.750043  0
Zr  Zr3  1  0.86787970  0.12827090  0.38260898  1  2.629987  0  1.622952  2.369398  0  2.739911  0
Zr  Zr4  1  0.10582568  0.88747689  0.38229849  1  2.637662  0  1.633993  2.37279  0  2.745596  0
Zr  Zr5  1  0.86608128  0.12539655  0.62393322  1  2.639684  0  1.634998  2.377302  0  2.749986  0
H  H6  1  0.08157596  0.72153352  0.59304551  1  0.599154  0  0.321514  0.413462  0  0.884114  0
H  H7  1  0.08274423  0.10342853  0.21856907  1  0.6254  0  0.31648  0.409057  0  0.910649  0
H  H8  1  0.08141823  0.09856122  0.59911597  1  0.590608  0  0.333252  0.430095  0  0.847764  0
H  H9  1  0.70267174  0.10203854  0.59727416  1  0.629555  0  0.332544  0.424913  0  0.855214  0
H  H10  1  0.80098209  0.64981605  0.56701945  1  0.114363  0  0.117461  0.125818  0  0.976017  0
H  H11  1  0.15719846  0.55340186  0.41035074  1  0.182811  0  0.121931  0.147955  0  1.016234  0
H  H12  1  0.80494829  0.47618234  0.56996212  1  0.098536  0  0.119797  0.126359  0  0.975136  0
H  H13  1  0.58398400  0.84403668  0.93416518  1  0.096287  0  0.117177  0.125118  0  0.977981  0
H  H14  1  0.57385654  0.14970399  0.91520764  1  0.144961  0  0.121861  0.14404  0  0.989831  0
H  H15  1  0.41301183  0.84795712  0.10339337  1  0.121654  0  0.115494  0.128978  0  1.003311  0
H  H16  1  0.11279429  0.84298757  0.10546862  1  0.131988  0  0.122699  0.131119  0  0.966658  0
H  H17  1  0.82568355  0.13970871  0.10229251  1  0.119829  0  0.122854  0.138626  0  0.969611  0
H  H18  1  0.11357489  0.84604533  0.93467593  1  0.137907  0  0.118824  0.129003  0  0.985363  0
H  H19  1  0.58248484  0.43678652  0.63638707  1  0.118035  0  0.118727  0.127099  0  0.977435  0
H  H20  1  0.57959803  0.42402192  0.35371690  1  0.109569  0  0.125963  0.144953  0  0.968991  0
H  H21  1  0.41160787  0.60637091  0.63396707  1  0.132908  0  0.117717  0.13233  0  0.993821  0
H  H22  1  0.57863909  0.14271779  0.34554824  1  0.108674  0  0.117769  0.126877  0  0.974366  0
H  H23  1  0.57236744  0.86457787  0.64889853  1  0.118024  0  0.121723  0.139199  0  0.97811  0
H  H24  1  0.41033780  0.13664975  0.34904972  1  0.162246  0  0.117358  0.129703  0  1.004969  0
H  H25  1  0.06351641  0.41217465  0.21026437  1  0.647553  0  0.317892  0.363138  0  0.931336  0
H  H26  1  0.05700011  0.71666181  0.90212878  1  0.639305  0  0.314184  0.35555  0  0.956108  0
H  H27  1  0.98567531  0.17720900  0.12276215  1  0.656717  0  0.31105  0.340725  0  0.969927  0
H  H28  1  0.08896934  0.19053141  0.80819561  1  0.61968  0  0.334028  0.371502  0  0.876441  0
H  H29  1  0.05609170  0.43306895  0.64513508  1  0.608566  0  0.313146  0.347085  0  0.944267  0
H  H30  1  0.96752595  0.62495225  0.71057736  1  0.637047  0  0.307048  0.349976  0  0.978993  0
C  C31  1  0.97977805  0.71093823  0.49171818  1  1.562753  0  0.241675  0.647519  0  4.089743  0
C  C32  1  0.29388433  0.00115064  0.20303226  1  1.570219  0  0.244105  0.654132  0  4.086398  0
C  C33  1  0.98297490  0.31215151  0.50175926  1  1.605486  0  0.24035  0.645468  0  4.11549  0
C  C34  1  0.68787656  0.99840822  0.81157043  1  1.540847  0  0.242866  0.646372  0  4.087035  0
C  C35  1  0.99078831  0.69268246  0.80504544  1  1.475338  0  0.232482  0.653431  0  4.067413  0
C  C36  1  0.68449234  0.00700848  0.49817615  1  1.566717  0  0.239213  0.639818  0  4.095323  0
C  C37  1  0.99468255  0.30754405  0.19557738  1  1.518048  0  0.237019  0.66492  0  4.085815  0
C  C38  1  0.29431697  0.99950143  0.50063406  1  1.594877  0  0.241658  0.650956  0  4.092642  0
C  C39  1  0.29367924  0.70666667  0.49927354  1  1.579368  0  0.241407  0.650817  0  4.097056  0
C  C40  1  0.97852371  0.99759244  0.81550510  1  1.581604  0  0.240329  0.646808  0  4.100844  0
C  C41  1  0.68941849  0.31693067  0.49801883  1  1.575719  0  0.241471  0.641231  0  4.09885  0
C  C42  1  0.97650721  0.99767219  0.20766233  1  1.562449  0  0.244368  0.641927  0  4.082155  0
C  C43  1  0.98226340  0.41532859  0.49846002  1  -0.027519  0  0.003373  -0.063415  0  3.919964  0
C  C44  1  0.97829082  0.61222818  0.48824659  1  0.014706  0  -0.003746  -0.018634  0  3.956758  0
C  C45  1  0.08051275  0.43846724  0.45439196  1  0.162299  0  0.091313  0.067263  0  3.906494  0
C  C46  1  0.87910215  0.59068776  0.53357164  1  -0.027959  0  -0.066756  -0.080202  0  3.933571  0
C  C47  1  0.07988558  0.53705416  0.44521825  1  0.030333  0  -0.066883  -0.146415  0  3.90539  0
C  C48  1  0.88130423  0.49385809  0.53635156  1  0.043501  0  -0.063022  -0.0621  0  3.925273  0
C  C49  1  0.39616775  0.00109682  0.10301769  1  0.102234  0  0.00017  -0.07418  0  3.912656  0
C  C50  1  0.58797586  0.99721614  0.91404877  1  -0.023936  0  -0.005332  -0.018199  0  3.955937  0
C  C51  1  0.44319992  0.08520057  0.04884024  1  0.139057  0  0.092332  0.071578  0  3.916072  0
C  C52  1  0.54346155  0.91162995  0.96705936  1  0.027242  0  -0.070209  -0.082364  0  3.938781  0
C  C53  1  0.53801050  0.08429032  0.95562046  1  0.074987  0  -0.068375  -0.138043  0  3.914495  0
C  C54  1  0.44856695  0.91394342  0.06060371  1  -0.059465  0  -0.065723  -0.062802  0  3.922346  0
C  C55  1  0.97154552  0.99432898  0.92133347  1  0.004649  0  -0.002785  -0.083246  0  3.917149  0
C  C56  1  0.96991961  0.99142787  0.11361060  1  0.012629  0  -0.001328  -0.015408  0  3.948252  0
C  C57  1  0.89027028  0.07536167  0.97133376  1  0.24381  0  0.090561  0.06854  0  3.926622  0
C  C58  1  0.04995733  0.90757282  0.06755491  1  -0.00183  0  -0.061154  -0.063997  0  3.900021  0
C  C59  1  0.88803899  0.07453956  0.06649303  1  -0.008319  0  -0.069136  -0.137719  0  3.930169  0
C  C60  1  0.05026035  0.90934634  0.97265316  1  -0.019923  0  -0.059922  -0.05098  0  3.906226  0
C  C61  1  0.39788288  0.60862167  0.49532416  1  -0.029913  0  -0.001617  -0.078899  0  3.920489  0
C  C62  1  0.59040963  0.42035124  0.49567315  1  -0.08751  0  -0.003701  -0.013517  0  3.95583  0
C  C63  1  0.44734148  0.55651043  0.41636059  1  0.17662  0  0.090941  0.067878  0  3.929732  0
C  C64  1  0.54393076  0.47160541  0.57450796  1  0.032503  0  -0.068607  -0.083538  0  3.934666  0
C  C65  1  0.54258194  0.46384263  0.41518897  1  0.112945  0  -0.069242  -0.142809  0  3.928047  0
C  C66  1  0.44886732  0.56502303  0.57369393  1  0.008186  0  -0.063454  -0.059018  0  3.917395  0
C  C67  1  0.01119978  0.58420064  0.89316171  1  -0.000558  0  -0.03921  -0.216184  0  3.966118  0
C  C68  1  0.01434544  0.48515168  0.89310578  1  0.041313  0  -0.027119  -0.03813  0  4.064353  0
C  C69  1  0.03163900  0.57943058  0.97885768  1  0.569314  0  0.093198  0.22379  0  4.010638  0
C  C70  1  0.02820421  0.47383533  0.79698896  1  0.52576  0  0.04625  0.126851  0  4.098056  0
C  C71  1  0.04820252  0.37230185  0.79535835  1  0.473449  0  0.052335  0.096314  0  4.151625  0
C  C72  1  0.01469780  0.39452959  0.08542824  1  0.030015  0  -0.030353  -0.191212  0  3.957215  0
C  C73  1  0.03207136  0.48373109  0.07673060  1  0.598367  0  0.089429  0.213135  0  4.026651  0
C  C74  1  0.01899507  0.38775317  0.99003665  1  0.039866  0  -0.020985  -0.028545  0  4.052319  0
C  C75  1  0.04180285  0.28441995  0.98509593  1  0.532489  0  0.051576  0.130988  0  4.037564  0
C  C76  1  0.05742349  0.27596803  0.88861511  1  0.545138  0  0.061282  0.118134  0  4.136061  0
C  C77  1  0.39624190  0.99835960  0.50016336  1  0.088462  0  -0.000751  -0.07612  0  3.909776  0
C  C78  1  0.58536264  0.00410395  0.49695053  1  0.008375  0  -0.005808  -0.014711  0  3.956957  0
C  C79  1  0.44353192  0.92223214  0.58378084  1  0.145551  0  0.088575  0.066939  0  3.929294  0
C  C80  1  0.54027439  0.08065452  0.41210703  1  -0.001524  0  -0.068157  -0.079875  0  3.924045  0
C  C81  1  0.53693764  0.92386631  0.58316708  1  0.017883  0  -0.074462  -0.151425  0  3.943022  0
C  C82  1  0.44684043  0.07738165  0.41396619  1  -0.0518  0  -0.060916  -0.052393  0  3.917243  0
N  N83  1  0.19066274  0.35273139  0.42785373  1  0.41678  0  0.062743  0.521871  0  4.209226  0
N  N84  1  0.39409523  0.18127471  0.08645768  1  0.410385  0  0.061916  0.520744  0  4.240789  0
N  N85  1  0.80475213  0.17055380  0.92320721  1  0.398086  0  0.060728  0.519693  0  4.241435  0
N  N86  1  0.40063287  0.59463889  0.33016778  1  0.423932  0  0.065218  0.526176  0  4.235521  0
N  N87  1  0.39672736  0.83572504  0.67923967  1  0.423104  0  0.063609  0.527879  0  4.233331  0
O  O88  1  0.90039236  0.75158139  0.56736356  1  -1.182094  0  -0.353802  -0.627309  0  2.289497  0
O  O89  1  0.25462408  0.07660610  0.24414894  1  -1.170207  0  -0.347961  -0.609535  0  2.325785  0
O  O90  1  0.05987355  0.27309145  0.42461435  1  -1.176894  0  -0.350269  -0.615931  0  2.31297  0
O  O91  1  0.72854209  0.92090535  0.77212055  1  -1.175403  0  -0.356299  -0.620778  0  2.265052  0
O  O92  1  0.05122520  0.74982849  0.77386883  1  -1.185311  0  -0.35859  -0.634931  0  2.33475  0
O  O93  1  0.72323309  0.08479589  0.42219692  1  -1.179539  0  -0.349448  -0.612435  0  2.270609  0
O  O94  1  0.91215077  0.27494677  0.23688045  1  -1.173513  0  -0.35375  -0.62093  0  2.259606  0
O  O95  1  0.25344076  0.92351184  0.57814616  1  -1.181072  0  -0.352058  -0.617619  0  2.315132  0
O  O96  1  0.25415379  0.74647222  0.42270880  1  -1.170576  0  -0.347765  -0.610119  0  2.321642  0
O  O97  1  0.90454066  0.07621851  0.77286769  1  -1.173798  0  -0.3507  -0.613406  0  2.328  0
O  O98  1  0.72593708  0.27541932  0.57729660  1  -1.17788  0  -0.349783  -0.612108  0  2.279977  0
O  O99  1  0.05433867  0.92334433  0.24558286  1  -1.169562  0  -0.33764  -0.589886  0  2.284623  0
O  O100  1  0.05873248  0.92280520  0.77439995  1  -1.17883  0  -0.346402  -0.609789  0  2.277639  0
O  O101  1  0.72831644  0.27678067  0.42179318  1  -1.176571  0  -0.353104  -0.611409  0  2.279731  0
O  O102  1  0.90502449  0.08170044  0.24049643  1  -1.200978  0  -0.355557  -0.639983  0  2.300615  0
O  O103  1  0.25170758  0.74201633  0.57960090  1  -1.173488  0  -0.348103  -0.604534  0  2.273288  0
O  O104  1  0.91377053  0.72888512  0.76562691  1  -1.18663  0  -0.344617  -0.62037  0  2.253252  0
O  O105  1  0.25492571  0.07698957  0.42435828  1  -1.172778  0  -0.34519  -0.599653  0  2.303264  0
O  O106  1  0.06072391  0.27408677  0.24726995  1  -1.18672  0  -0.359813  -0.635339  0  2.319012  0
O  O107  1  0.72201657  0.93152457  0.57686868  1  -1.180213  0  -0.356096  -0.616477  0  2.293465  0
O  O108  1  0.72416012  0.07837162  0.76943456  1  -1.177626  0  -0.35123  -0.608672  0  2.292336  0
O  O109  1  0.06193901  0.74463868  0.42128526  1  -1.173964  0  -0.345946  -0.597184  0  2.284433  0
O  O110  1  0.25302014  0.92582201  0.23994009  1  -1.173292  0  -0.349868  -0.603694  0  2.268727  0
O  O111  1  0.90638897  0.27305102  0.57982485  1  -1.174338  0  -0.34407  -0.600272  0  2.272442  0
O  O112  1  0.78327291  0.07516600  0.57038550  1  -1.255273  0  -0.691493  -1.067198  0  2.354723  0
O  O113  1  0.05387015  0.07215762  0.57263282  1  -1.217899  0  -0.691648  -1.071715  0  2.34117  0
O  O114  1  0.05489395  0.07438893  0.29974180  1  -1.251891  0  -0.697463  -1.073766  0  2.351116  0
O  O115  1  0.05313096  0.80231150  0.56969878  1  -1.229369  0  -0.693026  -1.068888  0  2.344406  0
O  O116  1  0.13483227  0.95525202  0.45457488  1  -1.199955  0  -0.793887  -1.154842  0  2.143452  0
O  O117  1  0.93580704  0.95838268  0.45251146  1  -1.197705  0  -0.792152  -1.147658  0  2.13705  0
O  O118  1  0.93731535  0.15424673  0.45499888  1  -1.198055  0  -0.794726  -1.150888  0  2.145017  0
O  O119  1  0.93582202  0.95585701  0.65121566  1  -1.198493  0  -0.794729  -1.149531  0  2.142343  0
O  O120  1  0.20624456  0.26249226  0.50348774  1  -0.450173  0  -0.128274  -0.328257  0  1.927765  0
O  O121  1  0.25987027  0.37871834  0.33566583  1  -0.425734  0  -0.110047  -0.296868  0  1.867244  0
O  O122  1  0.32240896  0.26289903  0.04877804  1  -0.416201  0  -0.120617  -0.310321  0  1.877289  0
O  O123  1  0.43285409  0.17383729  0.14783639  1  -0.429814  0  -0.117396  -0.311093  0  1.900399  0
O  O124  1  0.82950310  0.25505290  0.85617634  1  -0.417006  0  -0.121471  -0.31388  0  1.890409  0
O  O125  1  0.71364783  0.16004777  0.95860788  1  -0.437158  0  -0.120479  -0.319058  0  1.919204  0
O  O126  1  0.33096985  0.55552005  0.35521311  1  -0.443551  0  -0.116697  -0.317476  0  1.938329  0
O  O127  1  0.44029369  0.65664702  0.23809383  1  -0.433012  0  -0.115736  -0.315325  0  1.901957  0
O  O128  1  0.32370305  0.86179465  0.76135126  1  -0.43588  0  -0.120639  -0.316158  0  1.888197  0
O  O129  1  0.43955571  0.74224837  0.67132260  1  -0.446927  0  -0.127689  -0.329419  0  1.887236  0
O  O130  1  0.04534049  0.48866418  0.15796924  1  -1.133325  0  -0.346161  -0.410661  0  2.271723  0
O  O131  1  0.04591788  0.66295374  0.97870928  1  -1.126793  0  -0.341957  -0.406857  0  2.289145  0
O  O132  1  0.05855814  0.18651006  0.07325841  1  -1.196418  0  -0.370824  -0.451239  0  2.349317  0
O  O133  1  0.08349921  0.17614433  0.88256406  1  -1.113756  0  -0.344806  -0.411647  0  2.316705  0
O  O134  1  0.06457898  0.35957085  0.70247121  1  -1.122883  0  -0.35829  -0.436532  0  2.364412  0
O  O135  1  0.03165014  0.55843076  0.69602387  1  -1.182879  0  -0.375261  -0.478859  0  2.361908  0
