# generated using pymatgen
data_ZnH11C15NO4
_symmetry_space_group_name_H-M   'P 1'
_cell_length_a   9.00720219
_cell_length_b   13.97627329
_cell_length_c   15.35502965
_cell_angle_alpha   89.56625348
_cell_angle_beta   90.85875937
_cell_angle_gamma   79.57006651
_symmetry_Int_Tables_number   1
_chemical_formula_structural   ZnH11C15NO4
_chemical_formula_sum   'Zn2 H22 C30 N2 O8'
_cell_volume   1900.74406885
_cell_formula_units_Z   2
loop_
 _symmetry_equiv_pos_site_id
 _symmetry_equiv_pos_as_xyz
  1  'x, y, z'
loop_
 _atom_site_type_symbol
 _atom_site_label
 _atom_site_symmetry_multiplicity
 _atom_site_fract_x
 _atom_site_fract_y
 _atom_site_fract_z
 _atom_site_occupancy
 _atom_site_pbe_bader_charge
 _atom_site_pbe_bader_spin_density
 _atom_site_pbe_cm5_charge
 _atom_site_pbe_ddec_charge
 _atom_site_pbe_ddec_spin_density
 _atom_site_pbe_ddec_sum_bond_order
 _atom_site_pbe_magmom
Zn  Zn0  1  0.51461712  0.39936516  0.49894293  1  1.278637  0  0.661653  0.810805  0  2.429981  0
Zn  Zn1  1  0.48997126  0.60106513  0.50130137  1  1.280879  0  0.661392  0.808797  0  2.440892  0
H  H2  1  0.97585680  0.61651861  0.49548229  1  0.096653  0  0.10405  0.119706  0  0.998895  0
H  H3  1  0.61096648  0.05301846  0.62644168  1  0.102786  0  0.115365  0.121041  0  0.9911  0
H  H4  1  0.28081618  0.78124950  0.43825670  1  0.111488  0  0.130902  0.107263  0  0.974879  0
H  H5  1  0.61686581  0.23165318  0.62003091  1  0.151339  0  0.131519  0.108591  0  0.974263  0
H  H6  1  0.69725996  0.72690486  0.56291630  1  0.15296  0  0.130679  0.110148  0  0.981486  0
H  H7  1  0.40588137  0.26239086  0.37823951  1  0.166983  0  0.131934  0.11162  0  0.974536  0
H  H8  1  0.71265208  0.90424771  0.56547101  1  0.077324  0  0.115535  0.121509  0  0.989394  0
H  H9  1  0.38973216  0.08505515  0.37313981  1  0.088993  0  0.11571  0.121725  0  0.988233  0
H  H10  1  0.27520603  0.66400363  0.27531012  1  0.05438  0  0.092897  0.135698  0  0.995252  0
H  H11  1  0.43543468  0.71673883  0.25855181  1  0.035161  0  0.089303  0.130631  0  1.005067  0
H  H12  1  0.29149221  0.72788016  0.17576412  1  0.013834  0  0.084234  0.113799  0  1.012037  0
H  H13  1  0.02767909  0.39243086  0.50448440  1  0.098558  0  0.107582  0.126877  0  0.988722  0
H  H14  1  0.42043214  0.29457740  0.74408399  1  0.024095  0  0.086879  0.122344  0  1.015887  0
H  H15  1  0.27217832  0.32653579  0.81996433  1  0.029551  0  0.086864  0.118453  0  1.005236  0
H  H16  1  0.27011929  0.38997651  0.71862712  1  0.057036  0  0.095768  0.141121  0  0.985465  0
H  H17  1  0.61432373  0.34887460  0.06340570  1  0.057246  0  0.097328  0.098607  0  1.004447  0
H  H18  1  0.62328492  0.61681915  0.93736072  1  0.058831  0  0.098459  0.101297  0  1.002511  0
H  H19  1  0.60625757  0.35280645  0.22602605  1  0.06503  0  0.10049  0.102725  0  1.003129  0
H  H20  1  0.61540603  0.61274842  0.77473551  1  0.066147  0  0.100589  0.104059  0  0.9978  0
H  H21  1  0.38794122  0.64725907  0.05470106  1  0.045443  0  0.096469  0.098738  0  1.013446  0
H  H22  1  0.37679776  0.38066743  0.94432311  1  0.040745  0  0.097192  0.100398  0  1.011542  0
H  H23  1  0.27686159  0.96121555  0.43404867  1  0.093475  0  0.114676  0.121309  0  0.989909  0
C  C24  1  0.49835119  0.49789248  0.32911970  1  1.501986  0  0.215132  0.602791  0  4.160342  0
C  C25  1  0.43999123  0.11420556  0.42975343  1  -0.043387  0  -0.076551  -0.176327  0  3.945482  0
C  C26  1  0.49511195  0.94839487  0.49995338  1  -0.045052  0  0.016234  0.107414  0  3.991087  0
C  C27  1  0.49980074  0.05349034  0.49972646  1  -0.022578  0  0.014392  0.10542  0  3.993354  0
C  C28  1  0.20602808  0.53016168  0.49772592  1  1.531665  0  0.207477  0.629942  0  4.177933  0
C  C29  1  0.79749575  0.47998303  0.50298584  1  1.582085  0  0.208142  0.630083  0  4.170816  0
C  C30  1  0.03863936  0.54208931  0.49846078  1  0.028242  0  -0.085881  -0.174929  0  3.901069  0
C  C31  1  0.96519121  0.46693860  0.50254440  1  -0.085265  0  -0.080059  -0.165501  0  3.886192  0
C  C32  1  0.56274696  0.41487172  0.09686856  1  -0.002222  0  -0.100671  -0.153025  0  4.02465  0
C  C33  1  0.56788531  0.56419907  0.90355115  1  -0.102605  0  -0.100784  -0.153936  0  4.021848  0
C  C34  1  0.55883345  0.41710002  0.18730154  1  -0.111243  0  -0.090068  -0.087521  0  4.028491  0
C  C35  1  0.50031374  0.49354404  0.67099401  1  1.511948  0  0.213813  0.604935  0  4.162025  0
C  C36  1  0.56440438  0.56156154  0.81300137  1  -0.010919  0  -0.089895  -0.088656  0  4.026028  0
C  C37  1  0.49541817  0.50180847  0.23158535  1  0.112782  0  -0.021811  -0.100724  0  3.923232  0
C  C38  1  0.49663820  0.49300096  0.76853327  1  0.103591  0  -0.020072  -0.097045  0  3.928303  0
C  C39  1  0.43258540  0.58668881  0.18368348  1  -0.032039  0  0.000262  0.172171  0  3.934897  0
C  C40  1  0.42731984  0.42647795  0.81578007  1  -0.003694  0  -0.003544  0.163141  0  3.94888  0
C  C41  1  0.43891837  0.58291295  0.09267358  1  -0.115842  0  -0.097541  -0.207366  0  3.948684  0
C  C42  1  0.43277991  0.43016924  0.90680679  1  -0.082011  0  -0.098464  -0.207927  0  3.953675  0
C  C43  1  0.50265219  0.49861563  0.04815363  1  -0.031823  0  -0.006323  0.083598  0  4.028974  0
C  C44  1  0.50234800  0.49753078  0.95180497  1  0.046574  0  -0.008421  0.078212  0  4.031378  0
C  C45  1  0.35421408  0.67899410  0.22536482  1  -0.026012  0  -0.242946  -0.411351  0  3.993015  0
C  C46  1  0.37319078  0.91224041  0.46293759  1  -0.032132  0  -0.078566  -0.180686  0  3.946723  0
C  C47  1  0.34280735  0.35566076  0.77248374  1  -0.047841  0  -0.239921  -0.406005  0  3.9817  0
C  C48  1  0.56544198  0.09605663  0.56948340  1  -0.04935  0  -0.07729  -0.178061  0  3.95241  0
C  C49  1  0.37383830  0.81265811  0.46509039  1  0.497035  0  0.064823  0.107931  0  3.915542  0
C  C50  1  0.56915434  0.19500124  0.56681774  1  0.483532  0  0.063977  0.10607  0  3.918228  0
C  C51  1  0.60668483  0.78231123  0.53627694  1  0.505406  0  0.064378  0.110283  0  3.906169  0
C  C52  1  0.44870289  0.21246766  0.43157383  1  0.501376  0  0.06596  0.111585  0  3.903407  0
C  C53  1  0.61362236  0.88078523  0.53728382  1  -0.033928  0  -0.07747  -0.177648  0  3.946707  0
N  N54  1  0.48861831  0.74890822  0.50095694  1  -1.21259  0  -0.311693  -0.186684  0  3.497598  0
N  N55  1  0.51235087  0.25202964  0.49893308  1  -1.228942  0  -0.312041  -0.186715  0  3.498006  0
O  O56  1  0.49819326  0.41529269  0.36521523  1  -1.170909  0  -0.322825  -0.560882  0  2.326922  0
O  O57  1  0.48180616  0.57647834  0.63329669  1  -1.165925  0  -0.321744  -0.553486  0  2.311821  0
O  O58  1  0.50311371  0.57662687  0.36940267  1  -1.164356  0  -0.312875  -0.542568  0  2.344945  0
O  O59  1  0.52342614  0.41146462  0.63301653  1  -1.161689  0  -0.314892  -0.550598  0  2.330151  0
O  O60  1  0.28290189  0.44453046  0.50463842  1  -1.172273  0  -0.320282  -0.556341  0  2.313027  0
O  O61  1  0.72277316  0.56595568  0.51094499  1  -1.18186  0  -0.32002  -0.559275  0  2.32979  0
O  O62  1  0.25916735  0.60876125  0.49073042  1  -1.161842  0  -0.325595  -0.558973  0  2.274709  0
O  O63  1  0.74211854  0.40256310  0.49502723  1  -1.155467  0  -0.323817  -0.548607  0  2.262244  0
