# generated using pymatgen
data_InH9C17O5F6
_symmetry_space_group_name_H-M   'P 1'
_cell_length_a   7.18724893
_cell_length_b   13.50304898
_cell_length_c   22.07918116
_cell_angle_alpha   87.52550310
_cell_angle_beta   80.63737999
_cell_angle_gamma   74.56311987
_symmetry_Int_Tables_number   1
_chemical_formula_structural   InH9C17O5F6
_chemical_formula_sum   'In4 H36 C68 O20 F24'
_cell_volume   2037.96195495
_cell_formula_units_Z   4
loop_
 _symmetry_equiv_pos_site_id
 _symmetry_equiv_pos_as_xyz
  1  'x, y, z'
loop_
 _atom_site_type_symbol
 _atom_site_label
 _atom_site_symmetry_multiplicity
 _atom_site_fract_x
 _atom_site_fract_y
 _atom_site_fract_z
 _atom_site_occupancy
 _atom_site_pbe_bader_charge
 _atom_site_pbe_bader_spin_density
 _atom_site_pbe_cm5_charge
 _atom_site_pbe_ddec_charge
 _atom_site_pbe_ddec_spin_density
 _atom_site_pbe_ddec_sum_bond_order
 _atom_site_pbe_magmom
In  In0  1  0.63486135  0.22942307  0.25000468  1  1.977389  0  0.776373  1.588803  0  2.784631  0
In  In1  1  0.11425660  0.27066012  0.25001115  1  1.978334  0  0.777038  1.589561  0  2.785403  0
In  In2  1  0.36513652  0.77057643  0.74999626  1  1.977359  0  0.776404  1.588867  0  2.784622  0
In  In3  1  0.88574313  0.72934014  0.74998896  1  1.978328  0  0.777055  1.589598  0  2.785371  0
H  H4  1  0.45344919  0.51532900  0.17952667  1  0.102057  0  0.112969  0.120553  0  0.983038  0
H  H5  1  0.14825918  0.98483090  0.32051689  1  0.087097  0  0.112433  0.119357  0  0.981323  0
H  H6  1  0.53124935  0.51525789  0.32051451  1  0.091284  0  0.112752  0.119665  0  0.983314  0
H  H7  1  0.36702219  0.98492764  0.17948421  1  0.1036  0  0.112823  0.11972  0  0.983791  0
H  H8  1  0.54655640  0.48467203  0.82047283  1  0.102019  0  0.112969  0.120506  0  0.982992  0
H  H9  1  0.85173563  0.01516937  0.67948390  1  0.087037  0  0.112431  0.119354  0  0.981253  0
H  H10  1  0.46875026  0.48474084  0.67948507  1  0.091148  0  0.112757  0.119689  0  0.983333  0
H  H11  1  0.63297271  0.01507339  0.82051470  1  0.103542  0  0.112804  0.119679  0  0.983812  0
H  H12  1  0.31555446  0.66559600  0.11711870  1  0.074025  0  0.104071  0.112636  0  0.995938  0
H  H13  1  0.09810502  0.83456615  0.38289885  1  0.077154  0  0.104013  0.112788  0  0.994959  0
H  H14  1  0.51903117  0.66547760  0.38296654  1  0.091824  0  0.103652  0.112111  0  0.995313  0
H  H15  1  0.56750907  0.83464959  0.11708649  1  0.083383  0  0.103917  0.112715  0  0.995635  0
H  H16  1  0.68444622  0.33440503  0.88288148  1  0.074054  0  0.104073  0.112593  0  0.995992  0
H  H17  1  0.90189235  0.16543258  0.61710157  1  0.077172  0  0.103999  0.112772  0  0.995005  0
H  H18  1  0.48096760  0.33452190  0.61703349  1  0.091615  0  0.103643  0.112083  0  0.995345  0
H  H19  1  0.43249002  0.16535375  0.88291271  1  0.083341  0  0.103903  0.112682  0  0.995668  0
H  H20  1  0.89170854  0.64055577  0.01420950  1  0.078152  0  0.091837  0.098363  0  1.053317  0
H  H21  1  0.54662116  0.85932978  0.48575732  1  0.081939  0  0.091673  0.098783  0  1.052061  0
H  H22  1  0.96777969  0.64059232  0.48585524  1  0.077158  0  0.091764  0.098221  0  1.053333  0
H  H23  1  0.09424264  0.85938611  0.01422154  1  0.082139  0  0.092246  0.099047  0  1.052954  0
H  H24  1  0.10829430  0.35944449  0.98579031  1  0.078138  0  0.09184  0.098368  0  1.053248  0
H  H25  1  0.45338247  0.14066894  0.51424105  1  0.081883  0  0.091665  0.09876  0  1.052116  0
H  H26  1  0.03222131  0.35940717  0.51414540  1  0.077158  0  0.091743  0.098201  0  1.053343  0
H  H27  1  0.90575301  0.14061338  0.98577881  1  0.081217  0  0.092193  0.098979  0  1.053058  0
H  H28  1  0.02965366  0.50063867  0.08241556  1  0.108632  0  0.105883  0.11428  0  0.993531  0
H  H29  1  0.61292078  0.99927488  0.41761998  1  0.09404  0  0.105728  0.114494  0  0.994376  0
H  H30  1  0.96962206  0.50073782  0.41761612  1  0.08832  0  0.105769  0.114225  0  0.993116  0
H  H31  1  0.88786436  0.99923414  0.08243997  1  0.104269  0  0.105619  0.113871  0  0.99363  0
H  H32  1  0.97034969  0.49936236  0.91758478  1  0.108675  0  0.105852  0.114266  0  0.993544  0
H  H33  1  0.38707795  0.00072385  0.58237908  1  0.094052  0  0.1057  0.114474  0  0.9944  0
H  H34  1  0.03037932  0.49926090  0.58238451  1  0.088321  0  0.105765  0.114208  0  0.993087  0
H  H35  1  0.11213034  0.00076459  0.91756030  1  0.104225  0  0.105555  0.113779  0  0.993725  0
H  H36  1  0.42123434  0.25005563  0.15677799  1  0.627119  0  0.307593  0.402727  0  0.909528  0
H  H37  1  0.82809365  0.24995164  0.34321093  1  0.626431  0  0.307496  0.403116  0  0.90897  0
H  H38  1  0.57876572  0.74994309  0.84322114  1  0.627142  0  0.307579  0.40271  0  0.909557  0
H  H39  1  0.17190608  0.75004862  0.65678918  1  0.626442  0  0.307485  0.40313  0  0.90895  0
C  C40  1  0.82503796  0.40723762  0.17325519  1  1.56995  0  0.237921  0.614042  0  4.175907  0
C  C41  1  0.40559177  0.09282213  0.32678672  1  1.576474  0  0.240033  0.618958  0  4.173206  0
C  C42  1  0.26742708  0.40732375  0.32672481  1  1.564959  0  0.239102  0.617615  0  4.174298  0
C  C43  1  0.00146617  0.09281591  0.17326259  1  1.577543  0  0.238145  0.615006  0  4.175459  0
C  C44  1  0.17496489  0.59276264  0.82674462  1  1.569983  0  0.237956  0.614125  0  4.17581  0
C  C45  1  0.59440209  0.90717737  0.67321400  1  1.576512  0  0.240101  0.619096  0  4.172941  0
C  C46  1  0.73257304  0.59267574  0.67327530  1  1.564671  0  0.239103  0.61764  0  4.17425  0
C  C47  1  0.99853133  0.90718435  0.82673692  1  1.577559  0  0.2381  0.614967  0  4.175498  0
C  C48  1  0.75008032  0.49874567  0.13498131  1  -0.065222  0  -0.01373  -0.03004  0  3.970496  0
C  C49  1  0.38387689  0.00130294  0.36505279  1  -0.016831  0  -0.013448  -0.02996  0  3.9712  0
C  C50  1  0.25104221  0.49880166  0.36503354  1  0.004076  0  -0.013535  -0.029671  0  3.968943  0
C  C51  1  0.11485545  0.00132685  0.13497226  1  -0.038857  0  -0.013307  -0.029059  0  3.969331  0
C  C52  1  0.24992206  0.50125459  0.86502038  1  -0.065176  0  -0.01379  -0.030177  0  3.970522  0
C  C53  1  0.61611793  0.99869732  0.63494800  1  -0.016766  0  -0.013483  -0.030053  0  3.971156  0
C  C54  1  0.74895872  0.50119707  0.63496754  1  0.004337  0  -0.013541  -0.029678  0  3.968718  0
C  C55  1  0.88514244  0.99867265  0.86502725  1  -0.038673  0  -0.013302  -0.029131  0  3.969374  0
C  C56  1  0.54865833  0.54536173  0.14422152  1  0.015701  0  -0.080127  -0.080309  0  3.9666  0
C  C57  1  0.23821106  0.95474216  0.35582039  1  0.01904  0  -0.07979  -0.078027  0  3.963811  0
C  C58  1  0.40599524  0.54531312  0.35582649  1  -0.014862  0  -0.079811  -0.079354  0  3.966062  0
C  C59  1  0.30713241  0.95483775  0.14418521  1  -0.029643  0  -0.080202  -0.079175  0  3.966596  0
C  C60  1  0.45134846  0.45463776  0.85577896  1  0.015765  0  -0.080087  -0.08018  0  3.966449  0
C  C61  1  0.76178280  0.04525733  0.64418033  1  0.019183  0  -0.07981  -0.07802  0  3.963709  0
C  C62  1  0.59400481  0.45468560  0.64417407  1  -0.014704  0  -0.079816  -0.079437  0  3.965993  0
C  C63  1  0.69286516  0.04516328  0.85581384  1  -0.029895  0  -0.080161  -0.079081  0  3.966488  0
C  C64  1  0.47163227  0.62839204  0.10842711  1  -0.049123  0  -0.091353  -0.125363  0  3.976283  0
C  C65  1  0.20832834  0.87173157  0.39161100  1  -0.077359  0  -0.091647  -0.12732  0  3.976283  0
C  C66  1  0.40011653  0.62829187  0.39165892  1  -0.025181  0  -0.09131  -0.125235  0  3.975711  0
C  C67  1  0.42008556  0.87182084  0.10839489  1  -0.004635  0  -0.09216  -0.128002  0  3.977946  0
C  C68  1  0.52837248  0.37160976  0.89157285  1  -0.049302  0  -0.091357  -0.125306  0  3.976122  0
C  C69  1  0.79166871  0.12826869  0.60838896  1  -0.077414  0  -0.091618  -0.127283  0  3.976421  0
C  C70  1  0.59988397  0.37170686  0.60834119  1  -0.025023  0  -0.091319  -0.12516  0  3.975713  0
C  C71  1  0.57991347  0.12818172  0.89160476  1  -0.004635  0  -0.092178  -0.128035  0  3.977994  0
C  C72  1  0.59226464  0.66342696  0.06049473  1  -0.060229  0  -0.017334  0.082454  0  3.951444  0
C  C73  1  0.31613898  0.83663936  0.43953574  1  -0.027885  0  -0.016913  0.082846  0  3.953503  0
C  C74  1  0.24444612  0.66338263  0.43959042  1  -0.068231  0  -0.017372  0.081442  0  3.953138  0
C  C75  1  0.34737797  0.83669364  0.06048254  1  -0.087814  0  -0.016757  0.083625  0  3.953832  0
C  C76  1  0.40773559  0.33657407  0.93950590  1  -0.059905  0  -0.017345  0.082393  0  3.951375  0
C  C77  1  0.68386285  0.16335937  0.56046444  1  -0.027757  0  -0.016956  0.082811  0  3.953661  0
C  C78  1  0.75555571  0.33661610  0.56040976  1  -0.068257  0  -0.017363  0.081441  0  3.953164  0
C  C79  1  0.65261915  0.16330739  0.93951697  1  -0.087799  0  -0.016762  0.083586  0  3.953979  0
C  C80  1  0.79348763  0.61617090  0.05104362  1  0.019694  0  -0.098493  -0.143557  0  3.980597  0
C  C81  1  0.46076964  0.88380598  0.44895362  1  -0.00276  0  -0.098489  -0.143577  0  3.980744  0
C  C82  1  0.09041793  0.61617588  0.44903210  1  0.001916  0  -0.098796  -0.143145  0  3.979791  0
C  C83  1  0.15558124  0.88384308  0.05104246  1  0.026365  0  -0.098891  -0.143478  0  3.981404  0
C  C84  1  0.20651667  0.38383090  0.94895678  1  0.019409  0  -0.09847  -0.14354  0  3.980765  0
C  C85  1  0.53922990  0.11619197  0.55104641  1  -0.002811  0  -0.098447  -0.143522  0  3.980735  0
C  C86  1  0.90958384  0.38382208  0.55096854  1  0.001933  0  -0.098772  -0.143157  0  3.979795  0
C  C87  1  0.84441754  0.11615641  0.94895757  1  0.027295  0  -0.098791  -0.143375  0  3.981583  0
C  C88  1  0.87257498  0.53603187  0.08918917  1  -0.022975  0  -0.08155  -0.078683  0  3.949219  0
C  C89  1  0.49789952  0.96395361  0.41082790  1  -0.038832  0  -0.081697  -0.079977  0  3.95068  0
C  C90  1  0.09136890  0.53608416  0.41085960  1  -0.043781  0  -0.08133  -0.078878  0  3.94812  0
C  C91  1  0.03823848  0.96394464  0.08919552  1  -0.046199  0  -0.081145  -0.078594  0  3.949205  0
C  C92  1  0.12742964  0.46396839  0.91081169  1  -0.022997  0  -0.081553  -0.078698  0  3.949348  0
C  C93  1  0.50209665  0.03604666  0.58917153  1  -0.038944  0  -0.081696  -0.079974  0  3.950803  0
C  C94  1  0.90863153  0.46391380  0.58914096  1  -0.043757  0  -0.081328  -0.078826  0  3.947929  0
C  C95  1  0.96175539  0.03605485  0.91080520  1  -0.046013  0  -0.081144  -0.078488  0  3.949373  0
C  C96  1  0.49009635  0.75002346  0.02000636  1  0.071682  0  -0.011355  -0.274989  0  3.857916  0
C  C97  1  0.26006099  0.75005475  0.48005203  1  0.06736  0  -0.012142  -0.275618  0  3.856784  0
C  C98  1  0.50990567  0.24997758  0.97999390  1  0.071683  0  -0.011355  -0.274797  0  3.857735  0
C  C99  1  0.73993912  0.24994474  0.51994808  1  0.06736  0  -0.012132  -0.275623  0  3.856828  0
C  C100  1  0.63529156  0.80092028  0.97782017  1  1.71652  0  0.304056  0.670099  0  3.970442  0
C  C101  1  0.41407697  0.69918386  0.52223151  1  1.709756  0  0.304617  0.675711  0  3.965201  0
C  C102  1  0.06394942  0.80100049  0.52225570  1  1.704823  0  0.304662  0.67451  0  3.96537  0
C  C103  1  0.38697921  0.69912851  0.97782616  1  1.707616  0  0.305512  0.676518  0  3.96371  0
C  C104  1  0.36471000  0.19908075  0.02218054  1  1.716528  0  0.304041  0.670026  0  3.970472  0
C  C105  1  0.58592493  0.30081563  0.47776822  1  1.709764  0  0.304634  0.675708  0  3.965204  0
C  C106  1  0.93605114  0.19899900  0.47774396  1  1.704881  0  0.304672  0.674539  0  3.965296  0
C  C107  1  0.61302466  0.30087329  0.02217326  1  1.707427  0  0.30551  0.676468  0  3.963922  0
O  O108  1  0.39888945  0.25017975  0.20128723  1  -1.217036  0  -0.535551  -0.912903  0  2.11571  0
O  O109  1  0.85028711  0.24994046  0.29870361  1  -1.219386  0  -0.535434  -0.913417  0  2.115715  0
O  O110  1  0.60111226  0.74981744  0.79871243  1  -1.217056  0  -0.535559  -0.912908  0  2.115749  0
O  O111  1  0.14971090  0.75006057  0.70129643  1  -1.219382  0  -0.535411  -0.913429  0  2.115653  0
O  O112  1  0.70752402  0.35216082  0.18924700  1  -1.187423  0  -0.289823  -0.598894  0  2.369523  0
O  O113  1  0.24894967  0.14796906  0.31084578  1  -1.190482  0  -0.29048  -0.600738  0  2.368898  0
O  O114  1  0.44002968  0.35218627  0.31081901  1  -1.186129  0  -0.290098  -0.600607  0  2.37013  0
O  O115  1  0.10305363  0.14787020  0.18924715  1  -1.186152  0  -0.290361  -0.599354  0  2.370433  0
O  O116  1  0.29247799  0.64784021  0.81075326  1  -1.187476  0  -0.28986  -0.598937  0  2.369523  0
O  O117  1  0.75104413  0.85202966  0.68915540  1  -1.190445  0  -0.29048  -0.600753  0  2.36885  0
O  O118  1  0.55997088  0.64781322  0.68918065  1  -1.186074  0  -0.290083  -0.600606  0  2.370103  0
O  O119  1  0.89694514  0.85212929  0.81075288  1  -1.186185  0  -0.290334  -0.599315  0  2.370334  0
O  O120  1  0.99720719  0.39178752  0.18647286  1  -1.158035  0  -0.287522  -0.57056  0  2.249145  0
O  O121  1  0.57553132  0.10825045  0.31353767  1  -1.160152  0  -0.288479  -0.573224  0  2.248156  0
O  O122  1  0.11074621  0.39189627  0.31346362  1  -1.156469  0  -0.287917  -0.571923  0  2.248869  0
O  O123  1  0.81605382  0.10831539  0.18645920  1  -1.166149  0  -0.287139  -0.571487  0  2.24945  0
O  O124  1  0.00279426  0.60821198  0.81352733  1  -1.157993  0  -0.287502  -0.570566  0  2.249085  0
O  O125  1  0.42446205  0.89174828  0.68646252  1  -1.160297  0  -0.288505  -0.573312  0  2.248115  0
O  O126  1  0.88925390  0.60810322  0.68653649  1  -1.156467  0  -0.287906  -0.571925  0  2.248832  0
O  O127  1  0.18394380  0.89168641  0.81354083  1  -1.166122  0  -0.287143  -0.571502  0  2.249535  0
F  F128  1  0.75151409  0.73688357  0.93235884  1  -0.619709  0  -0.088629  -0.201063  0  1.352207  0
F  F129  1  0.42091839  0.76328133  0.56765034  1  -0.618172  0  -0.087977  -0.201927  0  1.350975  0
F  F130  1  0.01177841  0.73703240  0.56775248  1  -0.618017  0  -0.088281  -0.201961  0  1.35139  0
F  F131  1  0.31613861  0.76318644  0.93239522  1  -0.619487  0  -0.089217  -0.203021  0  1.350489  0
F  F132  1  0.24848786  0.26311669  0.06764187  1  -0.619735  0  -0.08861  -0.201032  0  1.35222  0
F  F133  1  0.57908632  0.23671970  0.43234863  1  -0.618144  0  -0.087969  -0.201899  0  1.350987  0
F  F134  1  0.98822215  0.26296710  0.43224718  1  -0.618078  0  -0.088275  -0.201963  0  1.351336  0
F  F135  1  0.68386512  0.23681382  0.06760512  1  -0.61911  0  -0.089231  -0.203061  0  1.350507  0
F  F136  1  0.75709338  0.83033272  0.01044510  1  -0.623812  0  -0.084742  -0.19068  0  1.344806  0
F  F137  1  0.59790855  0.66971211  0.48959736  1  -0.624329  0  -0.085353  -0.192729  0  1.344339  0
F  F138  1  0.91268007  0.83036221  0.48964639  1  -0.61674  0  -0.085827  -0.193052  0  1.344413  0
F  F139  1  0.23259812  0.66971049  0.01046820  1  -0.619821  0  -0.086297  -0.193734  0  1.344142  0
F  F140  1  0.24290730  0.16966831  0.98955508  1  -0.62377  0  -0.084745  -0.190693  0  1.344777  0
F  F141  1  0.40209285  0.33028662  0.51040184  1  -0.624315  0  -0.085372  -0.192758  0  1.344318  0
F  F142  1  0.08732087  0.16963651  0.51035327  1  -0.616734  0  -0.085865  -0.193078  0  1.344391  0
F  F143  1  0.76740640  0.33028823  0.98953070  1  -0.619889  0  -0.086303  -0.193755  0  1.344226  0
F  F144  1  0.53940001  0.88647702  0.94986874  1  -0.619567  0  -0.092044  -0.195441  0  1.34838  0
F  F145  1  0.37582839  0.61367792  0.55023535  1  -0.617325  0  -0.091943  -0.196448  0  1.348312  0
F  F146  1  0.07429225  0.88660112  0.55016358  1  -0.619178  0  -0.092014  -0.196189  0  1.347443  0
F  F147  1  0.51074030  0.61357851  0.94984565  1  -0.623821  0  -0.091878  -0.196495  0  1.347782  0
F  F148  1  0.46059972  0.11352324  0.05013137  1  -0.619566  0  -0.092032  -0.195424  0  1.348385  0
F  F149  1  0.62417139  0.38632312  0.44976574  1  -0.617333  0  -0.09194  -0.196437  0  1.348293  0
F  F150  1  0.92570525  0.11339914  0.44983593  1  -0.619188  0  -0.091995  -0.19618  0  1.347472  0
F  F151  1  0.48926658  0.38642175  0.05015294  1  -0.623979  0  -0.091843  -0.19643  0  1.34787  0
