# generated using pymatgen
data_TbAgH15C25(N3O4)2
_symmetry_space_group_name_H-M   'P 1'
_cell_length_a   9.70196046
_cell_length_b   12.15670208
_cell_length_c   12.37225011
_cell_angle_alpha   60.88643036
_cell_angle_beta   76.88293760
_cell_angle_gamma   82.43619821
_symmetry_Int_Tables_number   1
_chemical_formula_structural   TbAgH15C25(N3O4)2
_chemical_formula_sum   'Tb2 Ag2 H30 C50 N12 O16'
_cell_volume   1241.21792489
_cell_formula_units_Z   2
loop_
 _symmetry_equiv_pos_site_id
 _symmetry_equiv_pos_as_xyz
  1  'x, y, z'
loop_
 _atom_site_type_symbol
 _atom_site_label
 _atom_site_symmetry_multiplicity
 _atom_site_fract_x
 _atom_site_fract_y
 _atom_site_fract_z
 _atom_site_occupancy
 _atom_site_hle17_bader_spin_density
 _atom_site_hle17_ddec_charge
 _atom_site_hle17_ddec_spin_density
 _atom_site_hle17_ddec_sum_bond_order
 _atom_site_hle17_magmom
 _atom_site_hse06_10hf_bader_spin_density
 _atom_site_hse06_10hf_ddec_charge
 _atom_site_hse06_10hf_ddec_spin_density
 _atom_site_hse06_10hf_ddec_sum_bond_order
 _atom_site_hse06_10hf_magmom
 _atom_site_hse06_bader_spin_density
 _atom_site_hse06_ddec_charge
 _atom_site_hse06_ddec_spin_density
 _atom_site_hse06_ddec_sum_bond_order
 _atom_site_hse06_magmom
 _atom_site_pbe_bader_spin_density
 _atom_site_pbe_cm5_charge
 _atom_site_pbe_ddec_charge
 _atom_site_pbe_ddec_spin_density
 _atom_site_pbe_ddec_sum_bond_order
 _atom_site_pbe_magmom
Tb  Tb0  1  0.82732652  0.01885278  0.92868768  1  0  2.177415  0  1.655663  0  0  2.027673  0  2.12881  0  0  2.078306  0  2.086832  0  0  1.510197  1.986947  0  2.164219  0
Tb  Tb1  1  0.17267325  0.98114679  0.07131245  1  0  2.177443  0  1.65563  0  0  2.027692  0  2.1288  0  0  2.078334  0  2.086806  0  0  1.510217  1.986975  0  2.164193  0
Ag  Ag2  1  0.51506966  0.34236768  0.36919326  1  0  0.495814  0  1.429111  0  0  0.335074  0  1.865399  0  0  0.364115  0  1.82914  0  0  0.452986  0.31485  0  1.890419  0
Ag  Ag3  1  0.48492902  0.65763284  0.63080662  1  0  0.495789  0  1.42909  0  0  0.335046  0  1.865377  0  0  0.364089  0  1.829119  0  0  0.452984  0.314823  0  1.890407  0
H  H4  1  0.88751033  0.46959636  0.78917146  1  0  0.097272  0  0.95773  0  0  0.108057  0  1.019176  0  0  0.110768  0  1.018129  0  0  0.103983  0.106057  0  1.019961  0
H  H5  1  0.11249047  0.53040415  0.21082885  1  0  0.097278  0  0.957713  0  0  0.108063  0  1.01916  0  0  0.110775  0  1.018114  0  0  0.103996  0.106064  0  1.019945  0
H  H6  1  0.83441253  0.67383349  0.79717280  1  0  0.113473  0  0.942978  0  0  0.126541  0  0.99558  0  0  0.129475  0  0.994668  0  0  0.109523  0.124404  0  0.996395  0
H  H7  1  0.16558829  0.32616608  0.20282715  1  0  0.1135  0  0.942966  0  0  0.126571  0  0.99556  0  0  0.129505  0  0.994648  0  0  0.109521  0.124433  0  0.996376  0
H  H8  1  0.62153343  0.26642322  0.15315015  1  0  0.106629  0  0.95211  0  0  0.114388  0  1.022769  0  0  0.118435  0  1.018737  0  0  0.104877  0.111404  0  1.025765  0
H  H9  1  0.37846739  0.73357635  0.84684899  1  0  0.106606  0  0.952144  0  0  0.114383  0  1.022787  0  0  0.11843  0  1.018754  0  0  0.104872  0.111398  0  1.025783  0
H  H10  1  0.50177044  0.66977370  0.17667981  1  0  0.09977  0  0.934268  0  0  0.107833  0  0.998491  0  0  0.110455  0  0.995219  0  0  0.139394  0.105848  0  1.000781  0
H  H11  1  0.49823038  0.33022587  0.82332014  1  0  0.099754  0  0.934285  0  0  0.107817  0  0.998511  0  0  0.110441  0  0.995236  0  0  0.139381  0.105831  0  1.000802  0
H  H12  1  0.95078435  0.79132415  0.35512019  1  0  0.121309  0  0.960535  0  0  0.129502  0  1.024175  0  0  0.133357  0  1.021145  0  0  0.110442  0.126778  0  1.026178  0
H  H13  1  0.04921649  0.20867448  0.64488020  1  0  0.121321  0  0.96051  0  0  0.129514  0  1.024148  0  0  0.133369  0  1.021117  0  0  0.110444  0.126789  0  1.026151  0
H  H14  1  0.89028761  0.61541053  0.57407109  1  0  0.106749  0  0.946755  0  0  0.121482  0  0.998635  0  0  0.124302  0  0.997877  0  0  0.10507  0.1194  0  0.999385  0
H  H15  1  0.10971324  0.38458810  0.42592930  1  0  0.106738  0  0.946756  0  0  0.121457  0  0.998653  0  0  0.124278  0  0.997896  0  0  0.105065  0.119376  0  0.999399  0
H  H16  1  0.77245302  0.59943843  0.20575913  1  0  0.115343  0  0.972999  0  0  0.123889  0  1.035108  0  0  0.127203  0  1.033071  0  0  0.107051  0.121642  0  1.036217  0
H  H17  1  0.22754567  0.40056208  0.79424075  1  0  0.115324  0  0.972993  0  0  0.123864  0  1.035112  0  0  0.127179  0  1.033074  0  0  0.107024  0.121618  0  1.036221  0
H  H18  1  0.63828010  0.24280419  0.64516295  1  0  0.087367  0  0.961986  0  0  0.095351  0  1.028119  0  0  0.097932  0  1.024473  0  0  0.132944  0.093314  0  1.03092  0
H  H19  1  0.36171858  0.75719632  0.35483693  1  0  0.087367  0  0.961992  0  0  0.095336  0  1.028143  0  0  0.097917  0  1.024497  0  0  0.132954  0.093301  0  1.030944  0
H  H20  1  0.10300777  0.84396236  0.51230163  1  0  0.105826  0  0.939367  0  0  0.119049  0  0.992956  0  0  0.122143  0  0.991609  0  0  0.106652  0.116791  0  0.994279  0
H  H21  1  0.89699192  0.15604004  0.48769556  1  0  0.105829  0  0.939356  0  0  0.119035  0  0.992964  0  0  0.122132  0  0.991613  0  0  0.106648  0.116779  0  0.994288  0
H  H22  1  0.14438026  0.82868535  0.71260651  1  0  0.116923  0  0.931986  0  0  0.131139  0  0.981226  0  0  0.13429  0  0.980064  0  0  0.11295  0.128984  0  0.982017  0
H  H23  1  0.85562161  0.17131422  0.28739163  1  0  0.116896  0  0.932022  0  0  0.131113  0  0.981257  0  0  0.134265  0  0.980095  0  0  0.112925  0.12896  0  0.982049  0
H  H24  1  0.36170667  0.17188356  0.28622511  1  0  0.107478  0  0.954558  0  0  0.113993  0  1.027524  0  0  0.118231  0  1.022956  0  0  0.103187  0.11104  0  1.030525  0
H  H25  1  0.63829302  0.82811883  0.71377450  1  0  0.10747  0  0.954621  0  0  0.11397  0  1.02759  0  0  0.118207  0  1.023024  0  0  0.103172  0.111018  0  1.030589  0
H  H26  1  0.44332987  0.15345770  0.68269862  1  0  0.093135  0  0.942313  0  0  0.102731  0  1.006059  0  0  0.104994  0  1.002733  0  0  0.137772  0.10093  0  1.008664  0
H  H27  1  0.55667095  0.84654187  0.31730132  1  0  0.093133  0  0.942319  0  0  0.102733  0  1.006063  0  0  0.104994  0  1.00274  0  0  0.13776  0.100936  0  1.008665  0
H  H28  1  0.66489941  0.76751506  0.95730854  1  0  0.340084  0  0.901627  0  0  0.319046  0  0.964947  0  0  0.327891  0  0.957384  0  0  0.324146  0.312709  0  0.970507  0
H  H29  1  0.33510038  0.23248356  0.04269284  1  0  0.340066  0  0.901653  0  0  0.319023  0  0.964975  0  0  0.327868  0  0.957411  0  0  0.324124  0.312681  0  0.970537  0
H  H30  1  0.77130766  0.36007030  0.70538424  1  0  0.324012  0  0.920467  0  0  0.304215  0  0.981789  0  0  0.313209  0  0.974964  0  0  0.313909  0.297866  0  0.98659  0
H  H31  1  0.22869316  0.63992927  0.29461570  1  0  0.324044  0  0.920447  0  0  0.304244  0  0.981766  0  0  0.313237  0  0.974943  0  0  0.313924  0.297896  0  0.986566  0
H  H32  1  0.29238817  0.95874203  0.79326412  1  0  0.337676  0  0.906866  0  0  0.316944  0  0.968574  0  0  0.326226  0  0.960652  0  0  0.320568  0.310388  0  0.974168  0
H  H33  1  0.70761160  0.04125754  0.20673602  1  0  0.337679  0  0.906869  0  0  0.316943  0  0.968581  0  0  0.326223  0  0.960662  0  0  0.320574  0.310388  0  0.974175  0
C  C34  1  0.77854512  0.24459232  0.95259499  1  0  0.656212  0  3.902639  0  0  0.606152  0  4.196018  0  0  0.640668  0  4.187598  0  0  0.203048  0.582645  0  4.201332  0
C  C35  1  0.22145784  0.75540630  0.04740583  1  0  0.656201  0  3.902738  0  0  0.606159  0  4.196081  0  0  0.640673  0  4.187666  0  0  0.203063  0.582652  0  4.201394  0
C  C36  1  0.75448143  0.35921910  0.96805469  1  0  -0.07117  0  3.783726  0  0  -0.051874  0  4.024548  0  0  -0.061364  0  4.049089  0  0  -0.025868  -0.045896  0  4.00811  0
C  C37  1  0.24551834  0.64078047  0.03194463  1  0  -0.071121  0  3.783661  0  0  -0.05183  0  4.024478  0  0  -0.061318  0  4.049018  0  0  -0.025847  -0.045853  0  4.00804  0
C  C38  1  0.81556353  0.47314957  0.86902652  1  0  -0.064014  0  3.740671  0  0  -0.093681  0  3.998341  0  0  -0.092712  0  4.018911  0  0  -0.088108  -0.09392  0  3.983977  0
C  C39  1  0.18443835  0.52685000  0.13097324  1  0  -0.064018  0  3.740584  0  0  -0.093685  0  3.998259  0  0  -0.092718  0  4.01883  0  0  -0.088127  -0.093923  0  3.983894  0
C  C40  1  0.78729575  0.58611426  0.87294979  1  0  -0.150133  0  3.751626  0  0  -0.165306  0  4.002272  0  0  -0.1694  0  4.021256  0  0  -0.088845  -0.162673  0  3.989327  0
C  C41  1  0.21270404  0.41388437  0.12705078  1  0  -0.150153  0  3.751548  0  0  -0.165325  0  4.002198  0  0  -0.169419  0  4.021182  0  0  -0.088817  -0.162692  0  3.989254  0
C  C42  1  0.69451295  0.58180000  0.97946696  1  0  0.17556  0  3.771845  0  0  0.166028  0  4.013295  0  0  0.171826  0  4.035258  0  0  0.104726  0.162332  0  3.998086  0
C  C43  1  0.30548684  0.41819864  0.02053281  1  0  0.175564  0  3.771851  0  0  0.16602  0  4.013313  0  0  0.171817  0  4.035276  0  0  0.104711  0.162314  0  3.9981  0
C  C44  1  0.63785885  0.46738671  0.08198230  1  0  0.123874  0  3.838643  0  0  0.125438  0  4.076961  0  0  0.126386  0  4.10267  0  0  0.080872  0.124559  0  4.05946  0
C  C45  1  0.36214197  0.53261285  0.91801764  1  0  0.123906  0  3.83863  0  0  0.125468  0  4.076963  0  0  0.126417  0  4.102672  0  0  0.080901  0.124588  0  4.059465  0
C  C46  1  0.66754735  0.35454235  0.07692299  1  0  -0.13012  0  3.716371  0  0  -0.160928  0  3.967175  0  0  -0.159704  0  3.984888  0  0  -0.083287  -0.161451  0  3.955193  0
C  C47  1  0.33245455  0.64545628  0.92307722  1  0  -0.130122  0  3.7164  0  0  -0.160946  0  3.967216  0  0  -0.159725  0  3.984928  0  0  -0.083289  -0.161471  0  3.955234  0
C  C48  1  0.55638240  0.61714571  0.12877704  1  0  0.264518  0  3.650332  0  0  0.201088  0  3.929442  0  0  0.218099  0  3.940186  0  0  0.163595  0.189802  0  3.921951  0
C  C49  1  0.44361842  0.38285386  0.87122291  1  0  0.264506  0  3.650405  0  0  0.201064  0  3.929525  0  0  0.218076  0  3.940264  0  0  0.163584  0.18977  0  3.922028  0
C  C50  1  0.90198484  0.80866385  0.14092880  1  0  0.668057  0  3.910565  0  0  0.621051  0  4.200981  0  0  0.656157  0  4.190734  0  0  0.194554  0.596998  0  4.207719  0
C  C51  1  0.09801595  0.19133667  0.85906990  1  0  0.668044  0  3.910479  0  0  0.621056  0  4.200867  0  0  0.656165  0  4.190614  0  0  0.19455  0.597004  0  4.207605  0
C  C52  1  0.86365906  0.70399225  0.27015273  1  0  -0.066484  0  3.76061  0  0  -0.04706  0  4.00434  0  0  -0.056965  0  4.028642  0  0  -0.024307  -0.040709  0  3.988137  0
C  C53  1  0.13634068  0.29600826  0.72984696  1  0  -0.066527  0  3.760668  0  0  -0.04711  0  4.004398  0  0  -0.057016  0  4.028697  0  0  -0.024335  -0.040759  0  3.98819  0
C  C54  1  0.89594265  0.70976206  0.37321893  1  0  -0.052088  0  3.696824  0  0  -0.085622  0  3.959441  0  0  -0.08391  0  3.978967  0  0  -0.086152  -0.086124  0  3.945617  0
C  C55  1  0.10405606  0.29023751  0.62678140  1  0  -0.052119  0  3.696852  0  0  -0.085653  0  3.959472  0  0  -0.08394  0  3.978997  0  0  -0.086178  -0.086156  0  3.945646  0
C  C56  1  0.86212265  0.61239530  0.49520406  1  0  -0.165199  0  3.779638  0  0  -0.181553  0  4.038954  0  0  -0.186507  0  4.058806  0  0  -0.097812  -0.178286  0  4.025603  0
C  C57  1  0.13787713  0.38760333  0.50479652  1  0  -0.165159  0  3.779683  0  0  -0.181508  0  4.038995  0  0  -0.186463  0  4.058848  0  0  -0.097784  -0.178241  0  4.025644  0
C  C58  1  0.79045687  0.51093992  0.51204997  1  0  0.151493  0  3.816798  0  0  0.143878  0  4.060127  0  0  0.149822  0  4.082299  0  0  0.094832  0.139526  0  4.045822  0
C  C59  1  0.20954290  0.48905965  0.48794935  1  0  0.151538  0  3.816913  0  0  0.143916  0  4.060203  0  0  0.149859  0  4.082374  0  0  0.094839  0.139563  0  4.045897  0
C  C60  1  0.75176026  0.50652400  0.40984683  1  0  0.125306  0  3.841456  0  0  0.129817  0  4.079907  0  0  0.130196  0  4.105176  0  0  0.078255  0.129211  0  4.062913  0
C  C61  1  0.24823842  0.49347651  0.59015305  1  0  0.125244  0  3.84156  0  0  0.129816  0  4.079941  0  0  0.130195  0  4.10521  0  0  0.078222  0.129211  0  4.062945  0
C  C62  1  0.79266863  0.60216595  0.28721549  1  0  -0.130387  0  3.701239  0  0  -0.159816  0  3.945893  0  0  -0.158904  0  3.964445  0  0  -0.082747  -0.159887  0  3.932851  0
C  C63  1  0.20732900  0.39783456  0.71278457  1  0  -0.130339  0  3.701224  0  0  -0.159784  0  3.945863  0  0  -0.158867  0  3.964409  0  0  -0.082692  -0.159856  0  3.932818  0
C  C64  1  0.68057114  0.33510482  0.57830832  1  0  0.2628  0  3.674131  0  0  0.202814  0  3.950825  0  0  0.219475  0  3.960773  0  0  0.15611  0.191842  0  3.943589  0
C  C65  1  0.31942863  0.66489475  0.42169181  1  0  0.262814  0  3.674213  0  0  0.202835  0  3.950914  0  0  0.219495  0  3.960865  0  0  0.156111  0.191862  0  3.943682  0
C  C66  1  0.20132553  0.00972317  0.27598650  1  0  0.642874  0  3.932542  0  0  0.601138  0  4.217761  0  0  0.635265  0  4.210259  0  0  0.193371  0.578227  0  4.221221  0
C  C67  1  0.79867522  0.99027923  0.72401130  1  0  0.642883  0  3.932587  0  0  0.601118  0  4.217845  0  0  0.635246  0  4.210337  0  0  0.19333  0.578207  0  4.221301  0
C  C68  1  0.22909170  0.00785632  0.39008382  1  0  -0.081965  0  3.784309  0  0  -0.062673  0  4.02436  0  0  -0.073579  0  4.051285  0  0  -0.02851  -0.055849  0  4.007382  0
C  C69  1  0.77090585  0.99214703  0.60991410  1  0  -0.08204  0  3.784409  0  0  -0.062709  0  4.024413  0  0  -0.073616  0  4.051338  0  0  -0.028507  -0.055884  0  4.007433  0
C  C70  1  0.16842925  0.91167930  0.50975158  1  0  -0.057221  0  3.74654  0  0  -0.086638  0  4.005169  0  0  -0.085993  0  4.027272  0  0  -0.08424  -0.087155  0  3.99217  0
C  C71  1  0.83156938  0.08832310  0.49024660  1  0  -0.057156  0  3.746571  0  0  -0.086574  0  4.005181  0  0  -0.085929  0  4.027284  0  0  -0.084219  -0.087095  0  3.992179  0
C  C72  1  0.19129225  0.90254233  0.62055547  1  0  -0.156289  0  3.758762  0  0  -0.173483  0  4.015472  0  0  -0.177736  0  4.033924  0  0  -0.089595  -0.171176  0  4.003762  0
C  C73  1  0.80870958  0.09745912  0.37944259  1  0  -0.156282  0  3.758782  0  0  -0.173465  0  4.015474  0  0  -0.177717  0  4.033927  0  0  -0.089571  -0.171161  0  4.003768  0
C  C74  1  0.27666270  0.99362510  0.60829366  1  0  0.175805  0  3.773259  0  0  0.165891  0  4.015206  0  0  0.1723  0  4.036635  0  0  0.105955  0.161684  0  4.000859  0
C  C75  1  0.72333595  0.00637636  0.39170497  1  0  0.175779  0  3.773232  0  0  0.165843  0  4.015206  0  0  0.172251  0  4.036635  0  0  0.105915  0.161636  0  4.000859  0
C  C76  1  0.33759876  0.09143357  0.48913751  1  0  0.127699  0  3.826952  0  0  0.128816  0  4.066029  0  0  0.129842  0  4.091587  0  0  0.082693  0.12799  0  4.048498  0
C  C77  1  0.66239992  0.90856695  0.51086156  1  0  0.127635  0  3.826937  0  0  0.128753  0  4.066028  0  0  0.129778  0  4.091587  0  0  0.082678  0.127927  0  4.048498  0
C  C78  1  0.31465052  0.09863258  0.37860189  1  0  -0.133806  0  3.715296  0  0  -0.165596  0  3.968602  0  0  -0.164056  0  3.98628  0  0  -0.084903  -0.166077  0  3.956299  0
C  C79  1  0.68534708  0.90136888  0.62139773  1  0  -0.133722  0  3.71525  0  0  -0.165507  0  3.968539  0  0  -0.163966  0  3.986217  0  0  -0.08488  -0.16599  0  3.956236  0
C  C80  1  0.40049375  0.11680681  0.63320488  1  0  0.272868  0  3.647671  0  0  0.20825  0  3.922553  0  0  0.225295  0  3.934964  0  0  0.166433  0.196951  0  3.914492  0
C  C81  1  0.59950496  0.88319276  0.36679544  1  0  0.272804  0  3.647749  0  0  0.208175  0  3.922639  0  0  0.225219  0  3.935055  0  0  0.166395  0.196876  0  3.914581  0
C  C82  1  0.49300217  0.05891398  0.93632565  1  0  0.554978  0  3.938032  0  0  0.513499  0  4.233621  0  0  0.544416  0  4.22185  0  0  0.211129  0.492319  0  4.240428  0
C  C83  1  0.50699754  0.94108747  0.06367522  1  0  0.555067  0  3.937955  0  0  0.513617  0  4.233504  0  0  0.544541  0  4.221732  0  0  0.211172  0.492438  0  4.240313  0
N  N84  1  0.63907405  0.67389684  0.01230681  1  0  -0.335953  0  3.364028  0  0  -0.2748  0  3.602709  0  0  -0.292888  0  3.61373  0  0  -0.370648  -0.262678  0  3.595146  0
N  N85  1  0.36092680  0.32610179  0.98769277  1  0  -0.335976  0  3.364078  0  0  -0.274814  0  3.602775  0  0  -0.292899  0  3.613792  0  0  -0.370643  -0.262664  0  3.595185  0
N  N86  1  0.55334786  0.49287485  0.17484609  1  0  -0.415817  0  3.269069  0  0  -0.338985  0  3.576321  0  0  -0.36021  0  3.589542  0  0  -0.371347  -0.324489  0  3.567054  0
N  N87  1  0.44665193  0.50712378  0.82515368  1  0  -0.415799  0  3.269041  0  0  -0.338962  0  3.576291  0  0  -0.36019  0  3.589515  0  0  -0.371352  -0.324468  0  3.567029  0
N  N88  1  0.74358708  0.40015533  0.61713824  1  0  -0.349225  0  3.368648  0  0  -0.287852  0  3.606713  0  0  -0.306552  0  3.617933  0  0  -0.378627  -0.275213  0  3.599127  0
N  N89  1  0.25641271  0.59984329  0.38286315  1  0  -0.349246  0  3.368632  0  0  -0.287871  0  3.606692  0  0  -0.30657  0  3.617913  0  0  -0.378621  -0.275232  0  3.599107  0
N  N90  1  0.68035347  0.39534313  0.45561907  1  0  -0.430083  0  3.138657  0  0  -0.366208  0  3.430146  0  0  -0.384814  0  3.441638  0  0  -0.357595  -0.353163  0  3.421808  0
N  N91  1  0.31964521  0.60465739  0.54438080  1  0  -0.430079  0  3.138768  0  0  -0.366222  0  3.43024  0  0  -0.384829  0  3.441734  0  0  -0.357595  -0.353178  0  3.421904  0
N  N92  1  0.41472134  0.16718305  0.50878467  1  0  -0.418087  0  3.296015  0  0  -0.337565  0  3.602242  0  0  -0.360115  0  3.61756  0  0  -0.371407  -0.322019  0  3.591873  0
N  N93  1  0.58527630  0.83281652  0.49121584  1  0  -0.417981  0  3.295947  0  0  -0.337459  0  3.602174  0  0  -0.36001  0  3.617494  0  0  -0.371344  -0.321913  0  3.591808  0
N  N94  1  0.31998928  0.01274836  0.69621737  1  0  -0.332676  0  3.356078  0  0  -0.268874  0  3.59069  0  0  -0.287486  0  3.601925  0  0  -0.367728  -0.256664  0  3.582957  0
N  N95  1  0.68001048  0.98725121  0.30378195  1  0  -0.332662  0  3.356112  0  0  -0.268827  0  3.590693  0  0  -0.287442  0  3.601939  0  0  -0.36771  -0.256615  0  3.582958  0
O  O96  1  0.82506882  0.25419186  0.84307898  1  0  -0.686255  0  2.082311  0  0  -0.627005  0  2.31927  0  0  -0.653001  0  2.313166  0  0  -0.346837  -0.60862  0  2.323103  0
O  O97  1  0.17493203  0.74580677  0.15692060  1  0  -0.686283  0  2.082418  0  0  -0.627015  0  2.319346  0  0  -0.653007  0  2.313241  0  0  -0.346852  -0.608635  0  2.323196  0
O  O98  1  0.75135848  0.13505182  0.04679460  1  0  -0.701229  0  2.051264  0  0  -0.648376  0  2.292107  0  0  -0.674053  0  2.2844  0  0  -0.371758  -0.630126  0  2.296852  0
O  O99  1  0.24864446  0.86494775  0.95320578  1  0  -0.701234  0  2.051252  0  0  -0.648392  0  2.292089  0  0  -0.674073  0  2.284387  0  0  -0.371774  -0.630142  0  2.296832  0
O  O100  1  0.93517702  0.91663856  0.12558718  1  0  -0.835037  0  2.099653  0  0  -0.778556  0  2.363301  0  0  -0.803104  0  2.351812  0  0  -0.450421  -0.759584  0  2.370146  0
O  O101  1  0.06482382  0.08336006  0.87441402  1  0  -0.835066  0  2.099636  0  0  -0.778591  0  2.363273  0  0  -0.80314  0  2.351783  0  0  -0.450445  -0.759609  0  2.370093  0
O  O102  1  0.89460660  0.79890265  0.04483725  1  0  -0.667673  0  1.947025  0  0  -0.623972  0  2.181245  0  0  -0.646482  0  2.172319  0  0  -0.372771  -0.607981  0  2.187103  0
O  O103  1  0.10539528  0.20109692  0.95516251  1  0  -0.667637  0  1.946988  0  0  -0.623943  0  2.181201  0  0  -0.646456  0  2.172277  0  0  -0.372748  -0.607956  0  2.187058  0
O  O104  1  0.25528732  0.09365456  0.16507347  1  0  -0.714691  0  2.031231  0  0  -0.661078  0  2.2648  0  0  -0.686682  0  2.256549  0  0  -0.377286  -0.642951  0  2.269713  0
O  O105  1  0.74471451  0.90634689  0.83492540  1  0  -0.714681  0  2.031219  0  0  -0.661066  0  2.264796  0  0  -0.686669  0  2.256546  0  0  -0.377268  -0.642939  0  2.269707  0
O  O106  1  0.12493973  0.92467930  0.28816606  1  0  -0.690181  0  1.983985  0  0  -0.643699  0  2.226417  0  0  -0.667736  0  2.217146  0  0  -0.391014  -0.626254  0  2.231783  0
O  O107  1  0.87505893  0.07532216  0.71183337  1  0  -0.690192  0  1.984037  0  0  -0.643686  0  2.226452  0  0  -0.667721  0  2.217177  0  0  -0.390988  -0.626242  0  2.231815  0
O  O108  1  0.60587156  0.11370257  0.86534889  1  0  -0.660626  0  2.097289  0  0  -0.614206  0  2.346777  0  0  -0.638256  0  2.33983  0  0  -0.367564  -0.596519  0  2.350781  0
O  O109  1  0.39412813  0.88629981  0.13465477  1  0  -0.660649  0  2.097284  0  0  -0.61425  0  2.34679  0  0  -0.638286  0  2.339803  0  0  -0.367565  -0.596562  0  2.350795  0
O  O110  1  0.36955038  0.09247936  0.91282217  1  0  -0.651919  0  2.070177  0  0  -0.605366  0  2.319885  0  0  -0.628902  0  2.312833  0  0  -0.371854  -0.587987  0  2.32432  0
O  O111  1  0.63044936  0.90752115  0.08717833  1  0  -0.651969  0  2.070116  0  0  -0.605442  0  2.319837  0  0  -0.628955  0  2.312726  0  0  -0.371901  -0.588061  0  2.324274  0
