# generated using pymatgen
data_FeH7C10N3O5
_symmetry_space_group_name_H-M   'P 1'
_cell_length_a   7.53151199
_cell_length_b   10.07184756
_cell_length_c   15.79857372
_cell_angle_alpha   89.99936193
_cell_angle_beta   89.98752805
_cell_angle_gamma   89.99964910
_symmetry_Int_Tables_number   1
_chemical_formula_structural   FeH7C10N3O5
_chemical_formula_sum   'Fe4 H28 C40 N12 O20'
_cell_volume   1198.42038211
_cell_formula_units_Z   4
loop_
 _symmetry_equiv_pos_site_id
 _symmetry_equiv_pos_as_xyz
  1  'x, y, z'
loop_
 _atom_site_type_symbol
 _atom_site_label
 _atom_site_symmetry_multiplicity
 _atom_site_fract_x
 _atom_site_fract_y
 _atom_site_fract_z
 _atom_site_occupancy
 _atom_site_pbe_bader_charge
 _atom_site_pbe_bader_spin_density
 _atom_site_pbe_cm5_charge
 _atom_site_pbe_ddec_charge
 _atom_site_pbe_ddec_spin_density
 _atom_site_pbe_ddec_sum_bond_order
 _atom_site_pbe_magmom
Fe  Fe0  1  0.65250109  0.52244393  0.90591773  1  1.462301  3.70016  0.716636  0.956434  3.936313  2.571687  3.669
Fe  Fe1  1  0.34750056  0.47759623  0.40600686  1  1.461793  3.700337  0.71664  0.956655  3.936506  2.570732  3.669
Fe  Fe2  1  0.15250277  0.97754833  0.90592102  1  1.462344  3.700202  0.716638  0.956472  3.93639  2.571749  3.669
Fe  Fe3  1  0.84749889  0.02240545  0.40600357  1  1.461898  3.700382  0.716697  0.956852  3.936585  2.571073  3.669
H  H4  1  0.56317449  0.96529999  0.71566939  1  0.505113  0.000815  0.345704  0.305586  0.000135  0.890678  0.0
H  H5  1  0.42541388  0.39394650  0.58393882  1  0.148923  0.001374  0.123068  0.107462  -6e-06  0.99165  0.001
H  H6  1  0.33471985  0.76301102  0.47531845  1  0.10964  0.001603  0.119739  0.092375  0.000124  1.008825  0.001
H  H7  1  0.45303768  0.88034564  0.59944401  1  0.043264  0.000989  0.113304  0.12189  0.000483  0.983054  0.0
H  H8  1  0.55809161  0.49576154  0.71309010  1  0.11788  0.000516  0.11198  0.125359  0.000127  1.016142  0.0
H  H9  1  0.73672969  0.29210234  0.82951870  1  0.660218  0.001392  0.288665  0.386619  0.000584  0.954511  0.003
H  H10  1  0.91960132  0.37688968  0.83393530  1  0.666099  0.002056  0.29382  0.391518  0.000822  0.93902  0.003
H  H11  1  0.43681887  0.03469579  0.21559678  1  0.50401  0.000813  0.345628  0.305884  0.000135  0.890578  0.0
H  H12  1  0.57460540  0.60604956  0.08383078  1  0.149087  0.001377  0.12296  0.107342  -5e-06  0.991576  0.001
H  H13  1  0.66526329  0.23697731  0.97520283  1  0.107574  0.001601  0.119712  0.092369  0.000123  1.008854  0.001
H  H14  1  0.54693333  0.11963328  0.09934232  1  0.043152  0.000991  0.113221  0.121715  0.000484  0.982927  0.0
H  H15  1  0.44192817  0.50422237  0.21300599  1  0.11799  0.000518  0.111968  0.125624  0.000128  1.015909  0.0
H  H16  1  0.26329907  0.70788651  0.32950727  1  0.660228  0.001391  0.288739  0.386751  0.000583  0.954331  0.003
H  H17  1  0.08042939  0.62310604  0.33392248  1  0.666252  0.002056  0.293847  0.391525  0.000823  0.938969  0.003
H  H18  1  0.06315572  0.53471683  0.71566828  1  0.505232  0.000815  0.345581  0.305415  0.000136  0.890752  0.0
H  H19  1  0.92540890  0.10606465  0.58392606  1  0.148731  0.001374  0.123058  0.10736  -6e-06  0.991843  0.001
H  H20  1  0.83470455  0.73699671  0.47532247  1  0.10965  0.001603  0.119743  0.092425  0.000124  1.008889  0.001
H  H21  1  0.95302462  0.61966535  0.59945330  1  0.043371  0.00099  0.113274  0.121805  0.000484  0.98315  0.0
H  H22  1  0.05808768  0.00426106  0.71308288  1  0.118662  0.000516  0.11196  0.125348  0.000127  1.016171  0.0
H  H23  1  0.23671753  0.20789853  0.82951824  1  0.660153  0.001392  0.28866  0.386686  0.000584  0.954421  0.003
H  H24  1  0.41960310  0.12312314  0.83393545  1  0.666253  0.002057  0.293765  0.391402  0.000823  0.939171  0.003
H  H25  1  0.93681906  0.46530277  0.21559536  1  0.504053  0.000814  0.34563  0.305886  0.000135  0.890442  0.0
H  H26  1  0.07457055  0.89392843  0.08384164  1  0.148633  0.001376  0.122954  0.107352  -5e-06  0.991743  0.001
H  H27  1  0.16526000  0.26299658  0.97520957  1  0.107851  0.0016  0.119732  0.092423  0.000123  1.009034  0.001
H  H28  1  0.04693974  0.38034534  0.09934948  1  0.043275  0.000991  0.113186  0.12179  0.000483  0.9829  0.0
H  H29  1  0.94190554  0.99576653  0.21301764  1  0.117904  0.000518  0.112033  0.125648  0.000128  1.016006  0.0
H  H30  1  0.76329927  0.79212110  0.32951343  1  0.660272  0.001391  0.288819  0.386816  0.000583  0.954218  0.003
H  H31  1  0.58043557  0.87692024  0.33393119  1  0.666069  0.002056  0.293921  0.391564  0.000822  0.938888  0.003
C  C32  1  0.43399717  0.50123557  0.59070696  1  0.456678  -0.023013  0.039109  0.091101  -0.024121  3.931337  -0.012
C  C33  1  0.38305114  0.70713191  0.52971094  1  0.494463  -0.021521  0.044023  0.094822  -0.022381  3.949915  -0.012
C  C34  1  0.45004519  0.77211326  0.60010031  1  -0.034874  0.005704  -0.085515  -0.167869  0.000403  3.959677  0.007
C  C35  1  0.50689815  0.55821142  0.66234363  1  -0.08063  0.005527  -0.085683  -0.163538  0.00045  3.95154  0.006
C  C36  1  0.51741607  0.69731690  0.66816020  1  0.050878  -0.041388  -0.00224  0.032085  -0.044119  4.049075  -0.027
C  C37  1  0.60285627  0.75833566  0.74015321  1  0.996892  0.001576  0.220026  0.290634  -0.001169  4.026266  0.005
C  C38  1  0.72947367  0.91704936  0.81823543  1  0.379156  -0.008089  0.098599  0.01989  -0.00913  3.917297  -0.004
C  C39  1  0.77365596  0.79174129  0.84961175  1  0.476024  0.001112  0.082274  -0.005525  -0.00076  4.007082  0.002
C  C40  1  0.77335188  0.05675210  0.83902041  1  1.63868  -0.004046  0.219244  0.565542  -0.00512  4.236896  -0.001
C  C41  1  0.88383901  0.75036368  0.92272103  1  1.606585  0.007542  0.2174  0.590298  0.00513  4.187487  0.008
C  C42  1  0.56602166  0.49874250  0.09060564  1  0.456531  -0.023023  0.039456  0.091577  -0.024114  3.931032  -0.012
C  C43  1  0.61691203  0.29285813  0.02959571  1  0.495229  -0.021494  0.044105  0.094993  -0.022353  3.94991  -0.011
C  C44  1  0.54992817  0.22787656  0.09999057  1  -0.035544  0.005701  -0.085336  -0.167291  0.000407  3.959415  0.007
C  C45  1  0.49309578  0.44176840  0.16224519  1  -0.078685  0.005527  -0.085864  -0.163868  0.000445  3.952284  0.006
C  C46  1  0.48256457  0.30266877  0.16807714  1  0.051836  -0.041375  -0.002014  0.03195  -0.044104  4.049352  -0.027
C  C47  1  0.39713515  0.24166168  0.24010156  1  0.995776  0.001564  0.219769  0.29048  -0.001178  4.026986  0.005
C  C48  1  0.27051911  0.08294564  0.31820496  1  0.379261  -0.008061  0.098678  0.020366  -0.0091  3.917093  -0.004
C  C49  1  0.22635694  0.20824324  0.34959634  1  0.469171  0.001124  0.082207  -0.005893  -0.000755  4.007229  0.002
C  C50  1  0.22666322  0.94323162  0.33900221  1  1.637805  -0.004032  0.219155  0.565342  -0.005103  4.236132  -0.001
C  C51  1  0.11617885  0.24958882  0.42273823  1  1.605484  0.007564  0.217241  0.590278  0.005143  4.187293  0.008
C  C52  1  0.93399312  0.99877268  0.59070720  1  0.456775  -0.023022  0.039116  0.091207  -0.024131  3.931386  -0.012
C  C53  1  0.88304205  0.79287267  0.52971329  1  0.495041  -0.021516  0.044063  0.094779  -0.022379  3.950179  -0.012
C  C54  1  0.95003660  0.72789971  0.60010060  1  -0.03522  0.005692  -0.08552  -0.16774  0.000397  3.959916  0.007
C  C55  1  0.00689480  0.94180659  0.66233896  1  -0.080961  0.005522  -0.085618  -0.163348  0.000446  3.951823  0.006
C  C56  1  0.01741380  0.80270195  0.66816033  1  0.050357  -0.041414  -0.002305  0.031727  -0.044149  4.049452  -0.027
C  C57  1  0.10285447  0.74167955  0.74015631  1  0.99712  0.001569  0.220093  0.290654  -0.001172  4.02606  0.005
C  C58  1  0.22946647  0.58295992  0.81823270  1  0.38023  -0.008093  0.098679  0.020053  -0.009136  3.9172  -0.004
C  C59  1  0.27365974  0.70826426  0.84960939  1  0.475849  0.001112  0.082223  -0.005679  -0.000761  4.007156  0.002
C  C60  1  0.27335383  0.44325538  0.83902016  1  1.636945  -0.00405  0.219064  0.565503  -0.005122  4.236798  -0.001
C  C61  1  0.38385308  0.74962420  0.92272154  1  1.606697  0.007536  0.217429  0.590369  0.005126  4.187266  0.008
C  C62  1  0.06600314  0.00123617  0.09061679  1  0.45734  -0.023019  0.039218  0.091215  -0.024114  3.931074  -0.012
C  C63  1  0.11690386  0.20712134  0.02960475  1  0.49588  -0.021489  0.044031  0.094805  -0.022352  3.950566  -0.011
C  C64  1  0.04992215  0.27210699  0.09999471  1  -0.035912  0.005693  -0.085308  -0.167407  0.000405  3.959779  0.007
C  C65  1  0.99308718  0.05821493  0.16225999  1  -0.079231  0.005525  -0.085762  -0.163683  0.000445  3.951914  0.006
C  C66  1  0.98256285  0.19731848  0.16808334  1  0.051113  -0.041378  -0.00204  0.031978  -0.044105  4.049039  -0.027
C  C67  1  0.89713297  0.25833467  0.24010670  1  0.996336  0.001567  0.219651  0.290303  -0.001177  4.027059  0.005
C  C68  1  0.77052100  0.41705295  0.31820452  1  0.379686  -0.008068  0.098679  0.020316  -0.009108  3.917198  -0.004
C  C69  1  0.72635715  0.29175303  0.34959933  1  0.469825  0.001126  0.082245  -0.005778  -0.000754  4.007209  0.002
C  C70  1  0.72664534  0.55676706  0.33899867  1  1.636533  -0.004033  0.219113  0.5651  -0.005102  4.236443  -0.001
C  C71  1  0.61617274  0.25040971  0.42274279  1  1.605538  0.007553  0.217085  0.590227  0.005135  4.187433  0.008
N  N72  1  0.37695738  0.57332038  0.52343648  1  -1.22834  0.052674  -0.339235  -0.256347  0.022829  3.543724  0.041
N  N73  1  0.61940375  0.89221167  0.75088132  1  -1.2953  -0.00486  -0.366855  -0.267283  -0.005844  3.647829  -0.004
N  N74  1  0.69129201  0.69513003  0.80209750  1  -1.18606  0.018992  -0.328052  -0.394154  0.007034  3.393775  0.012
N  N75  1  0.62302460  0.42666381  0.02332473  1  -1.229854  0.052729  -0.339423  -0.256785  0.022834  3.543537  0.041
N  N76  1  0.38057744  0.10777854  0.25082665  1  -1.29434  -0.004869  -0.366813  -0.267916  -0.005852  3.648454  -0.004
N  N77  1  0.30872012  0.30486326  0.30207479  1  -1.176937  0.018922  -0.328001  -0.393973  0.007006  3.393125  0.012
N  N78  1  0.87694724  0.92668334  0.52343661  1  -1.228586  0.052667  -0.339303  -0.256418  0.022825  3.543607  0.041
N  N79  1  0.11940166  0.60780229  0.75088602  1  -1.295764  -0.004865  -0.366787  -0.266983  -0.005848  3.647754  -0.004
N  N80  1  0.19130034  0.80488270  0.80209887  1  -1.186378  0.018982  -0.328045  -0.394122  0.007026  3.393885  0.012
N  N81  1  0.12301614  0.07331078  0.02333853  1  -1.229971  0.052697  -0.339298  -0.256489  0.022829  3.543452  0.041
N  N82  1  0.88057554  0.39221274  0.25082892  1  -1.294223  -0.004868  -0.366873  -0.267894  -0.005851  3.648434  -0.004
N  N83  1  0.80871709  0.19513443  0.30207848  1  -1.177821  0.018938  -0.32785  -0.393859  0.007014  3.393152  0.012
O  O84  1  0.65324948  0.14271194  0.82177285  1  -1.188018  0.004846  -0.308613  -0.547859  0.001235  2.180471  0.004
O  O85  1  0.92494676  0.08576900  0.86825499  1  -1.168381  0.052727  -0.30794  -0.533842  0.024362  2.357645  0.041
O  O86  1  0.98973802  0.83318706  0.95624551  1  -1.181615  0.078451  -0.31151  -0.545261  0.03625  2.402751  0.055
O  O87  1  0.86941165  0.63066153  0.94778333  1  -1.148333  0.083247  -0.31808  -0.52964  0.037799  2.27092  0.064
O  O88  1  0.78789585  0.38482796  0.83456492  1  -1.300892  0.08151  -0.579802  -0.760326  0.03842  2.172864  0.051
O  O89  1  0.34677090  0.85727208  0.32170932  1  -1.187518  0.004862  -0.308663  -0.54788  0.001245  2.17946  0.004
O  O90  1  0.07511068  0.91420727  0.36830583  1  -1.168468  0.052726  -0.307851  -0.533846  0.024359  2.357594  0.041
O  O91  1  0.01023393  0.16676585  0.45626031  1  -1.180921  0.078526  -0.311281  -0.545028  0.036286  2.402603  0.055
O  O92  1  0.13063586  0.36927167  0.44785387  1  -1.148315  0.08324  -0.318118  -0.529798  0.037789  2.270903  0.064
O  O93  1  0.21213589  0.61516478  0.33460944  1  -1.300888  0.081451  -0.579931  -0.760526  0.038399  2.17276  0.051
O  O94  1  0.15322554  0.35729046  0.82176815  1  -1.18719  0.004849  -0.308548  -0.548002  0.001236  2.179983  0.004
O  O95  1  0.42492238  0.41423626  0.86824925  1  -1.168142  0.0527  -0.307856  -0.533786  0.024352  2.358273  0.041
O  O96  1  0.48973548  0.66680767  0.95623902  1  -1.181785  0.078427  -0.311555  -0.545291  0.036243  2.403312  0.055
O  O97  1  0.36942612  0.86934585  0.94778488  1  -1.148181  0.083257  -0.318163  -0.52978  0.037805  2.27034  0.064
O  O98  1  0.28789106  0.11517754  0.83456829  1  -1.301049  0.081507  -0.579739  -0.760267  0.038412  2.172859  0.051
O  O99  1  0.84677492  0.64273328  0.32170199  1  -1.187139  0.004866  -0.308815  -0.547988  0.001247  2.179152  0.004
O  O100  1  0.57511382  0.58579760  0.36829574  1  -1.167991  0.052707  -0.307678  -0.533476  0.024347  2.357961  0.041
O  O101  1  0.51026169  0.33322169  0.45626870  1  -1.180937  0.078471  -0.311299  -0.545056  0.036266  2.402964  0.055
O  O102  1  0.63062272  0.13070352  0.44784790  1  -1.14846  0.083257  -0.317987  -0.529814  0.037798  2.27051  0.064
O  O103  1  0.71214201  0.88483902  0.33461683  1  -1.300736  0.081457  -0.580091  -0.760635  0.038408  2.172801  0.051
