# generated using pymatgen
data_FeH9C7NO7
_symmetry_space_group_name_H-M   'P 1'
_cell_length_a   6.66917267
_cell_length_b   8.36201854
_cell_length_c   15.76101980
_cell_angle_alpha   90.00032905
_cell_angle_beta   90.00076785
_cell_angle_gamma   89.99971977
_symmetry_Int_Tables_number   1
_chemical_formula_structural   FeH9C7NO7
_chemical_formula_sum   'Fe4 H36 C28 N4 O28'
_cell_volume   878.95654127
_cell_formula_units_Z   4
loop_
 _symmetry_equiv_pos_site_id
 _symmetry_equiv_pos_as_xyz
  1  'x, y, z'
loop_
 _atom_site_type_symbol
 _atom_site_label
 _atom_site_symmetry_multiplicity
 _atom_site_fract_x
 _atom_site_fract_y
 _atom_site_fract_z
 _atom_site_occupancy
 _atom_site_pbe_cm5_charge
 _atom_site_pbe_ddec_charge
 _atom_site_pbe_ddec_spin_density
 _atom_site_pbe_ddec_sum_bond_order
 _atom_site_pbe_magmom
Fe  Fe0  1  0.41906785  0.32131854  0.40485049  1  0.624142  0.743029  -0.010601  3.042688  -0.006
Fe  Fe1  1  0.58093793  0.82131336  0.59515095  1  0.624089  0.742862  -0.010547  3.043015  -0.006
Fe  Fe2  1  0.58093688  0.32131494  0.90485286  1  0.624068  0.742942  0.010587  3.042591  0.006
Fe  Fe3  1  0.41906740  0.82130619  0.09515112  1  0.62413  0.74291  0.010539  3.042848  0.006
H  H4  1  0.52823147  0.61961937  0.37929961  1  0.299935  0.377198  -8.9e-05  0.970971  0.0
H  H5  1  0.47180106  0.11960156  0.62070565  1  0.299972  0.377287  -8.9e-05  0.970878  0.0
H  H6  1  0.47178857  0.61960782  0.87929438  1  0.299962  0.377252  8.9e-05  0.970911  0.0
H  H7  1  0.52818398  0.11959038  0.12070961  1  0.299946  0.3772  8.9e-05  0.970996  0.0
H  H8  1  0.63054106  0.55206059  0.46409254  1  0.304029  0.376733  -0.000335  0.953259  -0.001
H  H9  1  0.36948289  0.05202431  0.53591887  1  0.304076  0.37688  -0.000331  0.953124  -0.001
H  H10  1  0.36949257  0.55205302  0.96408482  1  0.304158  0.376886  0.000334  0.953128  0.001
H  H11  1  0.63049840  0.05201514  0.03592785  1  0.304151  0.376983  0.000331  0.953127  0.001
H  H12  1  0.38974143  0.36887741  0.57664266  1  0.306728  0.394947  -7.3e-05  0.942404  0.0
H  H13  1  0.61024156  0.86889180  0.42334433  1  0.306724  0.394874  -7.3e-05  0.942477  0.0
H  H14  1  0.61025266  0.36887430  0.07665153  1  0.306714  0.394842  7.3e-05  0.942491  0.0
H  H15  1  0.38975732  0.86889372  0.92334180  1  0.306813  0.395061  7.3e-05  0.942261  0.0
H  H16  1  0.16421809  0.38081257  0.54036583  1  0.306627  0.39235  -0.000392  0.938201  -0.001
H  H17  1  0.83577682  0.88082050  0.45962437  1  0.306582  0.392361  -0.000391  0.938217  -0.001
H  H18  1  0.83578977  0.38082294  0.04037916  1  0.306603  0.392335  0.000392  0.938227  0.001
H  H19  1  0.16423213  0.88082687  0.95961739  1  0.306636  0.392376  0.00039  0.938218  0.001
H  H20  1  0.76009370  0.28437036  0.49591912  1  0.29811  0.38505  -5.6e-05  0.953804  0.0
H  H21  1  0.23984933  0.78435713  0.50407777  1  0.298089  0.385032  -5.6e-05  0.953749  0.0
H  H22  1  0.23988713  0.28437524  0.99592145  1  0.298123  0.385088  5.6e-05  0.953715  0.0
H  H23  1  0.76015786  0.78435105  0.00408242  1  0.298118  0.385161  5.6e-05  0.953626  0.0
H  H24  1  0.67774780  0.10759368  0.46987969  1  0.298236  0.378223  0.000166  0.964248  0.0
H  H25  1  0.32223082  0.60758521  0.53010397  1  0.298095  0.378183  0.000166  0.964339  0.0
H  H26  1  0.32222582  0.10759347  0.96988122  1  0.298209  0.378252  -0.000165  0.964202  0.0
H  H27  1  0.67780079  0.60758183  0.03011259  1  0.298203  0.378354  -0.000165  0.964119  0.0
H  H28  1  0.88666245  0.67325299  0.18119297  1  0.112853  0.129184  1e-06  1.007062  0.0
H  H29  1  0.11334126  0.17324347  0.81881309  1  0.112885  0.129256  1e-06  1.007052  0.0
H  H30  1  0.11333752  0.67323923  0.68119331  1  0.11284  0.129235  -1e-06  1.007085  0.0
H  H31  1  0.88665419  0.17324647  0.31880450  1  0.112907  0.129323  -1e-06  1.007131  0.0
H  H32  1  0.82732018  0.68182125  0.33660535  1  0.109798  0.10877  0.000111  1.039369  0.0
H  H33  1  0.17268647  0.18181820  0.66340327  1  0.109848  0.108896  0.00011  1.039293  0.0
H  H34  1  0.17267414  0.68183477  0.83660666  1  0.109797  0.108765  -0.000111  1.039287  0.0
H  H35  1  0.82733101  0.18184056  0.16339498  1  0.109823  0.108779  -0.00011  1.039253  0.0
H  H36  1  0.03455973  0.51718003  0.43398930  1  0.12004  0.092408  4.4e-05  1.02609  0.0
H  H37  1  0.96545995  0.01718127  0.56601120  1  0.120063  0.092458  4.4e-05  1.025996  0.0
H  H38  1  0.96545818  0.51719291  0.93399514  1  0.12006  0.09248  -4.4e-05  1.025901  0.0
H  H39  1  0.03453900  0.01719231  0.06600347  1  0.120062  0.092461  -4.3e-05  1.025818  0.0
C  C40  1  0.17754827  0.50473001  0.10089703  1  0.235522  0.60857  0.002128  4.136131  0.002
C  C41  1  0.82246399  0.00470071  0.89910280  1  0.235692  0.608868  0.002139  4.135811  0.002
C  C42  1  0.82246222  0.50470038  0.60090078  1  0.235665  0.608711  -0.002131  4.135362  -0.002
C  C43  1  0.17751705  0.00467293  0.39909842  1  0.235617  0.608935  -0.002146  4.135454  -0.002
C  C44  1  0.14142230  0.51295826  0.19465801  1  0.002186  -0.062285  6.2e-05  3.961768  0.0
C  C45  1  0.85858391  0.01294575  0.80534249  1  0.002106  -0.062434  6e-05  3.961791  0.0
C  C46  1  0.85857760  0.51293926  0.69466387  1  0.002129  -0.062294  -6.1e-05  3.961812  0.0
C  C47  1  0.14140612  0.01293486  0.30533473  1  0.002235  -0.062208  -5.9e-05  3.961598  0.0
C  C48  1  0.98252681  0.60608864  0.22447017  1  -0.073874  -0.084517  -0.000101  3.918667  0.0
C  C49  1  0.01748332  0.10608260  0.77553632  1  -0.073727  -0.084274  -0.0001  3.918427  0.0
C  C50  1  0.01748095  0.60608241  0.72446806  1  -0.073775  -0.084446  0.0001  3.918237  0.0
C  C51  1  0.98250668  0.10608883  0.27553145  1  -0.073894  -0.084641  0.0001  3.918572  0.0
C  C52  1  0.94817158  0.60948189  0.31146825  1  -0.072898  -0.07376  0.000437  3.954248  0.0
C  C53  1  0.05183702  0.10948077  0.68853888  1  -0.073177  -0.074275  0.000434  3.95457  0.0
C  C54  1  0.05182540  0.60948271  0.81147141  1  -0.072945  -0.073854  -0.000436  3.954201  0.0
C  C55  1  0.94817421  0.10949071  0.18852811  1  -0.073006  -0.073852  -0.000433  3.954471  0.0
C  C56  1  0.06561798  0.51944461  0.36633641  1  0.042193  0.087347  -0.000127  3.888455  0.0
C  C57  1  0.93440318  0.01945148  0.63366727  1  0.04222  0.087417  -0.000126  3.888125  0.0
C  C58  1  0.93439329  0.51945641  0.86633699  1  0.042156  0.08731  0.000126  3.888191  0.0
C  C59  1  0.06559489  0.01946240  0.13366416  1  0.042156  0.087316  0.000126  3.888262  0.0
C  C60  1  0.25784722  0.42732831  0.25276549  1  0.094454  0.033532  0.000216  3.959463  0.0
C  C61  1  0.74214890  0.92732416  0.74723564  1  0.094457  0.033548  0.000216  3.959461  0.0
C  C62  1  0.74215505  0.42732052  0.75276624  1  0.094462  0.033539  -0.000216  3.959552  0.0
C  C63  1  0.25783657  0.92731880  0.24723489  1  0.094441  0.033463  -0.000216  3.959462  0.0
C  C64  1  0.42884591  0.32423912  0.23040876  1  0.215429  0.540969  0.000907  4.17305  0.001
C  C65  1  0.57114635  0.82424304  0.76958507  1  0.215417  0.541033  0.000899  4.173044  0.001
C  C66  1  0.57114430  0.32423915  0.73041996  1  0.215403  0.541017  -0.000903  4.173003  -0.001
C  C67  1  0.42885996  0.82423583  0.26958022  1  0.215388  0.540977  -0.000898  4.172755  -0.001
N  N68  1  0.22053060  0.42899591  0.33868178  1  -0.356069  -0.240481  0.000282  3.67202  0.0
N  N69  1  0.77947601  0.92900026  0.66131872  1  -0.355993  -0.2404  0.00028  3.671415  0.0
N  N70  1  0.77948037  0.42899993  0.83868401  1  -0.355961  -0.24042  -0.000281  3.671426  0.0
N  N71  1  0.22051424  0.92900580  0.16131395  1  -0.355929  -0.2403  -0.000279  3.671149  0.0
O  O72  1  0.51929461  0.25949655  0.29367831  1  -0.283034  -0.442653  -0.000241  2.352866  -0.001
O  O73  1  0.48071455  0.75950970  0.70631279  1  -0.282966  -0.442527  -0.000234  2.35319  -0.001
O  O74  1  0.48071599  0.25950649  0.79367820  1  -0.282982  -0.442561  0.00024  2.35347  0.001
O  O75  1  0.51927668  0.75950693  0.20631543  1  -0.282957  -0.442456  0.000236  2.353564  0.001
O  O76  1  0.47482199  0.29809660  0.15305916  1  -0.310067  -0.55777  0.000329  2.299467  0.0
O  O77  1  0.52515994  0.79810751  0.84693840  1  -0.310121  -0.557919  0.000328  2.299322  0.0
O  O78  1  0.52515545  0.29810518  0.65305297  1  -0.310067  -0.557901  -0.000328  2.298953  0.0
O  O79  1  0.47484447  0.79811209  0.34694903  1  -0.310101  -0.557917  -0.000328  2.298904  0.0
O  O80  1  0.28534485  0.61216420  0.06499183  1  -0.292272  -0.510109  -0.001712  2.440164  -0.002
O  O81  1  0.71466374  0.11212134  0.93501785  1  -0.292312  -0.510343  -0.001721  2.43991  -0.002
O  O82  1  0.71466684  0.61214933  0.56498799  1  -0.292344  -0.510237  0.001712  2.439621  0.002
O  O83  1  0.28533425  0.11209794  0.43501852  1  -0.292267  -0.510388  0.001723  2.439101  0.002
O  O84  1  0.09037372  0.39511647  0.05904082  1  -0.304225  -0.562439  0.000415  2.240846  0.0
O  O85  1  0.90964209  0.89507550  0.94095005  1  -0.304288  -0.562592  0.000417  2.240531  0.0
O  O86  1  0.90960915  0.39507694  0.55904761  1  -0.304272  -0.562484  -0.000416  2.240535  0.0
O  O87  1  0.09035718  0.89504686  0.44094073  1  -0.304255  -0.562574  -0.000419  2.240984  0.0
O  O88  1  0.58322254  0.52010397  0.40651549  1  -0.562083  -0.691893  0.003046  2.309455  0.005
O  O89  1  0.41678812  0.02009205  0.59349771  1  -0.562185  -0.692118  0.003024  2.309505  0.005
O  O90  1  0.41679148  0.52010578  0.90651058  1  -0.562231  -0.692093  -0.003035  2.309532  -0.005
O  O91  1  0.58320568  0.02008784  0.09350326  1  -0.562197  -0.692097  -0.003016  2.309735  -0.005
O  O92  1  0.30754143  0.40199968  0.52624916  1  -0.543632  -0.719493  0.00033  2.245825  0.001
O  O93  1  0.69244735  0.90202985  0.47374110  1  -0.54355  -0.719408  0.000324  2.245678  0.001
O  O94  1  0.69246286  0.40200702  0.02625914  1  -0.543585  -0.719413  -0.000328  2.245802  -0.001
O  O95  1  0.30754841  0.90202491  0.97373240  1  -0.543681  -0.719606  -0.000324  2.245557  -0.001
O  O96  1  0.67711294  0.22281578  0.45479835  1  -0.572279  -0.702897  -5.4e-05  2.210862  0.0
O  O97  1  0.32283947  0.72280268  0.54520406  1  -0.572024  -0.702798  -5.2e-05  2.210525  0.0
O  O98  1  0.32285499  0.22281796  0.95479862  1  -0.572182  -0.702934  5.4e-05  2.210683  0.0
O  O99  1  0.67718589  0.72279931  0.04520379  1  -0.572166  -0.703155  5.2e-05  2.210259  0.0
