# generated using pymatgen
data_H22PbC16S2(N2O3)2
_symmetry_space_group_name_H-M   'P 1'
_cell_length_a   8.50196226
_cell_length_b   10.79066559
_cell_length_c   11.90728575
_cell_angle_alpha   71.22460012
_cell_angle_beta   86.21025015
_cell_angle_gamma   84.16377984
_symmetry_Int_Tables_number   1
_chemical_formula_structural   H22PbC16S2(N2O3)2
_chemical_formula_sum   'H44 Pb2 C32 S4 N8 O12'
_cell_volume   1028.26027713
_cell_formula_units_Z   2
loop_
 _symmetry_equiv_pos_site_id
 _symmetry_equiv_pos_as_xyz
  1  'x, y, z'
loop_
 _atom_site_type_symbol
 _atom_site_label
 _atom_site_symmetry_multiplicity
 _atom_site_fract_x
 _atom_site_fract_y
 _atom_site_fract_z
 _atom_site_occupancy
 _atom_site_hle17_bader_spin_density
 _atom_site_hle17_ddec_charge
 _atom_site_hle17_ddec_spin_density
 _atom_site_hle17_ddec_sum_bond_order
 _atom_site_hle17_magmom
 _atom_site_hse06_10hf_bader_spin_density
 _atom_site_hse06_10hf_ddec_charge
 _atom_site_hse06_10hf_ddec_spin_density
 _atom_site_hse06_10hf_ddec_sum_bond_order
 _atom_site_hse06_10hf_magmom
 _atom_site_hse06_bader_spin_density
 _atom_site_hse06_ddec_charge
 _atom_site_hse06_ddec_spin_density
 _atom_site_hse06_ddec_sum_bond_order
 _atom_site_hse06_magmom
 _atom_site_pbe_bader_spin_density
 _atom_site_pbe_cm5_charge
 _atom_site_pbe_ddec_charge
 _atom_site_pbe_ddec_spin_density
 _atom_site_pbe_ddec_sum_bond_order
 _atom_site_pbe_magmom
H  H0  1  0.60330973  0.58552879  0.33626340  1  0  0.135372  0  0.956823  0  0  0.141464  0  1.029369  0  0  0.145383  0  1.026113  0  0  0.110097  0.138738  0  1.031636  0
H  H1  1  0.39669540  0.41447054  0.66373425  1  0  0.135442  0  0.956832  0  0  0.141491  0  1.029395  0  0  0.145412  0  1.026138  0  0  0.110106  0.138767  0  1.031658  0
H  H2  1  0.66112420  0.42284949  0.33636261  1  0  0.125665  0  0.936277  0  0  0.139985  0  0.994539  0  0  0.141785  0  0.994369  0  0  0.105079  0.138693  0  0.994762  0
H  H3  1  0.33887222  0.57715375  0.66362677  1  0  0.125661  0  0.936413  0  0  0.139968  0  0.994646  0  0  0.141771  0  0.994474  0  0  0.105035  0.138677  0  0.994877  0
H  H4  1  0.09754479  0.87316576  0.48933176  1  0  0.116057  0  0.964131  0  0  0.122114  0  1.03292  0  0  0.126079  0  1.031709  0  0  0.099959  0.119254  0  1.034142  0
H  H5  1  0.90246321  0.12683950  0.51066404  1  0  0.116098  0  0.964137  0  0  0.122141  0  1.032923  0  0  0.126106  0  1.031716  0  0  0.099934  0.119275  0  1.034142  0
H  H6  1  0.84259518  0.64686683  0.40640678  1  0  0.12787  0  0.941197  0  0  0.147501  0  1.00167  0  0  0.149909  0  1.000252  0  0  0.096825  0.145694  0  1.002795  0
H  H7  1  0.15740669  0.35314035  0.59358624  1  0  0.127885  0  0.941174  0  0  0.147504  0  1.00168  0  0  0.149911  0  1.000264  0  0  0.096824  0.145692  0  1.002806  0
H  H8  1  0.85029912  0.82062232  0.37049910  1  0  0.12259  0  0.938449  0  0  0.143761  0  0.999148  0  0  0.145646  0  0.998094  0  0  0.097479  0.142492  0  0.999802  0
H  H9  1  0.14971393  0.17938001  0.62949982  1  0  0.122598  0  0.938256  0  0  0.143779  0  0.998972  0  0  0.145664  0  0.997917  0  0  0.097492  0.142507  0  0.99963  0
H  H10  1  0.84388253  0.71991929  0.52097426  1  0  0.123009  0  0.970244  0  0  0.138822  0  1.042231  0  0  0.140692  0  1.04191  0  0  0.091494  0.137466  0  1.042513  0
H  H11  1  0.15611358  0.28008685  0.47902354  1  0  0.123043  0  0.970292  0  0  0.138901  0  1.042228  0  0  0.140771  0  1.041909  0  0  0.091521  0.137546  0  1.042501  0
H  H12  1  0.35556803  0.94963821  0.49572924  1  0  0.116272  0  0.943067  0  0  0.138732  0  1.0006  0  0  0.140348  0  1.000282  0  0  0.092604  0.13763  0  1.000745  0
H  H13  1  0.64443414  0.05035616  0.50427586  1  0  0.116209  0  0.94308  0  0  0.138676  0  1.000621  0  0  0.140292  0  1.000303  0  0  0.092568  0.137573  0  1.000765  0
H  H14  1  0.51788376  0.89512289  0.41539431  1  0  0.123652  0  0.940905  0  0  0.146757  0  0.997872  0  0  0.148561  0  0.997161  0  0  0.098292  0.145474  0  0.998377  0
H  H15  1  0.48211172  0.10487834  0.58460074  1  0  0.123609  0  0.940907  0  0  0.146751  0  0.997843  0  0  0.148554  0  0.997137  0  0  0.098296  0.145462  0  0.998353  0
H  H16  1  0.48229412  0.80771539  0.56749276  1  0  0.134854  0  0.948919  0  0  0.152325  0  1.016843  0  0  0.154883  0  1.015241  0  0  0.095121  0.150399  0  1.018038  0
H  H17  1  0.51772375  0.19228599  0.43250536  1  0  0.134794  0  0.949014  0  0  0.152277  0  1.016926  0  0  0.15483  0  1.015329  0  0  0.095089  0.150353  0  1.018117  0
H  H18  1  0.85048782  0.11900414  0.26304656  1  0  0.128565  0  0.933856  0  0  0.137113  0  0.999048  0  0  0.140757  0  0.995451  0  0  0.105887  0.134576  0  1.001527  0
H  H19  1  0.14952056  0.88100801  0.73694640  1  0  0.128637  0  0.933899  0  0  0.137173  0  0.999089  0  0  0.14082  0  0.995482  0  0  0.105913  0.134624  0  1.001594  0
H  H20  1  0.85108316  0.26491005  0.30326540  1  0  0.127316  0  0.941763  0  0  0.142847  0  1.001522  0  0  0.144874  0  1.000874  0  0  0.106996  0.141342  0  1.002173  0
H  H21  1  0.14891144  0.73509903  0.69673163  1  0  0.127381  0  0.941738  0  0  0.142881  0  1.001529  0  0  0.144908  0  1.000881  0  0  0.107028  0.141388  0  1.00218  0
H  H22  1  0.32663468  0.78549359  0.09278607  1  0  0.146062  0  0.94759  0  0  0.151763  0  1.012518  0  0  0.156486  0  1.01083  0  0  0.110861  0.148361  0  1.013943  0
H  H23  1  0.67334841  0.21450261  0.90721690  1  0  0.146038  0  0.947643  0  0  0.151747  0  1.012571  0  0  0.156468  0  1.010885  0  0  0.110901  0.148337  0  1.013999  0
H  H24  1  0.88620597  0.83242049  0.15525921  1  0  0.120057  0  0.95325  0  0  0.141072  0  1.015877  0  0  0.142587  0  1.015458  0  0  0.094958  0.139941  0  1.016176  0
H  H25  1  0.11377597  0.16757563  0.84475559  1  0  0.12012  0  0.953387  0  0  0.141071  0  1.016049  0  0  0.142579  0  1.015646  0  0  0.094959  0.139941  0  1.01634  0
H  H26  1  0.03844618  0.71803425  0.12630496  1  0  0.12966  0  0.966166  0  0  0.147555  0  1.031527  0  0  0.15019  0  1.029561  0  0  0.098903  0.145391  0  1.033315  0
H  H27  1  0.96154070  0.28195993  0.87371185  1  0  0.129672  0  0.966351  0  0  0.147624  0  1.031585  0  0  0.150261  0  1.029614  0  0  0.098952  0.14546  0  1.033369  0
H  H28  1  0.98233153  0.86339030  0.01334332  1  0  0.134478  0  0.952675  0  0  0.156297  0  1.010292  0  0  0.157697  0  1.010712  0  0  0.099516  0.155285  0  1.010014  0
H  H29  1  0.01765181  0.13660388  0.98667113  1  0  0.134521  0  0.952493  0  0  0.156297  0  1.010158  0  0  0.157674  0  1.010597  0  0  0.099504  0.15528  0  1.009883  0
H  H30  1  0.62216269  0.00031801  0.13721118  1  0  0.130916  0  0.932855  0  0  0.152076  0  0.990943  0  0  0.154585  0  0.989405  0  0  0.101112  0.150161  0  0.992246  0
H  H31  1  0.37782656  0.99968613  0.86278332  1  0  0.130836  0  0.932903  0  0  0.151975  0  0.991025  0  0  0.154483  0  0.989483  0  0  0.101075  0.150059  0  0.992335  0
H  H32  1  0.59737964  0.86683610  0.08266546  1  0  0.133294  0  0.932622  0  0  0.156135  0  0.985587  0  0  0.15802  0  0.98546  0  0  0.101622  0.154725  0  0.985771  0
H  H33  1  0.40260580  0.13316012  0.91733655  1  0  0.13333  0  0.932624  0  0  0.156191  0  0.985547  0  0  0.158076  0  0.985418  0  0  0.101682  0.154783  0  0.985731  0
H  H34  1  0.60184905  0.83927060  0.23714869  1  0  0.123039  0  0.946678  0  0  0.14466  0  1.010262  0  0  0.146225  0  1.009719  0  0  0.099935  0.14349  0  1.010667  0
H  H35  1  0.39814257  0.16073352  0.76285243  1  0  0.122946  0  0.946816  0  0  0.14457  0  1.010383  0  0  0.146132  0  1.009842  0  0  0.099899  0.143398  0  1.010789  0
H  H36  1  0.07655123  0.47972244  0.78692474  1  0  0.419946  0  0.888108  0  0  0.387223  0  0.954969  0  0  0.398997  0  0.938039  0  0  0.279978  0.378899  0  0.966917  0
H  H37  1  0.92345003  0.52027982  0.21307225  1  0  0.419912  0  0.888164  0  0  0.387168  0  0.955055  0  0  0.398946  0  0.938118  0  0  0.279943  0.378842  0  0.967005  0
H  H38  1  0.94972557  0.47422296  0.69352538  1  0  0.377972  0  0.947752  0  0  0.338194  0  1.028036  0  0  0.349313  0  1.01215  0  0  0.268285  0.330342  0  1.039225  0
H  H39  1  0.05028560  0.52576465  0.30647031  1  0  0.37811  0  0.94758  0  0  0.338321  0  1.027877  0  0  0.349442  0  1.011989  0  0  0.268341  0.330464  0  1.039075  0
H  H40  1  0.43196556  0.72645920  0.84172775  1  0  0.423593  0  0.882124  0  0  0.390725  0  0.948579  0  0  0.402638  0  0.931483  0  0  0.278531  0.382273  0  0.96067  0
H  H41  1  0.56803947  0.27354110  0.15827299  1  0  0.42357  0  0.882144  0  0  0.390747  0  0.948526  0  0  0.402649  0  0.931441  0  0  0.278533  0.382292  0  0.960621  0
H  H42  1  0.56778092  0.82446679  0.79133702  1  0  0.375355  0  0.950041  0  0  0.335229  0  1.030216  0  0  0.3467  0  1.013707  0  0  0.266943  0.327233  0  1.041695  0
H  H43  1  0.43222510  0.17552471  0.20865864  1  0  0.375376  0  0.950004  0  0  0.335243  0  1.030211  0  0  0.346715  0  1.013698  0  0  0.266944  0.327246  0  1.041692  0
Pb  Pb44  1  0.75248798  0.54830882  0.91449381  1  0  1.349884  0  1.405457  0  0  1.165705  0  1.796241  0  0  1.230359  0  1.749122  0  0  0.625754  1.118964  0  1.828958  0
Pb  Pb45  1  0.24753998  0.45168674  0.08550718  1  0  1.3499  0  1.405383  0  0  1.165745  0  1.79614  0  0  1.230393  0  1.749017  0  0  0.625763  1.118997  0  1.828846  0
C  C46  1  0.61695793  0.55883144  0.16240438  1  0  0.697646  0  3.888543  0  0  0.647503  0  4.187555  0  0  0.680769  0  4.18371  0  0  0.20591  0.624935  0  4.189188  0
C  C47  1  0.38305196  0.44117781  0.83758178  1  0  0.697605  0  3.888379  0  0  0.64742  0  4.187463  0  0  0.680678  0  4.183623  0  0  0.205786  0.62486  0  4.189082  0
C  C48  1  0.58097770  0.51028262  0.29647556  1  0  -0.298856  0  3.613879  0  0  -0.332132  0  3.869117  0  0  -0.335804  0  3.873089  0  0  -0.152398  -0.329688  0  3.866184  0
C  C49  1  0.41902855  0.48972757  0.70351303  1  0  -0.299024  0  3.614372  0  0  -0.332151  0  3.869442  0  0  -0.335828  0  3.873422  0  0  -0.152325  -0.329715  0  3.866519  0
C  C50  1  0.30042902  0.60306093  0.38435653  1  0  0.346039  0  3.828296  0  0  0.325525  0  4.11998  0  0  0.343706  0  4.132172  0  0  0.241313  0.31328  0  4.111529  0
C  C51  1  0.69956906  0.39693832  0.61564820  1  0  0.346002  0  3.828524  0  0  0.325478  0  4.120221  0  0  0.343658  0  4.132414  0  0  0.24125  0.313243  0  4.111757  0
C  C52  1  0.06757665  0.70814984  0.42894558  1  0  0.391645  0  3.698803  0  0  0.393995  0  3.948374  0  0  0.408486  0  3.962884  0  0  0.141175  0.384408  0  3.938382  0
C  C53  1  0.93242625  0.29184845  0.57106088  1  0  0.391339  0  3.69917  0  0  0.393875  0  3.94852  0  0  0.408368  0  3.96303  0  0  0.141188  0.384282  0  3.938524  0
C  C54  1  0.15641623  0.79358661  0.46046888  1  0  -0.307016  0  3.655185  0  0  -0.331464  0  3.90654  0  0  -0.344834  0  3.926088  0  0  -0.103114  -0.322935  0  3.893837  0
C  C55  1  0.84358937  0.20640876  0.53953744  1  0  -0.307074  0  3.655253  0  0  -0.331572  0  3.906612  0  0  -0.344927  0  3.926114  0  0  -0.10316  -0.323054  0  3.893946  0
C  C56  1  0.32113911  0.77761236  0.44980493  1  0  0.364195  0  3.742414  0  0  0.366371  0  4.002753  0  0  0.379655  0  4.019029  0  0  0.131522  0.357661  0  3.991525  0
C  C57  1  0.67886777  0.22238204  0.55019993  1  0  0.364304  0  3.742225  0  0  0.366441  0  4.002641  0  0  0.379727  0  4.018922  0  0  0.131573  0.357727  0  3.991401  0
C  C58  1  0.89081071  0.72389534  0.43184497  1  0  -0.378232  0  3.674978  0  0  -0.461497  0  3.913732  0  0  -0.465172  0  3.918602  0  0  -0.237647  -0.458724  0  3.91021  0
C  C59  1  0.10919235  0.27611184  0.56815052  1  0  -0.378142  0  3.674947  0  0  -0.461524  0  3.913759  0  0  -0.4652  0  3.91863  0  0  -0.237684  -0.458745  0  3.910233  0
C  C60  1  0.42433518  0.86298489  0.48371663  1  0  -0.377959  0  3.687878  0  0  -0.461398  0  3.925759  0  0  -0.465239  0  3.931864  0  0  -0.239262  -0.458455  0  3.921346  0
C  C61  1  0.57567018  0.13701247  0.51628325  1  0  -0.377738  0  3.687802  0  0  -0.461224  0  3.925688  0  0  -0.465063  0  3.931801  0  0  -0.239179  -0.458278  0  3.921271  0
C  C62  1  0.87728918  0.29777483  0.11650861  1  0  0.702895  0  3.872156  0  0  0.64974  0  4.173691  0  0  0.683371  0  4.169595  0  0  0.210291  0.626957  0  4.175337  0
C  C63  1  0.12271646  0.70223041  0.88348647  1  0  0.703347  0  3.871861  0  0  0.650135  0  4.173471  0  0  0.683761  0  4.169368  0  0  0.210479  0.627342  0  4.175149  0
C  C64  1  0.90591900  0.21117977  0.24450045  1  0  -0.296111  0  3.647353  0  0  -0.332792  0  3.905884  0  0  -0.336004  0  3.909576  0  0  -0.151417  -0.330592  0  3.9033  0
C  C65  1  0.09408468  0.78883232  0.75549611  1  0  -0.296218  0  3.647312  0  0  -0.332834  0  3.905761  0  0  -0.336038  0  3.909431  0  0  -0.151438  -0.330647  0  3.903256  0
C  C66  1  0.17245147  0.05465287  0.21800274  1  0  0.346807  0  3.846659  0  0  0.326689  0  4.137311  0  0  0.344313  0  4.149946  0  0  0.239996  0.314852  0  4.128796  0
C  C67  1  0.82754363  0.94534144  0.78200272  1  0  0.346875  0  3.846424  0  0  0.326798  0  4.137068  0  0  0.344425  0  4.149692  0  0  0.239977  0.314955  0  4.128571  0
C  C68  1  0.11979993  0.89333782  0.14367751  1  0  0.379533  0  3.72423  0  0  0.383768  0  3.97815  0  0  0.397152  0  3.994142  0  0  0.138462  0.374924  0  3.967142  0
C  C69  1  0.88018683  0.10665738  0.85633481  1  0  0.379411  0  3.724397  0  0  0.383539  0  3.978477  0  0  0.396919  0  3.994474  0  0  0.138391  0.374705  0  3.967448  0
C  C70  1  0.28242619  0.86387385  0.12894405  1  0  -0.29552  0  3.609546  0  0  -0.319536  0  3.854632  0  0  -0.333181  0  3.87437  0  0  -0.094961  -0.311233  0  3.841948  0
C  C71  1  0.71755917  0.13612332  0.87106525  1  0  -0.295475  0  3.609308  0  0  -0.319408  0  3.854438  0  0  -0.333054  0  3.874189  0  0  -0.09496  -0.311092  0  3.84172  0
C  C72  1  0.38628863  0.93777173  0.16145594  1  0  0.373683  0  3.723342  0  0  0.376812  0  3.974491  0  0  0.389891  0  3.991501  0  0  0.136291  0.368272  0  3.962882  0
C  C73  1  0.61370091  0.06221961  0.83854644  1  0  0.373943  0  3.723369  0  0  0.376959  0  3.974674  0  0  0.390035  0  3.991683  0  0  0.13638  0.368437  0  3.963031  0
C  C74  1  0.00001766  0.82209849  0.10925425  1  0  -0.375088  0  3.66097  0  0  -0.456921  0  3.892663  0  0  -0.460191  0  3.897786  0  0  -0.242734  -0.454316  0  3.889214  0
C  C75  1  0.99996607  0.17790257  0.89075821  1  0  -0.375193  0  3.661259  0  0  -0.456911  0  3.892973  0  0  -0.460165  0  3.898114  0  0  -0.242812  -0.454309  0  3.88953  0
C  C76  1  0.56199001  0.91073654  0.15265208  1  0  -0.381495  0  3.679684  0  0  -0.464361  0  3.915221  0  0  -0.468157  0  3.920959  0  0  -0.23496  -0.461453  0  3.911179  0
C  C77  1  0.43799487  0.08926462  0.84734349  1  0  -0.381413  0  3.679765  0  0  -0.464231  0  3.915309  0  0  -0.46802  0  3.921046  0  0  -0.234934  -0.461332  0  3.911271  0
S  S78  1  0.38122628  0.46976226  0.33842204  1  0  0.033482  0  2.488519  0  0  0.040717  0  2.838559  0  0  0.033415  0  2.837283  0  0  0.06788  0.046275  0  2.839163  0
S  S79  1  0.61877782  0.53024597  0.66156218  1  0  0.033622  0  2.488838  0  0  0.040824  0  2.83883  0  0  0.033521  0  2.837561  0  0  0.067909  0.046376  0  2.839439  0
S  S80  1  0.11013111  0.17750883  0.28342337  1  0  0.009718  0  2.45849  0  0  0.019473  0  2.797782  0  0  0.012263  0  2.796706  0  0  0.055276  0.023984  0  2.799677  0
S  S81  1  0.88987152  0.82250226  0.71657521  1  0  0.009673  0  2.458627  0  0  0.01942  0  2.797888  0  0  0.012207  0  2.796814  0  0  0.05531  0.023958  0  2.799788  0
N  N82  1  0.14064606  0.61130565  0.39161109  1  0  -0.444661  0  3.053202  0  0  -0.388285  0  3.29428  0  0  -0.407258  0  3.305683  0  0  -0.310101  -0.375548  0  3.286643  0
N  N83  1  0.85935836  0.38868971  0.60839529  1  0  -0.444547  0  3.053311  0  0  -0.388229  0  3.294336  0  0  -0.407197  0  3.305728  0  0  -0.310083  -0.3755  0  3.286705  0
N  N84  1  0.39366561  0.68165226  0.40990221  1  0  -0.445707  0  3.05481  0  0  -0.413137  0  3.327083  0  0  -0.431506  0  3.341086  0  0  -0.322702  -0.401  0  3.317599  0
N  N85  1  0.60633573  0.31833912  0.59010967  1  0  -0.445766  0  3.05491  0  0  -0.413157  0  3.327161  0  0  -0.431525  0  3.341159  0  0  -0.322704  -0.401021  0  3.317676  0
N  N86  1  0.06465809  0.98984775  0.18903488  1  0  -0.453766  0  3.041019  0  0  -0.418877  0  3.305501  0  0  -0.436735  0  3.318012  0  0  -0.32553  -0.406969  0  3.297016  0
N  N87  1  0.93533508  0.01015337  0.81097962  1  0  -0.453742  0  3.040989  0  0  -0.41885  0  3.305551  0  0  -0.436705  0  3.318061  0  0  -0.325474  -0.406949  0  3.297071  0
N  N88  1  0.33059938  0.03518972  0.20552373  1  0  -0.457275  0  3.067236  0  0  -0.400842  0  3.308011  0  0  -0.419888  0  3.319633  0  0  -0.314236  -0.388508  0  3.300423  0
N  N89  1  0.66938872  0.96481436  0.79448093  1  0  -0.457535  0  3.067418  0  0  -0.401122  0  3.308278  0  0  -0.420165  0  3.319897  0  0  -0.314396  -0.388793  0  3.30069  0
O  O90  1  0.76142469  0.57778799  0.13150808  1  0  -0.646113  0  1.989098  0  0  -0.573535  0  2.210791  0  0  -0.604159  0  2.204849  0  0  -0.302148  -0.552004  0  2.214168  0
O  O91  1  0.23858352  0.42221533  0.86848239  1  0  -0.646035  0  1.988853  0  0  -0.573556  0  2.210677  0  0  -0.604164  0  2.204722  0  0  -0.30214  -0.552029  0  2.214049  0
O  O92  1  0.50982125  0.57691325  0.08895562  1  0  -0.672385  0  2.030508  0  0  -0.60388  0  2.26745  0  0  -0.634795  0  2.262647  0  0  -0.29756  -0.581991  0  2.26992  0
O  O93  1  0.49019318  0.42308717  0.91103370  1  0  -0.672387  0  2.030341  0  0  -0.603866  0  2.267334  0  0  -0.634781  0  2.262533  0  0  -0.297502  -0.581982  0  2.269807  0
O  O94  1  0.73743003  0.30590653  0.08060998  1  0  -0.648515  0  1.984893  0  0  -0.576283  0  2.209193  0  0  -0.606706  0  2.202493  0  0  -0.301233  -0.554664  0  2.213049  0
O  O95  1  0.26257594  0.69409576  0.91938678  1  0  -0.648721  0  1.98504  0  0  -0.576376  0  2.209243  0  0  -0.606797  0  2.202543  0  0  -0.301236  -0.554746  0  2.213108  0
O  O96  1  0.98603719  0.36012293  0.05259142  1  0  -0.660154  0  2.069633  0  0  -0.585979  0  2.309152  0  0  -0.618563  0  2.305836  0  0  -0.286562  -0.562856  0  2.310251  0
O  O97  1  0.01398029  0.63986085  0.94739247  1  0  -0.660443  0  2.06963  0  0  -0.58626  0  2.309191  0  0  -0.618888  0  2.305968  0  0  -0.286732  -0.563158  0  2.310367  0
O  O98  1  0.53459781  0.73732263  0.79475928  1  0  -0.8736  0  1.880919  0  0  -0.810461  0  2.069312  0  0  -0.8355  0  2.038447  0  0  -0.588239  -0.792445  0  2.090565  0
O  O99  1  0.46539929  0.26267470  0.20523430  1  0  -0.873623  0  1.88102  0  0  -0.810527  0  2.069352  0  0  -0.835554  0  2.03852  0  0  -0.588221  -0.792508  0  2.090604  0
O  O100  1  0.97699442  0.52358855  0.74632063  1  0  -0.878653  0  1.90112  0  0  -0.817258  0  2.096424  0  0  -0.842025  0  2.066628  0  0  -0.589544  -0.798952  0  2.117274  0
O  O101  1  0.02300559  0.47640389  0.25367505  1  0  -0.878745  0  1.90097  0  0  -0.817339  0  2.096316  0  0  -0.842106  0  2.066514  0  0  -0.589563  -0.79903  0  2.117169  0
