# generated using pymatgen
data_ZnH22(C17N3)2
_symmetry_space_group_name_H-M   'P 1'
_cell_length_a   7.35291568
_cell_length_b   10.74278368
_cell_length_c   21.39250285
_cell_angle_alpha   86.30683965
_cell_angle_beta   89.99892724
_cell_angle_gamma   90.00042096
_symmetry_Int_Tables_number   1
_chemical_formula_structural   ZnH22(C17N3)2
_chemical_formula_sum   'Zn2 H44 C68 N12'
_cell_volume   1686.30133719
_cell_formula_units_Z   2
loop_
 _symmetry_equiv_pos_site_id
 _symmetry_equiv_pos_as_xyz
  1  'x, y, z'
loop_
 _atom_site_type_symbol
 _atom_site_label
 _atom_site_symmetry_multiplicity
 _atom_site_fract_x
 _atom_site_fract_y
 _atom_site_fract_z
 _atom_site_occupancy
 _atom_site_pbe_bader_charge
 _atom_site_pbe_bader_spin_density
 _atom_site_pbe_cm5_charge
 _atom_site_pbe_ddec_charge
 _atom_site_pbe_ddec_spin_density
 _atom_site_pbe_ddec_sum_bond_order
 _atom_site_pbe_magmom
Zn  Zn0  1  0.99998504  0.00000774  0.99999765  1  1.312383  0  0.725123  0.783194  0  2.516028  0
Zn  Zn1  1  0.49999926  0.49999814  0.50000227  1  1.312486  0  0.725174  0.783284  0  2.515953  0
H  H2  1  0.90226641  0.95862742  0.76228865  1  0.095351  0  0.107803  0.113444  0  0.996037  0
H  H3  1  0.40226604  0.54137181  0.73771429  1  0.095308  0  0.107745  0.113421  0  0.996025  0
H  H4  1  0.09774026  0.04137736  0.23771496  1  0.095281  0  0.107741  0.113417  0  0.996098  0
H  H5  1  0.59774335  0.45862093  0.26228886  1  0.095376  0  0.107769  0.113407  0  0.996058  0
H  H6  1  0.08014874  0.61684138  0.86137290  1  0.104471  0  0.107127  0.113161  0  0.99941  0
H  H7  1  0.58012500  0.88316005  0.63862585  1  0.104476  0  0.107117  0.113112  0  0.999609  0
H  H8  1  0.91987561  0.38316928  0.13862837  1  0.104525  0  0.107089  0.113021  0  0.99963  0
H  H9  1  0.41986536  0.11682985  0.36137027  1  0.104613  0  0.107107  0.113046  0  0.999457  0
H  H10  1  0.07410519  0.72991194  0.95887791  1  0.075546  0  0.110263  0.071402  0  1.034726  0
H  H11  1  0.57407675  0.77008383  0.54112130  1  0.075628  0  0.110286  0.071463  0  1.035088  0
H  H12  1  0.92591101  0.27007813  0.04112430  1  0.075711  0  0.110282  0.071451  0  1.035058  0
H  H13  1  0.42589592  0.22991962  0.45887810  1  0.075472  0  0.110312  0.071533  0  1.035084  0
H  H14  1  0.79661720  0.60906616  0.00517365  1  0.039367  0  0.094043  0.095904  0  1.025895  0
H  H15  1  0.29660409  0.89093340  0.49482537  1  0.039513  0  0.094024  0.095828  0  1.02592  0
H  H16  1  0.20337043  0.39094434  0.99482152  1  0.039472  0  0.093995  0.095767  0  1.02589  0
H  H17  1  0.70335499  0.10904228  0.50518012  1  0.039795  0  0.093998  0.095822  0  1.025898  0
H  H18  1  0.07402619  0.88144772  0.68725852  1  0.057964  0  0.099361  0.095957  0  1.014633  0
H  H19  1  0.57402382  0.61855405  0.81273740  1  0.057943  0  0.099362  0.095907  0  1.014807  0
H  H20  1  0.92596824  0.11856029  0.31273431  1  0.058004  0  0.099343  0.095889  0  1.014907  0
H  H21  1  0.42597605  0.38143928  0.18726106  1  0.058043  0  0.099365  0.095904  0  1.014954  0
H  H22  1  0.21476213  0.60437039  0.02979998  1  0.073488  0  0.095041  0.097764  0  1.01886  0
H  H23  1  0.71477170  0.89561389  0.47019987  1  0.073639  0  0.095046  0.097676  0  1.018702  0
H  H24  1  0.78523094  0.39562435  0.97019473  1  0.073616  0  0.095065  0.097738  0  1.018657  0
H  H25  1  0.28523497  0.10436128  0.52980234  1  0.073634  0  0.095013  0.097646  0  1.018666  0
H  H26  1  0.91152232  0.05814417  0.86438328  1  0.100759  0  0.114929  0.087684  0  1.006383  0
H  H27  1  0.41151142  0.44184966  0.63561865  1  0.100705  0  0.114946  0.087701  0  1.006189  0
H  H28  1  0.08849251  0.94184803  0.13562408  1  0.100904  0  0.114935  0.087669  0  1.006204  0
H  H29  1  0.58848709  0.55815072  0.36437560  1  0.100745  0  0.114962  0.087705  0  1.006156  0
H  H30  1  0.90488015  0.53622040  0.78383700  1  0.075125  0  0.098928  0.095365  0  1.010354  0
H  H31  1  0.40485432  0.96378076  0.71616548  1  0.075111  0  0.098955  0.095423  0  1.010226  0
H  H32  1  0.09513333  0.46378682  0.21616942  1  0.075099  0  0.098952  0.09543  0  1.010326  0
H  H33  1  0.59511563  0.03620786  0.28383345  1  0.075216  0  0.098908  0.095257  0  1.010431  0
H  H34  1  0.97286280  0.55905895  0.58349034  1  0.087836  0  0.096751  0.094906  0  1.022414  0
H  H35  1  0.47285446  0.94093430  0.91651035  1  0.08785  0  0.096716  0.094921  0  1.022386  0
H  H36  1  0.02715204  0.44093547  0.41651421  1  0.087748  0  0.096677  0.094834  0  1.022435  0
H  H37  1  0.52714541  0.05907317  0.08348670  1  0.087637  0  0.096687  0.094877  0  1.022457  0
H  H38  1  0.06473597  0.78166276  0.58681831  1  0.045463  0  0.092991  0.089156  0  1.067075  0
H  H39  1  0.56473910  0.71834177  0.91317760  1  0.04551  0  0.093017  0.089239  0  1.067099  0
H  H40  1  0.93524895  0.21833382  0.41318390  1  0.045596  0  0.092968  0.089103  0  1.067125  0
H  H41  1  0.43525941  0.28166099  0.08681992  1  0.045437  0  0.092997  0.089175  0  1.06711  0
H  H42  1  0.89343301  0.43659828  0.68236857  1  0.095625  0  0.099901  0.098599  0  0.995229  0
H  H43  1  0.39340012  0.06340003  0.81763427  1  0.095625  0  0.099854  0.098526  0  0.994972  0
H  H44  1  0.10659542  0.56339812  0.31763504  1  0.09563  0  0.099885  0.098609  0  0.994963  0
H  H45  1  0.60657935  0.93660390  0.18236138  1  0.09568  0  0.099868  0.098568  0  0.995103  0
C  C46  1  0.51172660  0.75454378  0.03662309  1  0.27823  0  -0.063864  -0.225059  0  4.248709  0
C  C47  1  0.01172751  0.74545658  0.46337648  1  0.27818  0  -0.063867  -0.22497  0  4.24877  0
C  C48  1  0.48829095  0.24548782  0.96338191  1  0.277499  0  -0.063843  -0.224602  0  4.248509  0
C  C49  1  0.98827644  0.25453095  0.53661636  1  0.278057  0  -0.063864  -0.224876  0  4.248555  0
C  C50  1  0.94498937  0.90442775  0.80454346  1  -0.133234  0  -0.081659  -0.173492  0  3.950176  0
C  C51  1  0.44497994  0.59557134  0.69545439  1  -0.067079  0  -0.081704  -0.173687  0  3.950754  0
C  C52  1  0.05502546  0.09557517  0.19546015  1  -0.067413  0  -0.081729  -0.173696  0  3.950476  0
C  C53  1  0.55501993  0.40442036  0.30454220  1  -0.067179  0  -0.081782  -0.173649  0  3.950716  0
C  C54  1  0.03820427  0.71431041  0.85949246  1  -0.100949  0  -0.082685  -0.174827  0  3.947229  0
C  C55  1  0.53818709  0.78569827  0.64050669  1  -0.10103  0  -0.082822  -0.1749  0  3.947016  0
C  C56  1  0.96181872  0.28570374  0.14051068  1  -0.101508  0  -0.082734  -0.174692  0  3.946949  0
C  C57  1  0.46181142  0.21429506  0.35949177  1  -0.101674  0  -0.082699  -0.17463  0  3.946683  0
C  C58  1  0.99152797  0.77796068  0.80237495  1  0.040142  0  0.016714  0.118229  0  3.984529  0
C  C59  1  0.49150101  0.72203554  0.69762483  1  0.040528  0  0.016794  0.118365  0  3.984438  0
C  C60  1  0.00849094  0.22204032  0.19762912  1  0.041168  0  0.016788  0.118307  0  3.984636  0
C  C61  1  0.50849614  0.27796071  0.30237269  1  0.041135  0  0.016746  0.118267  0  3.984652  0
C  C62  1  0.03614098  0.77714705  0.91420473  1  0.505781  0  0.045328  0.098229  0  3.971518  0
C  C63  1  0.53612685  0.72285308  0.58578833  1  0.505534  0  0.045405  0.098155  0  3.971485  0
C  C64  1  0.96386433  0.22285036  0.08579092  1  0.505191  0  0.04531  0.098025  0  3.971578  0
C  C65  1  0.46385262  0.27714118  0.41421013  1  0.505232  0  0.045235  0.097871  0  3.971861  0
C  C66  1  0.66591506  0.56117290  0.00367048  1  0.019333  0  -0.107429  -0.148508  0  4.019681  0
C  C67  1  0.16590652  0.93883722  0.49632977  1  0.019036  0  -0.107403  -0.148499  0  4.01967  0
C  C68  1  0.33407937  0.43885067  0.99633172  1  0.019298  0  -0.107285  -0.1481  0  4.019735  0
C  C69  1  0.83407431  0.06114256  0.50366542  1  0.019082  0  -0.107254  -0.148206  0  4.019858  0
C  C70  1  0.03292894  0.78406755  0.68644508  1  -0.087606  0  -0.089509  -0.12562  0  3.979209  0
C  C71  1  0.53291967  0.71592751  0.81355126  1  -0.088037  0  -0.089551  -0.125559  0  3.978887  0
C  C72  1  0.96707773  0.21592566  0.31355431  1  -0.087454  0  -0.089528  -0.12553  0  3.978868  0
C  C73  1  0.46708020  0.28407373  0.18645095  1  -0.087801  0  -0.089555  -0.125574  0  3.97911  0
C  C74  1  0.34066507  0.55931442  0.01634503  1  -0.09474  0  -0.106751  -0.149554  0  4.018261  0
C  C75  1  0.84067364  0.94069181  0.48365406  1  -0.094948  0  -0.106643  -0.149238  0  4.018705  0
C  C76  1  0.65933208  0.44070557  0.98364874  1  -0.094563  0  -0.106764  -0.149419  0  4.018163  0
C  C77  1  0.15932487  0.05930210  0.51634721  1  -0.094801  0  -0.10662  -0.149074  0  4.017968  0
C  C78  1  0.94746425  0.96039746  0.86118831  1  0.582249  0  0.04782  0.101619  0  3.958669  0
C  C79  1  0.44745820  0.53960681  0.63881282  1  0.515985  0  0.047841  0.101632  0  3.958875  0
C  C80  1  0.05253154  0.03960750  0.13881390  1  0.516691  0  0.047951  0.101764  0  3.958554  0
C  C81  1  0.55252400  0.46038757  0.36118470  1  0.516166  0  0.047888  0.101637  0  3.958613  0
C  C82  1  0.35413513  0.82560341  0.03767319  1  0.784144  0  0.184401  0.286006  0  4.130078  0
C  C83  1  0.85413712  0.67439076  0.46232591  1  0.784396  0  0.184353  0.285978  0  4.129744  0
C  C84  1  0.64587426  0.17442657  0.96232994  1  0.785349  0  0.184441  0.286029  0  4.129088  0
C  C85  1  0.14587364  0.32558577  0.53766553  1  0.784637  0  0.184398  0.285968  0  4.129394  0
C  C86  1  0.94214183  0.58983087  0.74069392  1  -0.107193  0  -0.091063  -0.132983  0  3.988612  0
C  C87  1  0.44211953  0.91016390  0.75930860  1  -0.107182  0  -0.091146  -0.133274  0  3.988907  0
C  C88  1  0.05787844  0.41017058  0.25931390  1  -0.106892  0  -0.091119  -0.133212  0  3.988746  0
C  C89  1  0.55786674  0.08982718  0.24068564  1  -0.107092  0  -0.091007  -0.132899  0  3.988583  0
C  C90  1  0.98969651  0.71629377  0.74284516  1  -0.042532  0  -0.012076  0.04868  0  4.011095  0
C  C91  1  0.48968222  0.78371378  0.75715321  1  -0.042106  0  -0.011999  0.048794  0  4.01112  0
C  C92  1  0.01031152  0.28371409  0.25715610  1  -0.042679  0  -0.012035  0.048775  0  4.010989  0
C  C93  1  0.51031221  0.21628955  0.24284712  1  -0.042468  0  -0.012009  0.048741  0  4.010981  0
C  C94  1  0.50646074  0.62407010  0.02018581  1  -0.071655  0  -0.019385  0.089086  0  4.090867  0
C  C95  1  0.00644517  0.87593310  0.47981328  1  -0.071293  0  -0.019552  0.088802  0  4.09115  0
C  C96  1  0.49353913  0.37596843  0.97981591  1  -0.072142  0  -0.019651  0.08857  0  4.091355  0
C  C97  1  0.99353702  0.12404738  0.52018378  1  -0.072038  0  -0.019682  0.088524  0  4.091033  0
C  C98  1  0.67453421  0.81803004  0.04251177  1  0.73005  0  0.17986  0.289255  0  4.132638  0
C  C99  1  0.17452815  0.68197680  0.45748521  1  0.730027  0  0.179815  0.289166  0  4.132584  0
C  C100  1  0.32549694  0.18198547  0.95748059  1  0.729774  0  0.179668  0.288821  0  4.131903  0
C  C101  1  0.82548261  0.31803695  0.54251371  1  0.729637  0  0.179895  0.289289  0  4.132213  0
C  C102  1  0.97849489  0.60252133  0.62803576  1  -0.015019  0  -0.087573  -0.063474  0  3.9743  0
C  C103  1  0.47848184  0.89747695  0.87196213  1  -0.015331  0  -0.087588  -0.0636  0  3.974176  0
C  C104  1  0.02151314  0.39747769  0.37196925  1  -0.01545  0  -0.087542  -0.063399  0  3.974011  0
C  C105  1  0.52151123  0.10251953  0.12803352  1  -0.0152  0  -0.087591  -0.06355  0  3.974242  0
C  C106  1  0.02877989  0.72754022  0.62975643  1  0.059436  0  -0.093382  -0.077413  0  4.011524  0
C  C107  1  0.52878629  0.77245690  0.87024553  1  0.059602  0  -0.093363  -0.077478  0  4.011057  0
C  C108  1  0.97120774  0.27245565  0.37025140  1  0.059356  0  -0.093342  -0.077427  0  4.010786  0
C  C109  1  0.47121086  0.22754463  0.12975434  1  0.059699  0  -0.093299  -0.077377  0  4.010859  0
C  C110  1  0.93504704  0.53380354  0.68368093  1  -0.10234  0  -0.092912  -0.08322  0  4.022929  0
C  C111  1  0.43503492  0.96618784  0.81631878  1  -0.102215  0  -0.092831  -0.082926  0  4.022689  0
C  C112  1  0.06495691  0.46619041  0.31632737  1  -0.102325  0  -0.09288  -0.083145  0  4.022759  0
C  C113  1  0.56495407  0.03380987  0.18367453  1  -0.102435  0  -0.092914  -0.08313  0  4.023101  0
N  N114  1  0.99204010  0.89829486  0.91561819  1  -1.237652  0  -0.319876  -0.232951  0  3.531322  0
N  N115  1  0.49203065  0.60170106  0.58438394  1  -1.23762  0  -0.319873  -0.232778  0  3.531218  0
N  N116  1  0.00796249  0.10170532  0.08438495  1  -1.237971  0  -0.31983  -0.232732  0  3.531327  0
N  N117  1  0.50795018  0.39828918  0.41561686  1  -1.237419  0  -0.319821  -0.232731  0  3.531173  0
N  N118  1  0.21920268  0.88452565  0.03752532  1  -1.269287  0  -0.348045  -0.439533  0  3.174068  0
N  N119  1  0.71919023  0.61546823  0.46247968  1  -1.26952  0  -0.348018  -0.439543  0  3.173999  0
N  N120  1  0.78081623  0.11547343  0.96247922  1  -1.269568  0  -0.348106  -0.439755  0  3.173222  0
N  N121  1  0.28082189  0.38451468  0.53752018  1  -1.269512  0  -0.348025  -0.43958  0  3.173636  0
N  N122  1  0.81345197  0.87121370  0.04734832  1  -1.244471  0  -0.357526  -0.449377  0  3.139921  0
N  N123  1  0.31344983  0.62878661  0.45265260  1  -1.244493  0  -0.357477  -0.449325  0  3.1396  0
N  N124  1  0.18655198  0.12878690  0.95265154  1  -1.243995  0  -0.357354  -0.449169  0  3.139106  0
N  N125  1  0.68653508  0.37121371  0.54734211  1  -1.243924  0  -0.357636  -0.44955  0  3.139667  0
