# generated using pymatgen
data_ZnH20C19N4O5
_symmetry_space_group_name_H-M   'P 1'
_cell_length_a   8.35172721
_cell_length_b   16.50776467
_cell_length_c   17.34959902
_cell_angle_alpha   89.99966028
_cell_angle_beta   97.84282400
_cell_angle_gamma   89.99997576
_symmetry_Int_Tables_number   1
_chemical_formula_structural   ZnH20C19N4O5
_chemical_formula_sum   'Zn4 H80 C76 N16 O20'
_cell_volume   2369.58645013
_cell_formula_units_Z   4
loop_
 _symmetry_equiv_pos_site_id
 _symmetry_equiv_pos_as_xyz
  1  'x, y, z'
loop_
 _atom_site_type_symbol
 _atom_site_label
 _atom_site_symmetry_multiplicity
 _atom_site_fract_x
 _atom_site_fract_y
 _atom_site_fract_z
 _atom_site_occupancy
 _atom_site_pbe_bader_charge
 _atom_site_pbe_bader_spin_density
 _atom_site_pbe_cm5_charge
 _atom_site_pbe_ddec_charge
 _atom_site_pbe_ddec_spin_density
 _atom_site_pbe_ddec_sum_bond_order
 _atom_site_pbe_magmom
Zn  Zn0  1  0.88848258  0.18135399  0.77636571  1  1.253968  0  0.686992  0.771618  0  2.442791  0
Zn  Zn1  1  0.61152017  0.68136010  0.72363474  1  1.253901  0  0.686985  0.771555  0  2.442813  0
Zn  Zn2  1  0.11151912  0.81864194  0.22363279  1  1.253876  0  0.687006  0.771594  0  2.442744  0
Zn  Zn3  1  0.38848635  0.31864249  0.27636526  1  1.254146  0  0.686994  0.771591  0  2.442891  0
H  H4  1  0.12867468  0.33331092  0.61915538  1  0.08858  0  0.108141  0.128604  0  1.003251  0
H  H5  1  0.37132223  0.83332025  0.88084562  1  0.088334  0  0.108113  0.128605  0  1.003231  0
H  H6  1  0.87132335  0.66668682  0.38084576  1  0.088463  0  0.108129  0.128576  0  1.003252  0
H  H7  1  0.62866849  0.16668779  0.11915847  1  0.0885  0  0.10814  0.12858  0  1.00326  0
H  H8  1  0.25070930  0.42232971  0.39407057  1  0.0528  0  0.091091  0.086884  0  1.048867  0
H  H9  1  0.24929948  0.92232925  0.10593058  1  0.052781  0  0.0911  0.086834  0  1.048991  0
H  H10  1  0.74929355  0.57766803  0.60593148  1  0.052781  0  0.091096  0.08684  0  1.048939  0
H  H11  1  0.75070817  0.07767213  0.89407411  1  0.052892  0  0.091133  0.086908  0  1.048931  0
H  H12  1  0.39275265  0.47722487  0.46076326  1  0.058184  0  0.1042  0.113243  0  0.992247  0
H  H13  1  0.10724867  0.97722545  0.03924167  1  0.058216  0  0.104168  0.113163  0  0.99241  0
H  H14  1  0.60724899  0.52277408  0.53923928  1  0.05823  0  0.10417  0.113195  0  0.992365  0
H  H15  1  0.89275168  0.02277653  0.96076539  1  0.058189  0  0.104171  0.11325  0  0.992279  0
H  H16  1  0.19189175  0.51618300  0.43497561  1  0.071154  0  0.091582  0.09095  0  1.040653  0
H  H17  1  0.30810715  0.01618609  0.06503004  1  0.071042  0  0.09154  0.090912  0  1.040683  0
H  H18  1  0.80810747  0.48381595  0.56502734  1  0.071121  0  0.091552  0.090901  0  1.040692  0
H  H19  1  0.69189320  0.98381831  0.93497759  1  0.071202  0  0.091568  0.090903  0  1.040688  0
H  H20  1  0.97516324  0.43030408  0.38935142  1  0.100364  0  0.105247  0.11959  0  1.027634  0
H  H21  1  0.52483397  0.93030303  0.11065225  1  0.100304  0  0.105232  0.119526  0  1.027669  0
H  H22  1  0.02483354  0.56969669  0.61065193  1  0.100298  0  0.105224  0.119549  0  1.027678  0
H  H23  1  0.47517005  0.06969350  0.88935276  1  0.100345  0  0.105261  0.119598  0  1.027713  0
H  H24  1  0.64656525  0.28894301  0.50418888  1  0.086633  0  0.099159  0.112009  0  1.029201  0
H  H25  1  0.85342749  0.78894133  0.99581373  1  0.086408  0  0.099187  0.112088  0  1.029167  0
H  H26  1  0.35342429  0.71106382  0.49581340  1  0.086386  0  0.099163  0.112071  0  1.029179  0
H  H27  1  0.14656215  0.21105520  0.00418221  1  0.086628  0  0.09914  0.112043  0  1.029153  0
H  H28  1  0.50896832  0.23535844  0.73546037  1  0.160002  0  0.142413  0.119696  0  0.984844  0
H  H29  1  0.99103792  0.73536179  0.76453945  1  0.160002  0  0.142414  0.119704  0  0.984812  0
H  H30  1  0.49103579  0.76463930  0.26453889  1  0.160017  0  0.142417  0.119694  0  0.984803  0
H  H31  1  0.00896746  0.26464140  0.23545586  1  0.159908  0  0.142388  0.119627  0  0.984882  0
H  H32  1  0.53886792  0.33025550  0.96363461  1  0.144106  0  0.129016  0.131876  0  0.984878  0
H  H33  1  0.96113927  0.83026208  0.53636588  1  0.144191  0  0.129  0.131897  0  0.984866  0
H  H34  1  0.46113619  0.66974224  0.03636464  1  0.144039  0  0.128985  0.131843  0  0.984895  0
H  H35  1  0.03885644  0.16974232  0.46362875  1  0.144329  0  0.128986  0.131882  0  0.984701  0
H  H36  1  0.83598049  0.26242442  0.94154175  1  0.105242  0  0.125378  0.128013  0  0.989751  0
H  H37  1  0.66402689  0.76243093  0.55845799  1  0.105352  0  0.125378  0.127954  0  0.989813  0
H  H38  1  0.16402483  0.73757513  0.05845759  1  0.105294  0  0.125383  0.128001  0  0.989736  0
H  H39  1  0.33596999  0.23757408  0.44153903  1  0.105393  0  0.125367  0.127987  0  0.98975  0
H  H40  1  0.25384872  0.31259379  0.88171555  1  0.064946  0  0.112059  0.094366  0  0.984267  0
H  H41  1  0.24615793  0.81259991  0.61828509  1  0.06491  0  0.112065  0.094384  0  0.984291  0
H  H42  1  0.74615657  0.68740395  0.11828551  1  0.064911  0  0.112064  0.094355  0  0.984309  0
H  H43  1  0.75384379  0.18740147  0.38171227  1  0.064988  0  0.112083  0.094397  0  0.984324  0
H  H44  1  0.24362788  0.27733977  0.78517238  1  0.06613  0  0.118799  0.112266  0  0.972599  0
H  H45  1  0.25638005  0.77734226  0.71482971  1  0.066073  0  0.118826  0.11234  0  0.972603  0
H  H46  1  0.75637622  0.72265797  0.21482745  1  0.06611  0  0.118804  0.112279  0  0.972623  0
H  H47  1  0.74361685  0.22265911  0.28516616  1  0.065977  0  0.118865  0.112404  0  0.97255  0
H  H48  1  0.36964155  0.40775607  0.74718490  1  0.072936  0  0.098298  0.094358  0  0.997137  0
H  H49  1  0.13036484  0.90775776  0.75281634  1  0.072928  0  0.098258  0.094376  0  0.997032  0
H  H50  1  0.63036255  0.59224167  0.25281493  1  0.072963  0  0.098294  0.094391  0  0.997069  0
H  H51  1  0.86963449  0.09224241  0.24717913  1  0.072581  0  0.098263  0.094352  0  0.997038  0
H  H52  1  0.36362872  0.44681862  0.84092154  1  0.019782  0  0.092281  0.086375  0  0.975164  0
H  H53  1  0.13637394  0.94682269  0.65907979  1  0.019733  0  0.092295  0.086383  0  0.97521  0
H  H54  1  0.63637419  0.55317852  0.15907706  1  0.019711  0  0.092257  0.086337  0  0.975149  0
H  H55  1  0.86363140  0.05317929  0.34091839  1  0.019495  0  0.0923  0.086361  0  0.975223  0
H  H56  1  0.13953816  0.49550209  0.74341726  1  0.091795  0  0.097799  0.113953  0  1.003907  0
H  H57  1  0.36046801  0.99550491  0.75658289  1  0.091755  0  0.097814  0.114064  0  1.003845  0
H  H58  1  0.86046472  0.50449626  0.25658306  1  0.091742  0  0.097844  0.11406  0  1.003889  0
H  H59  1  0.63953243  0.00449404  0.24341842  1  0.091725  0  0.097804  0.11404  0  1.003823  0
H  H60  1  0.07224508  0.39475260  0.72323067  1  0.043054  0  0.092395  0.094028  0  1.026825  0
H  H61  1  0.42776019  0.89475468  0.77676710  1  0.04309  0  0.092413  0.094072  0  1.026837  0
H  H62  1  0.92776143  0.60524635  0.27676990  1  0.043066  0  0.092406  0.094068  0  1.026798  0
H  H63  1  0.57223911  0.10524306  0.22323066  1  0.04311  0  0.092413  0.094055  0  1.026835  0
H  H64  1  0.99648856  0.37956106  0.85584558  1  0.082507  0  0.112359  0.092664  0  0.982005  0
H  H65  1  0.50350649  0.87956829  0.64414860  1  0.082483  0  0.112329  0.092542  0  0.981965  0
H  H66  1  0.00350954  0.62043425  0.14415095  1  0.082538  0  0.112377  0.092612  0  0.98201  0
H  H67  1  0.49649160  0.12043551  0.35584851  1  0.082519  0  0.112347  0.092596  0  0.981887  0
H  H68  1  0.07637155  0.47700795  0.88220468  1  0.02294  0  0.113159  0.089112  0  0.956356  0
H  H69  1  0.42363584  0.97701586  0.61779796  1  0.022879  0  0.113148  0.089107  0  0.956453  0
H  H70  1  0.92363491  0.52298677  0.11779877  1  0.022922  0  0.113147  0.089147  0  0.956419  0
H  H71  1  0.57636702  0.02298794  0.38220351  1  0.022892  0  0.113154  0.08916  0  0.956394  0
H  H72  1  0.90750063  0.60199586  0.83561152  1  0.152093  0  0.139844  0.117942  0  0.999266  0
H  H73  1  0.59250837  0.10199595  0.66438866  1  0.152164  0  0.139883  0.117975  0  0.999291  0
H  H74  1  0.09250469  0.39800310  0.16438781  1  0.152107  0  0.139858  0.117948  0  0.999277  0
H  H75  1  0.40749934  0.89800240  0.33561199  1  0.152084  0  0.139842  0.117923  0  0.999283  0
H  H76  1  0.74430956  0.37366179  0.74436069  1  0.149866  0  0.123511  0.127109  0  1.034633  0
H  H77  1  0.75569026  0.87365919  0.75563962  1  0.149815  0  0.123534  0.127141  0  1.034629  0
H  H78  1  0.25569454  0.62633777  0.25563913  1  0.149881  0  0.123522  0.127137  0  1.034626  0
H  H79  1  0.24430654  0.12633795  0.24436259  1  0.149801  0  0.12355  0.12718  0  1.034584  0
H  H80  1  0.51959451  0.49438819  0.69124693  1  0.13801  0  0.125356  0.124694  0  1.003796  0
H  H81  1  0.98040980  0.99438340  0.80875589  1  0.138074  0  0.125381  0.124662  0  1.003776  0
H  H82  1  0.48041205  0.50561197  0.30875076  1  0.137971  0  0.125336  0.12472  0  1.003835  0
H  H83  1  0.01959546  0.00561374  0.19124748  1  0.138001  0  0.125351  0.12469  0  1.003824  0
C  C84  1  0.84254921  0.26010524  0.63834360  1  1.527205  0  0.19167  0.559439  0  4.226252  0
C  C85  1  0.65744487  0.76011230  0.86165581  1  1.527276  0  0.19179  0.559367  0  4.225824  0
C  C86  1  0.15744521  0.73989553  0.36165614  1  1.527245  0  0.19174  0.55938  0  4.226147  0
C  C87  1  0.34254600  0.23989634  0.13833849  1  1.527261  0  0.191772  0.559542  0  4.225911  0
C  C88  1  0.88230679  0.30756978  0.56960885  1  -0.01291  0  -0.027712  -0.02948  0  4.037912  0
C  C89  1  0.61768593  0.80757279  0.93039192  1  -0.013109  0  -0.027707  -0.029296  0  4.037852  0
C  C90  1  0.11768515  0.69243523  0.43039475  1  -0.012995  0  -0.0277  -0.029345  0  4.037652  0
C  C91  1  0.38230608  0.19243283  0.06960707  1  -0.012889  0  -0.027689  -0.029288  0  4.037629  0
C  C92  1  0.03503064  0.34197488  0.56973427  1  -0.010579  0  -0.096591  -0.214648  0  3.955194  0
C  C93  1  0.46496873  0.84198328  0.93026282  1  -0.010197  0  -0.096569  -0.214633  0  3.955287  0
C  C94  1  0.96496256  0.65802710  0.43026653  1  -0.010424  0  -0.096562  -0.214564  0  3.954989  0
C  C95  1  0.53502450  0.15802294  0.06973568  1  -0.010297  0  -0.096577  -0.214702  0  3.955337  0
C  C96  1  0.07041059  0.38697875  0.50561844  1  0.401651  0  0.080715  0.249761  0  4.081502  0
C  C97  1  0.42958620  0.88698373  0.99438109  1  0.401954  0  0.080608  0.249469  0  4.081637  0
C  C98  1  0.92958383  0.61302263  0.49438187  1  0.401356  0  0.080681  0.249697  0  4.081437  0
C  C99  1  0.57041176  0.11302007  0.00562407  1  0.401985  0  0.08057  0.249627  0  4.081631  0
C  C100  1  0.26526290  0.46099439  0.44607098  1  0.379321  0  -0.145846  -0.176738  0  3.917539  0
C  C101  1  0.23473729  0.96099788  0.05393224  1  0.379427  0  -0.145787  -0.176572  0  3.917596  0
C  C102  1  0.73473633  0.53900396  0.55393082  1  0.379294  0  -0.145819  -0.176613  0  3.917595  0
C  C103  1  0.76526429  0.03900713  0.94607433  1  0.379121  0  -0.145824  -0.176701  0  3.917402  0
C  C104  1  0.95279847  0.39638413  0.44057185  1  0.015105  0  -0.100906  -0.222019  0  3.943627  0
C  C105  1  0.54719764  0.89637975  0.05943079  1  0.014457  0  -0.100796  -0.221718  0  3.943594  0
C  C106  1  0.04719471  0.60362148  0.55943011  1  0.015212  0  -0.10086  -0.221915  0  3.94363  0
C  C107  1  0.45280039  0.10361677  0.94057035  1  0.014889  0  -0.100905  -0.22202  0  3.943506  0
C  C108  1  0.80100956  0.35977532  0.43980571  1  -0.010425  0  -0.02353  -0.015835  0  4.002689  0
C  C109  1  0.69898178  0.85976969  0.06019853  1  -0.010155  0  -0.023594  -0.015962  0  4.002854  0
C  C110  1  0.19898238  0.64023272  0.56019789  1  -0.01019  0  -0.023488  -0.015831  0  4.002757  0
C  C111  1  0.30101140  0.14022017  0.93980342  1  -0.010265  0  -0.023536  -0.015747  0  4.00282  0
C  C112  1  0.67983614  0.36462600  0.36725187  1  1.570103  0  0.196278  0.560874  0  4.232569  0
C  C113  1  0.82016373  0.86461324  0.13274774  1  1.569939  0  0.196148  0.560756  0  4.232885  0
C  C114  1  0.32016191  0.63538022  0.63274811  1  1.569954  0  0.196122  0.560642  0  4.232943  0
C  C115  1  0.17983428  0.13536754  0.86725454  1  1.569554  0  0.196231  0.560727  0  4.232957  0
C  C116  1  0.76491459  0.31637615  0.50430896  1  -0.067636  0  -0.098843  -0.153196  0  3.984024  0
C  C117  1  0.73508055  0.81637449  0.99569077  1  -0.067227  0  -0.098885  -0.153391  0  3.984008  0
C  C118  1  0.23507981  0.68362704  0.49569192  1  -0.067294  0  -0.098855  -0.153352  0  3.984114  0
C  C119  1  0.26491150  0.18362203  0.00430592  1  -0.067721  0  -0.098837  -0.153361  0  3.983904  0
C  C120  1  0.55864532  0.25119928  0.79454134  1  0.972802  0  0.146501  0.088701  0  3.914636  0
C  C121  1  0.94135483  0.75120180  0.70545796  1  0.972938  0  0.146504  0.088778  0  3.914573  0
C  C122  1  0.44135516  0.74880088  0.20545766  1  0.972924  0  0.146477  0.088725  0  3.914556  0
C  C123  1  0.05864086  0.24879655  0.29453783  1  0.972767  0  0.146557  0.088874  0  3.91464  0
C  C124  1  0.57924249  0.30208890  0.91327511  1  0.252581  0  0.004583  -0.106475  0  3.939062  0
C  C125  1  0.92076356  0.80209579  0.58672546  1  0.251815  0  0.004591  -0.10661  0  3.938996  0
C  C126  1  0.42076403  0.69790944  0.08672431  1  0.252204  0  0.004623  -0.106494  0  3.938945  0
C  C127  1  0.07923576  0.19791043  0.41327058  1  0.251787  0  0.004567  -0.106626  0  3.938806  0
C  C128  1  0.72469250  0.26853017  0.90178546  1  0.452141  0  -0.002228  -0.037916  0  4.007026  0
C  C129  1  0.77531487  0.76853641  0.59821424  1  0.451978  0  -0.00225  -0.03772  0  4.006895  0
C  C130  1  0.27531403  0.73146818  0.09821396  1  0.452108  0  -0.002256  -0.03787  0  4.006853  0
C  C131  1  0.22468323  0.23147102  0.40178286  1  0.452499  0  -0.002137  -0.037716  0  4.006983  0
C  C132  1  0.30876696  0.31875165  0.82804695  1  0.313687  0  -0.052023  -0.074027  0  3.869209  0
C  C133  1  0.19124087  0.81875504  0.67195431  1  0.314011  0  -0.052092  -0.074228  0  3.86947  0
C  C134  1  0.69123713  0.68124609  0.17195345  1  0.313917  0  -0.052029  -0.07405  0  3.869279  0
C  C135  1  0.80875721  0.18124695  0.32804337  1  0.314095  0  -0.052139  -0.074301  0  3.869546  0
C  C136  1  0.30135937  0.40532192  0.79688814  1  -0.033849  0  -0.160721  -0.155898  0  3.950119  0
C  C137  1  0.19864101  0.90532450  0.70311096  1  -0.034055  0  -0.16068  -0.155924  0  3.950104  0
C  C138  1  0.69864836  0.59467400  0.20311136  1  -0.034049  0  -0.160714  -0.155923  0  3.949974  0
C  C139  1  0.80135830  0.09467687  0.29688565  1  -0.033433  0  -0.160668  -0.155838  0  3.950015  0
C  C140  1  0.13048476  0.43505833  0.76917954  1  -0.00907  0  -0.167098  -0.181147  0  3.919486  0
C  C141  1  0.36951795  0.93506192  0.73082013  1  -0.008774  0  -0.167147  -0.181281  0  3.919398  0
C  C142  1  0.86952055  0.56493820  0.23082037  1  -0.008756  0  -0.167162  -0.181303  0  3.919529  0
C  C143  1  0.63048253  0.06493824  0.26917887  1  -0.00885  0  -0.167157  -0.181248  0  3.919418  0
C  C144  1  0.02167713  0.43965296  0.83304046  1  0.289872  0  -0.046566  -0.056129  0  3.89289  0
C  C145  1  0.47832555  0.93965752  0.66696034  1  0.289968  0  -0.046551  -0.05602  0  3.89293  0
C  C146  1  0.97832576  0.56034539  0.16695929  1  0.28988  0  -0.046566  -0.056088  0  3.892977  0
C  C147  1  0.52167733  0.06034386  0.33303998  1  0.289934  0  -0.04654  -0.056162  0  3.892831  0
C  C148  1  0.83272339  0.55655553  0.80304515  1  0.993393  0  0.143846  0.085453  0  3.911124  0
C  C149  1  0.66728206  0.05655601  0.69695736  1  0.993367  0  0.143813  0.085546  0  3.911146  0
C  C150  1  0.16728557  0.44344342  0.19695329  1  0.993474  0  0.143895  0.085549  0  3.911141  0
C  C151  1  0.33272077  0.94344354  0.30304642  1  0.993381  0  0.143837  0.085467  0  3.91117  0
C  C152  1  0.74315150  0.43835555  0.75460250  1  0.27088  0  0.003833  -0.10031  0  3.8919  0
C  C153  1  0.75685058  0.93835302  0.74539702  1  0.270811  0  0.003861  -0.100304  0  3.89185  0
C  C154  1  0.25685139  0.56164582  0.24539724  1  0.27086  0  0.003867  -0.100306  0  3.891838  0
C  C155  1  0.24315108  0.06164654  0.25460379  1  0.270919  0  0.003814  -0.10033  0  3.891785  0
C  C156  1  0.63442882  0.49791004  0.72857758  1  0.408682  0  0.00516  -0.025238  0  3.992225  0
C  C157  1  0.86557549  0.99790611  0.77142406  1  0.408621  0  0.005209  -0.025055  0  3.992171  0
C  C158  1  0.36557891  0.50209073  0.27142192  1  0.408638  0  0.005224  -0.025167  0  3.992352  0
C  C159  1  0.13442617  0.00209102  0.22857675  1  0.408684  0  0.005213  -0.025223  0  3.992178  0
N  N160  1  0.71021575  0.23714881  0.82723935  1  -1.22968  0  -0.358982  -0.301311  0  3.614932  0
N  N161  1  0.78979291  0.73715277  0.67276004  1  -1.229227  0  -0.358944  -0.301499  0  3.614982  0
N  N162  1  0.28979200  0.76285015  0.17275957  1  -1.229572  0  -0.358967  -0.301364  0  3.614958  0
N  N163  1  0.21020885  0.26284921  0.32723444  1  -1.229667  0  -0.359094  -0.301583  0  3.614994  0
N  N164  1  0.47565200  0.29023652  0.84507951  1  -1.235623  0  -0.238503  0.047617  0  3.79221  0
N  N165  1  0.02435351  0.79024125  0.65492060  1  -1.235478  0  -0.238488  0.047759  0  3.791953  0
N  N166  1  0.52435209  0.70976122  0.15492089  1  -1.235372  0  -0.238491  0.047672  0  3.792019  0
N  N167  1  0.97564342  0.20976073  0.34507354  1  -1.235749  0  -0.238428  0.047843  0  3.791969  0
N  N168  1  0.86721120  0.47648896  0.80202961  1  -1.244532  0  -0.24219  0.041589  0  3.789195  0
N  N169  1  0.63279318  0.97648917  0.69797158  1  -1.244508  0  -0.242174  0.041577  0  3.789172  0
N  N170  1  0.13279412  0.52350999  0.19796972  1  -1.244484  0  -0.242217  0.041565  0  3.789024  0
N  N171  1  0.36720603  0.02350978  0.30203137  1  -1.244523  0  -0.242169  0.041644  0  3.789178  0
N  N172  1  0.69175222  0.57125482  0.75923106  1  -1.225509  0  -0.361271  -0.289293  0  3.633822  0
N  N173  1  0.80825317  0.07125198  0.74077308  1  -1.225466  0  -0.36141  -0.28961  0  3.63401  0
N  N174  1  0.30825672  0.42874474  0.24076852  1  -1.225623  0  -0.361425  -0.289548  0  3.634166  0
N  N175  1  0.19175087  0.92874516  0.25923020  1  -1.225527  0  -0.361345  -0.289387  0  3.633844  0
O  O176  1  0.95914748  0.25288844  0.69615588  1  -1.161988  0  -0.342172  -0.565493  0  2.312489  0
O  O177  1  0.54083935  0.75288801  0.80384421  1  -1.162  0  -0.342257  -0.565498  0  2.312248  0
O  O178  1  0.04084330  0.74711354  0.30384475  1  -1.16208  0  -0.342252  -0.565482  0  2.312413  0
O  O179  1  0.45914666  0.24711397  0.19615206  1  -1.161998  0  -0.342197  -0.565466  0  2.312333  0
O  O180  1  0.70416034  0.23044345  0.63819411  1  -1.188238  0  -0.33902  -0.575872  0  2.12247  0
O  O181  1  0.79584481  0.73046442  0.86179874  1  -1.188175  0  -0.339051  -0.575826  0  2.122282  0
O  O182  1  0.29584260  0.76954581  0.36180218  1  -1.188138  0  -0.339029  -0.575845  0  2.122439  0
O  O183  1  0.20414975  0.26955392  0.13819236  1  -1.188293  0  -0.339094  -0.576015  0  2.122303  0
O  O184  1  0.54769457  0.32345083  0.37051185  1  -1.181498  0  -0.346437  -0.571972  0  2.346734  0
O  O185  1  0.95231030  0.82345018  0.12948373  1  -1.181548  0  -0.346384  -0.571875  0  2.346994  0
O  O186  1  0.45230590  0.67654752  0.62948772  1  -1.181465  0  -0.346402  -0.57185  0  2.346881  0
O  O187  1  0.04768657  0.17653242  0.87051386  1  -1.181161  0  -0.346328  -0.571856  0  2.34689  0
O  O188  1  0.70986239  0.40372838  0.30921718  1  -1.181363  0  -0.334318  -0.560173  0  2.104209  0
O  O189  1  0.79012757  0.90370376  0.19079017  1  -1.181165  0  -0.334249  -0.560138  0  2.104059  0
O  O190  1  0.29013078  0.59627966  0.69078477  1  -1.181252  0  -0.334265  -0.5601  0  2.104193  0
O  O191  1  0.20987401  0.09626733  0.80921639  1  -1.181256  0  -0.334324  -0.560153  0  2.104257  0
O  O192  1  0.22337100  0.41766306  0.51191436  1  -1.07974  0  -0.19667  -0.169546  0  2.546695  0
O  O193  1  0.27662813  0.91767114  0.98808574  1  -1.079803  0  -0.196615  -0.169447  0  2.546595  0
O  O194  1  0.77662340  0.58233650  0.48808711  1  -1.079747  0  -0.196654  -0.169558  0  2.546598  0
O  O195  1  0.72336865  0.08233932  0.01191819  1  -1.079989  0  -0.19663  -0.169502  0  2.546648  0
