# generated using pymatgen
data_Zr3H22C44NO16F5
_symmetry_space_group_name_H-M   'P 1'
_cell_length_a   19.22543542
_cell_length_b   19.19168198
_cell_length_c   19.19266138
_cell_angle_alpha   59.44773269
_cell_angle_beta   59.93893119
_cell_angle_gamma   59.94495456
_symmetry_Int_Tables_number   1
_chemical_formula_structural   Zr3H22C44NO16F5
_chemical_formula_sum   'Zr6 H44 C88 N2 O32 F10'
_cell_volume   4981.79015339
_cell_formula_units_Z   2
loop_
 _symmetry_equiv_pos_site_id
 _symmetry_equiv_pos_as_xyz
  1  'x, y, z'
loop_
 _atom_site_type_symbol
 _atom_site_label
 _atom_site_symmetry_multiplicity
 _atom_site_fract_x
 _atom_site_fract_y
 _atom_site_fract_z
 _atom_site_occupancy
 _atom_site_pbe_bader_charge
 _atom_site_pbe_bader_spin_density
 _atom_site_pbe_cm5_charge
 _atom_site_pbe_ddec_charge
 _atom_site_pbe_ddec_spin_density
 _atom_site_pbe_ddec_sum_bond_order
 _atom_site_pbe_magmom
Zr  Zr0  1  0.90781563  0.40687923  0.59314922  1  2.634144  0  1.624783  2.372989  0  2.751242  0
Zr  Zr1  1  0.09217340  0.59260771  0.40743657  1  2.633161  0  1.625472  2.374255  0  2.750605  0
Zr  Zr2  1  0.09165218  0.40642553  0.59355234  1  2.636818  0  1.624139  2.373417  0  2.753026  0
Zr  Zr3  1  0.90834873  0.59299629  0.40700266  1  2.630735  0  1.624107  2.372884  0  2.753962  0
Zr  Zr4  1  0.90829753  0.59146513  0.59195517  1  2.633587  0  1.629141  2.371558  0  2.769437  0
Zr  Zr5  1  0.09173685  0.40800238  0.40850415  1  2.631917  0  1.628699  2.372229  0  2.766483  0
H  H6  1  0.92747521  0.42538656  0.71876426  1  0.605718  0  0.331824  0.423318  0  0.857138  0
H  H7  1  0.92837212  0.71822385  0.42593272  1  0.612404  0  0.331884  0.422681  0  0.858544  0
H  H8  1  0.21706564  0.42707626  0.42833419  1  0.622279  0  0.331228  0.422336  0  0.858148  0
H  H9  1  0.92752902  0.42781799  0.42759569  1  0.617178  0  0.331137  0.422304  0  0.85808  0
H  H10  1  0.31961810  0.61403328  0.17666752  1  0.136525  0  0.117941  0.145074  0  0.98019  0
H  H11  1  0.67679792  0.38933493  0.82013254  1  0.140295  0  0.11815  0.14541  0  0.980523  0
H  H12  1  0.67793209  0.61354760  0.81857454  1  0.108256  0  0.110242  0.118188  0  0.989166  0
H  H13  1  0.55237222  0.61150256  0.94749941  1  0.118869  0  0.09974  0.110911  0  1.049283  0
H  H14  1  0.31854847  0.38978412  0.17822361  1  0.107519  0  0.110076  0.118031  0  0.989153  0
H  H15  1  0.44744621  0.38847134  0.05269096  1  0.126071  0  0.099494  0.110318  0  1.049771  0
H  H16  1  0.11365200  0.81972910  0.38962526  1  0.108359  0  0.118034  0.145201  0  0.98085  0
H  H17  1  0.88963074  0.17628428  0.61426054  1  0.101071  0  0.118204  0.145461  0  0.980234  0
H  H18  1  0.11336803  0.17788792  0.38998612  1  0.072308  0  0.110087  0.118145  0  0.98917  0
H  H19  1  0.11119255  0.05249232  0.38851675  1  0.123809  0  0.099247  0.110379  0  1.050163  0
H  H20  1  0.88982652  0.81826409  0.61380781  1  0.065269  0  0.110339  0.118296  0  0.988657  0
H  H21  1  0.88838750  0.94734647  0.61155933  1  0.125544  0  0.099976  0.110906  0  1.048998  0
H  H22  1  0.31858564  0.17810037  0.38974497  1  0.1292  0  0.117859  0.146562  0  0.979003  0
H  H23  1  0.67870927  0.81855795  0.61350258  1  0.119444  0  0.117958  0.145113  0  0.981207  0
H  H24  1  0.67654820  0.81975256  0.39006002  1  0.112429  0  0.107962  0.114795  0  0.993984  0
H  H25  1  0.55075095  0.94871040  0.38888540  1  0.102263  0  0.098708  0.109912  0  1.053065  0
H  H26  1  0.31956415  0.17564159  0.61449003  1  0.07602  0  0.109777  0.117377  0  0.990411  0
H  H27  1  0.44882559  0.05047853  0.61201015  1  0.113116  0  0.10033  0.112015  0  1.04919  0
H  H28  1  0.88936944  0.61323601  0.81883164  1  0.121468  0  0.118177  0.145124  0  0.980411  0
H  H29  1  0.11366743  0.38953095  0.17839450  1  0.08357  0  0.11786  0.14457  0  0.981705  0
H  H30  1  0.89041678  0.61427494  0.17594585  1  0.081  0  0.109808  0.117318  0  0.990409  0
H  H31  1  0.88892114  0.61194256  0.05064416  1  0.133489  0  0.100349  0.112218  0  1.049501  0
H  H32  1  0.11380455  0.38981082  0.82005749  1  0.07957  0  0.108281  0.115211  0  0.993796  0
H  H33  1  0.11190346  0.38878851  0.94890083  1  0.14241  0  0.098902  0.110176  0  1.052167  0
H  H34  1  0.11337102  0.82067090  0.17679548  1  0.072842  0  0.104751  0.113708  0  1.00234  0
H  H35  1  0.17747359  0.93311938  0.06498824  1  0.051493  0  0.099482  0.114332  0  1.0019  0
H  H36  1  0.89352278  0.81554898  0.17709162  1  0.058098  0  0.102711  0.105342  0  1.029937  0
H  H37  1  0.88910609  0.17620772  0.82130071  1  0.068756  0  0.104879  0.114081  0  1.001879  0
H  H38  1  0.82437197  0.06437822  0.93373684  1  0.036511  0  0.099618  0.11401  0  1.00244  0
H  H39  1  0.11378320  0.17649323  0.81621563  1  0.063194  0  0.102691  0.103645  0  1.03116  0
H  H40  1  0.31972999  0.38769795  0.61547100  1  0.11758  0  0.116759  0.143389  0  0.982777  0
H  H41  1  0.67708151  0.61496215  0.38826442  1  0.123943  0  0.116774  0.143611  0  0.9824  0
H  H42  1  0.67745869  0.38917580  0.61414810  1  0.077618  0  0.110072  0.118406  0  0.988938  0
H  H43  1  0.55211857  0.38755228  0.61250913  1  0.1096  0  0.100079  0.111581  0  1.049166  0
H  H44  1  0.31915417  0.61361403  0.38971210  1  0.0871  0  0.110068  0.118495  0  0.989227  0
H  H45  1  0.44776408  0.61202541  0.38804445  1  0.119346  0  0.099789  0.111465  0  1.048858  0
H  H46  1  0.18352090  0.13112838  0.88846027  1  0.425453  0  0.304044  0.295107  0  0.963024  0
H  H47  1  0.23215138  0.04686374  0.95946560  1  0.411029  0  0.310073  0.303024  0  0.937779  0
H  H48  1  0.79704464  0.88763187  0.13167730  1  0.445456  0  0.304182  0.294529  0  0.964599  0
H  H49  1  0.76144165  0.95881982  0.04758778  1  0.418544  0  0.310116  0.302896  0  0.938182  0
C  C50  1  0.76365499  0.50200557  0.73184377  1  1.55207  0  0.236502  0.640069  0  4.100618  0
C  C51  1  0.00250134  0.73135204  0.50245199  1  1.568946  0  0.236577  0.639354  0  4.102174  0
C  C52  1  0.23147272  0.50262444  0.26364893  1  1.549643  0  0.236841  0.640763  0  4.099487  0
C  C53  1  0.00228404  0.26315021  0.50301856  1  1.576117  0  0.237012  0.641205  0  4.099652  0
C  C54  1  0.00136995  0.26118508  0.73473901  1  1.532103  0  0.235512  0.645094  0  4.084697  0
C  C55  1  0.76377620  0.50257464  0.50189590  1  1.554448  0  0.235901  0.63882  0  4.09923  0
C  C56  1  0.00269691  0.73413512  0.26175773  1  1.52649  0  0.236489  0.646581  0  4.083199  0
C  C57  1  0.23175393  0.50132698  0.50310436  1  1.553056  0  0.236333  0.640222  0  4.09703  0
C  C58  1  0.00225646  0.50132633  0.73231985  1  1.557634  0  0.236408  0.640063  0  4.101062  0
C  C59  1  0.23108210  0.26268218  0.50359305  1  1.563872  0  0.236918  0.641443  0  4.09903  0
C  C60  1  0.00263168  0.50321912  0.26313271  1  1.574827  0  0.236389  0.640591  0  4.101706  0
C  C61  1  0.76415303  0.73189431  0.50174980  1  1.54134  0  0.236074  0.639277  0  4.102637  0
C  C62  1  0.30947343  0.50194106  0.18644057  1  0.004019  0  -0.013812  -0.012117  0  3.994015  0
C  C63  1  0.68634570  0.50203376  0.80973889  1  0.023814  0  -0.014251  -0.012099  0  3.994209  0
C  C64  1  0.34721376  0.56408922  0.14980854  1  0.032982  0  -0.092258  -0.216887  0  3.991082  0
C  C65  1  0.42038473  0.56230111  0.07887443  1  0.403866  0  0.103149  0.244162  0  3.998238  0
C  C66  1  0.64979338  0.43867821  0.84758851  1  0.009733  0  -0.092586  -0.217457  0  3.990735  0
C  C67  1  0.57882879  0.43824371  0.92077342  1  0.403647  0  0.102152  0.242829  0  3.997201  0
C  C68  1  0.64977056  0.56395512  0.84737568  1  -0.030519  0  -0.086895  -0.100964  0  3.997198  0
C  C69  1  0.57844336  0.56230966  0.92062588  1  -0.016616  0  -0.089848  -0.11881  0  3.977099  0
C  C70  1  0.34726194  0.43881285  0.14999994  1  -0.048541  0  -0.087261  -0.101411  0  3.998195  0
C  C71  1  0.42050527  0.43851834  0.07871769  1  -0.020343  0  -0.090841  -0.118977  0  3.979042  0
C  C72  1  0.46124178  0.50041529  0.03872183  1  0.005119  0  -0.006116  -0.014755  0  3.953356  0
C  C73  1  0.53852167  0.49957754  0.96147019  1  -0.049128  0  -0.00646  -0.01378  0  3.951986  0
C  C74  1  0.00181909  0.80934154  0.50234886  1  0.03512  0  -0.01441  -0.01192  0  3.995523  0
C  C75  1  0.00209038  0.18607300  0.50217634  1  -0.009623  0  -0.013721  -0.012286  0  3.994172  0
C  C76  1  0.06383323  0.84723173  0.43892435  1  0.07309  0  -0.092422  -0.217768  0  3.992227  0
C  C77  1  0.06198074  0.92050669  0.43837131  1  0.349664  0  0.102604  0.244038  0  3.997094  0
C  C78  1  0.93879099  0.14948035  0.56426834  1  0.077476  0  -0.092085  -0.21674  0  3.989988  0
C  C79  1  0.93826356  0.07863287  0.56239778  1  0.339783  0  0.102432  0.243085  0  3.99816  0
C  C80  1  0.06381685  0.14968877  0.43899018  1  0.032686  0  -0.087559  -0.101708  0  3.997545  0
C  C81  1  0.06208816  0.07847990  0.43861827  1  -0.049713  0  -0.090249  -0.119267  0  3.978139  0
C  C82  1  0.93876958  0.84707007  0.56418396  1  -0.0431  0  -0.087402  -0.101694  0  3.997269  0
C  C83  1  0.93842811  0.92040155  0.56242299  1  -0.038561  0  -0.089927  -0.118196  0  3.977896  0
C  C84  1  0.00022500  0.96125323  0.49966193  1  0.071213  0  -0.006223  -0.014367  0  3.953807  0
C  C85  1  0.99942620  0.03850196  0.50048840  1  0.01903  0  -0.006182  -0.014059  0  3.952649  0
C  C86  1  0.30939927  0.18580215  0.50288461  1  -0.023691  0  -0.01465  -0.013984  0  3.996129  0
C  C87  1  0.68672819  0.80967561  0.50157564  1  0.001158  0  -0.01456  -0.011152  0  3.993793  0
C  C88  1  0.34663248  0.15049925  0.43912610  1  0.045775  0  -0.091561  -0.217498  0  3.991016  0
C  C89  1  0.42002544  0.07979035  0.43839055  1  0.417157  0  0.101966  0.242744  0  3.996888  0
C  C90  1  0.65108918  0.84662255  0.56368671  1  0.048002  0  -0.090707  -0.215538  0  3.990292  0
C  C91  1  0.58007368  0.91979362  0.56201749  1  0.424833  0  0.102191  0.243239  0  3.998366  0
C  C92  1  0.64907966  0.84809860  0.43883498  1  -0.04344  0  -0.08843  -0.102053  0  4.005149  0
C  C93  1  0.57772472  0.92125843  0.43867465  1  -0.024107  0  -0.091845  -0.122891  0  3.985304  0
C  C94  1  0.34795896  0.14836132  0.56468244  1  -0.033752  0  -0.086499  -0.09837  0  3.997657  0
C  C95  1  0.42136583  0.07730042  0.56275922  1  0.041418  0  -0.090162  -0.12085  0  3.977934  0
C  C96  1  0.46150876  0.03853003  0.49975666  1  -0.067076  0  -0.006724  -0.013847  0  3.951708  0
C  C97  1  0.53882052  0.96131162  0.50039861  1  0.01992  0  -0.006222  -0.013138  0  3.951421  0
C  C98  1  0.00215818  0.50129459  0.80998995  1  0.019287  0  -0.014872  -0.011743  0  3.994313  0
C  C99  1  0.00201345  0.50264541  0.18613023  1  0.065135  0  -0.014266  -0.013161  0  3.995588  0
C  C100  1  0.93877645  0.56345630  0.84687163  1  0.025927  0  -0.091067  -0.215477  0  3.989031  0
C  C101  1  0.93834010  0.56188231  0.91997365  1  0.364028  0  0.102836  0.243608  0  3.996937  0
C  C102  1  0.06387216  0.43894545  0.15076838  1  0.056846  0  -0.092045  -0.216663  0  3.992871  0
C  C103  1  0.06199875  0.43828762  0.07998066  1  0.386445  0  0.101743  0.243015  0  3.997471  0
C  C104  1  0.93914795  0.56450392  0.14863272  1  -0.063342  0  -0.086686  -0.098185  0  3.997795  0
C  C105  1  0.93878561  0.56265578  0.07750119  1  -0.034479  0  -0.090144  -0.121443  0  3.979013  0
C  C106  1  0.06417251  0.43860961  0.84837344  1  -0.03491  0  -0.088892  -0.102816  0  4.005069  0
C  C107  1  0.06257162  0.43854571  0.92146897  1  -0.0213  0  -0.09182  -0.122883  0  3.983563  0
C  C108  1  0.99970031  0.50030031  0.96148638  1  0.00784  0  -0.006502  -0.012752  0  3.950489  0
C  C109  1  0.00043105  0.49967134  0.03870164  1  0.043633  0  -0.006496  -0.013896  0  3.951447  0
C  C110  1  0.06479558  0.84995114  0.14736329  1  -0.011017  0  -0.085816  -0.147076  0  3.928474  0
C  C111  1  0.06546344  0.92391837  0.07370936  1  -0.022677  0  -0.007667  0.101139  0  4.074745  0
C  C112  1  0.12890385  0.96251134  0.03530944  1  0.021626  0  -0.119088  -0.291962  0  3.991623  0
C  C113  1  0.93932847  0.84849242  0.14702914  1  0.00813  0  -0.093423  -0.152708  0  3.962375  0
C  C114  1  0.93682371  0.92274689  0.07416642  1  -0.07377  0  -0.009504  -0.005813  0  3.988126  0
C  C115  1  0.87192835  0.96187661  0.03506504  1  0.411899  0  0.095306  0.261256  0  4.114731  0
C  C116  1  0.93782632  0.14679812  0.85059026  1  -0.000178  0  -0.086237  -0.148393  0  3.930002  0
C  C117  1  0.93684879  0.07312466  0.92454758  1  -0.034959  0  -0.007514  0.100856  0  4.076374  0
C  C118  1  0.87322078  0.03470021  0.96314148  1  0.018112  0  -0.119106  -0.290981  0  3.992753  0
C  C119  1  0.06507778  0.14645555  0.84914131  1  -0.063917  0  -0.093444  -0.151562  0  3.960436  0
C  C120  1  0.06620620  0.07356474  0.92338041  1  0.001931  0  -0.009854  -0.005786  0  3.985966  0
C  C121  1  0.13107245  0.03445575  0.96250733  1  0.398063  0  0.095488  0.261737  0  4.115142  0
C  C122  1  0.00251627  0.81259410  0.18357151  1  -0.033887  0  -0.025786  -0.044546  0  4.027716  0
C  C123  1  0.00060523  0.96127946  0.03650870  1  0.029617  0  -0.00181  -0.003364  0  3.936297  0
C  C124  1  0.00124612  0.18301991  0.81322400  1  0.001439  0  -0.024991  -0.042992  0  4.026432  0
C  C125  1  0.00156108  0.03590198  0.96191196  1  0.003638  0  -0.002172  -0.003538  0  3.936297  0
C  C126  1  0.30965888  0.50128578  0.50258480  1  0.026899  0  -0.0144  -0.012235  0  3.990018  0
C  C127  1  0.68643643  0.50207191  0.50183386  1  0.03078  0  -0.013913  -0.010421  0  3.989644  0
C  C128  1  0.34724418  0.43759207  0.56509871  1  -0.009666  0  -0.092372  -0.216725  0  3.991844  0
C  C129  1  0.42028611  0.43741923  0.56317659  1  0.362593  0  0.101204  0.24194  0  3.998662  0
C  C130  1  0.65003695  0.56459361  0.43814663  1  0.007423  0  -0.092928  -0.218548  0  3.992154  0
C  C131  1  0.57908623  0.56269804  0.43794505  1  0.347849  0  0.102413  0.243651  0  3.998144  0
C  C132  1  0.64952398  0.43853123  0.56427016  1  0.02914  0  -0.087603  -0.101577  0  3.997031  0
C  C133  1  0.57827453  0.43810400  0.56283452  1  -0.044441  0  -0.090274  -0.120279  0  3.979322  0
C  C134  1  0.34765226  0.56373562  0.43904148  1  0.010659  0  -0.087225  -0.101  0  3.997221  0
C  C135  1  0.42075352  0.56233176  0.43859529  1  -0.027226  0  -0.090925  -0.120795  0  3.977921  0
C  C136  1  0.46131063  0.49930263  0.50082591  1  0.070955  0  -0.005877  -0.013604  0  3.948432  0
C  C137  1  0.53853678  0.50034573  0.49979661  1  0.024555  0  -0.006744  -0.014311  0  3.950226  0
N  N138  1  0.19619715  0.06784647  0.92370540  1  -1.195901  0  -0.597821  -0.617541  0  3.322914  0
N  N139  1  0.81223968  0.92306439  0.06845999  1  -1.226169  0  -0.598126  -0.616893  0  3.324391  0
O  O140  1  0.79382152  0.44249430  0.70212472  1  -1.179573  0  -0.354711  -0.617709  0  2.276424  0
O  O141  1  0.06160386  0.70157718  0.44298260  1  -1.185951  0  -0.354886  -0.617313  0  2.276154  0
O  O142  1  0.20171349  0.56172111  0.29379952  1  -1.177762  0  -0.354701  -0.61748  0  2.27436  0
O  O143  1  0.94285823  0.29321969  0.56218629  1  -1.184855  0  -0.354627  -0.617514  0  2.274787  0
O  O144  1  0.06020520  0.29257859  0.70391750  1  -1.183034  0  -0.361039  -0.626433  0  2.282666  0
O  O145  1  0.79442490  0.56203375  0.44175267  1  -1.183743  0  -0.3544  -0.617837  0  2.272875  0
O  O146  1  0.94327551  0.70332827  0.29316606  1  -1.186809  0  -0.361459  -0.627077  0  2.28217  0
O  O147  1  0.20181105  0.44116515  0.56255568  1  -1.182716  0  -0.354213  -0.618122  0  2.272643  0
O  O148  1  0.94258309  0.56031326  0.70206361  1  -1.17913  0  -0.355803  -0.616711  0  2.282231  0
O  O149  1  0.20088068  0.29376367  0.44382041  1  -1.17933  0  -0.355694  -0.617091  0  2.281951  0
O  O150  1  0.06149846  0.44340788  0.29424221  1  -1.189705  0  -0.355596  -0.617107  0  2.281778  0
O  O151  1  0.79505760  0.70159540  0.56077251  1  -1.172223  0  -0.355501  -0.616313  0  2.281891  0
O  O152  1  0.20094882  0.29260151  0.56293598  1  -1.17741  0  -0.354508  -0.619774  0  2.278253  0
O  O153  1  0.94344572  0.56247303  0.29314024  1  -1.180323  0  -0.354315  -0.619209  0  2.279871  0
O  O154  1  0.79457606  0.70229283  0.44209869  1  -1.174906  0  -0.354694  -0.619858  0  2.281826  0
O  O155  1  0.06102469  0.44161787  0.70278602  1  -1.183154  0  -0.354726  -0.620015  0  2.281391  0
O  O156  1  0.94201531  0.29275460  0.70386373  1  -1.181545  0  -0.358364  -0.623672  0  2.275324  0
O  O157  1  0.20175196  0.56083727  0.44304229  1  -1.177964  0  -0.354869  -0.620174  0  2.278046  0
O  O158  1  0.06134937  0.70327624  0.29332893  1  -1.18221  0  -0.359037  -0.62456  0  2.27721  0
O  O159  1  0.79435463  0.44250351  0.56138456  1  -1.181002  0  -0.354397  -0.619409  0  2.278637  0
O  O160  1  0.06120583  0.29424598  0.44338956  1  -1.193026  0  -0.355913  -0.619278  0  2.285248  0
O  O161  1  0.79479677  0.56085177  0.70155176  1  -1.176486  0  -0.355776  -0.618603  0  2.285746  0
O  O162  1  0.94284212  0.70103382  0.56134551  1  -1.181831  0  -0.355728  -0.618037  0  2.286557  0
O  O163  1  0.20113456  0.44295925  0.29475004  1  -1.177626  0  -0.355669  -0.618923  0  2.285421  0
O  O164  1  0.94808039  0.44829968  0.44825683  1  -1.246424  0  -0.69457  -1.069192  0  2.361649  0
O  O165  1  0.15537002  0.44771421  0.44882502  1  -1.253338  0  -0.694631  -1.069727  0  2.362312  0
O  O166  1  0.94848621  0.65611192  0.44751821  1  -1.242426  0  -0.695292  -1.067667  0  2.366838  0
O  O167  1  0.94788925  0.44697059  0.65664269  1  -1.233762  0  -0.695162  -1.068003  0  2.364333  0
O  O168  1  0.03838069  0.53748605  0.53845913  1  -1.199124  0  -0.790802  -1.148696  0  2.124883  0
O  O169  1  0.88566880  0.53790916  0.53804700  1  -1.198186  0  -0.790705  -1.147771  0  2.124808  0
O  O170  1  0.03829374  0.53881188  0.38507049  1  -1.189908  0  -0.791331  -1.147931  0  2.127098  0
O  O171  1  0.03782133  0.38452017  0.53934176  1  -1.193415  0  -0.791589  -1.147922  0  2.126911  0
F  F172  1  0.45151294  0.62637333  0.04935363  1  -0.634467  0  -0.097255  -0.146938  0  1.360197  0
F  F173  1  0.54947401  0.37235249  0.95209603  1  -0.635266  0  -0.097559  -0.147705  0  1.360098  0
F  F174  1  0.12586278  0.95186446  0.37242413  1  -0.636722  0  -0.097956  -0.148068  0  1.359341  0
F  F175  1  0.87253125  0.04917225  0.62642977  1  -0.635379  0  -0.097121  -0.146748  0  1.361417  0
F  F176  1  0.45077871  0.05162077  0.37216930  1  -0.640467  0  -0.097982  -0.148127  0  1.358724  0
F  F177  1  0.55163045  0.95026875  0.62586763  1  -0.637898  0  -0.095721  -0.145406  0  1.36046  0
F  F178  1  0.87248623  0.62576417  0.95041238  1  -0.638369  0  -0.095988  -0.145811  0  1.359819  0
F  F179  1  0.12569167  0.37211300  0.05176401  1  -0.638575  0  -0.097446  -0.147564  0  1.359083  0
F  F180  1  0.45120189  0.37118681  0.62766226  1  -0.637371  0  -0.097304  -0.14736  0  1.361487  0
F  F181  1  0.54991543  0.62720625  0.37172637  1  -0.637418  0  -0.098124  -0.147974  0  1.36065  0
