# generated using pymatgen
data_KCuH12C18(NO)2
_symmetry_space_group_name_H-M   'P 1'
_cell_length_a   7.28851175
_cell_length_b   10.40845299
_cell_length_c   11.22610181
_cell_angle_alpha   73.07926378
_cell_angle_beta   69.96606453
_cell_angle_gamma   82.23962375
_symmetry_Int_Tables_number   1
_chemical_formula_structural   KCuH12C18(NO)2
_chemical_formula_sum   'K2 Cu2 H24 C36 N4 O4'
_cell_volume   764.87422359
_cell_formula_units_Z   2
loop_
 _symmetry_equiv_pos_site_id
 _symmetry_equiv_pos_as_xyz
  1  'x, y, z'
loop_
 _atom_site_type_symbol
 _atom_site_label
 _atom_site_symmetry_multiplicity
 _atom_site_fract_x
 _atom_site_fract_y
 _atom_site_fract_z
 _atom_site_occupancy
 _atom_site_hle17_bader_spin_density
 _atom_site_hle17_ddec_charge
 _atom_site_hle17_ddec_spin_density
 _atom_site_hle17_ddec_sum_bond_order
 _atom_site_hle17_magmom
 _atom_site_hse06_10hf_bader_spin_density
 _atom_site_hse06_10hf_ddec_charge
 _atom_site_hse06_10hf_ddec_spin_density
 _atom_site_hse06_10hf_ddec_sum_bond_order
 _atom_site_hse06_10hf_magmom
 _atom_site_hse06_bader_spin_density
 _atom_site_hse06_ddec_charge
 _atom_site_hse06_ddec_spin_density
 _atom_site_hse06_ddec_sum_bond_order
 _atom_site_hse06_magmom
 _atom_site_pbe_bader_spin_density
 _atom_site_pbe_cm5_charge
 _atom_site_pbe_ddec_charge
 _atom_site_pbe_ddec_spin_density
 _atom_site_pbe_ddec_sum_bond_order
 _atom_site_pbe_magmom
K  K0  1  0.76522735  0.43815564  0.99252075  1  0  0.921008  0  0.502304  0  0  0.877221  0  0.68637  0  0  0.890618  0  0.665145  0  0  0.770325  0.867411  0  0.701165  0
K  K1  1  0.23476646  0.56184922  0.00747471  1  0  0.921029  0  0.5022  0  0  0.877216  0  0.686286  0  0  0.890605  0  0.665069  0  0  0.770247  0.867383  0  0.701117  0
Cu  Cu2  1  0.69175775  0.67536371  0.16270726  1  0  0.479066  0  1.824588  0  0  0.349201  0  2.30581  0  0  0.347552  0  2.260842  0  0  0.53176  0.354384  0  2.332536  0
Cu  Cu3  1  0.30824059  0.32463918  0.83728777  1  0  0.479052  0  1.824477  0  0  0.349195  0  2.305695  0  0  0.347556  0  2.260703  0  0  0.531739  0.354384  0  2.332423  0
H  H4  1  0.11675756  0.73712889  0.72150356  1  0  0.094264  0  1.001081  0  0  0.102547  0  1.069197  0  0  0.104168  0  1.071602  0  0  0.095611  0.101443  0  1.067582  0
H  H5  1  0.88324416  0.26287297  0.27847500  1  0  0.094238  0  1.001193  0  0  0.102484  0  1.069346  0  0  0.104123  0  1.071702  0  0  0.095593  0.101382  0  1.06773  0
H  H6  1  0.16031816  0.97127665  0.58536371  1  0  0.077296  0  0.963286  0  0  0.093461  0  1.019221  0  0  0.095224  0  1.018403  0  0  0.094623  0.091801  0  1.020719  0
H  H7  1  0.83968396  0.02873332  0.41463215  1  0  0.077322  0  0.963245  0  0  0.093453  0  1.019212  0  0  0.095216  0  1.018396  0  0  0.094605  0.091793  0  1.020708  0
H  H8  1  0.99189868  0.16274940  0.67747597  1  0  0.084362  0  0.979224  0  0  0.096536  0  1.044449  0  0  0.098376  0  1.045534  0  0  0.091411  0.095162  0  1.043952  0
H  H9  1  0.00811251  0.83725463  0.32252491  1  0  0.084357  0  0.979309  0  0  0.096546  0  1.044506  0  0  0.098382  0  1.045601  0  0  0.091429  0.095183  0  1.043996  0
H  H10  1  0.74059137  0.23850152  0.86917411  1  0  0.089594  0  0.970675  0  0  0.098368  0  1.039714  0  0  0.103388  0  1.033683  0  0  0.101629  0.0946  0  1.044317  0
H  H11  1  0.25941412  0.76150145  0.13082561  1  0  0.089569  0  0.970652  0  0  0.09831  0  1.039728  0  0  0.103353  0  1.033673  0  0  0.101632  0.094544  0  1.044325  0
H  H12  1  0.54059439  0.17537206  0.10960666  1  0  0.091652  0  0.95873  0  0  0.103612  0  1.018818  0  0  0.106809  0  1.018335  0  0  0.107664  0.101525  0  1.018996  0
H  H13  1  0.45942075  0.82462191  0.89038454  1  0  0.091725  0  0.958489  0  0  0.103648  0  1.018635  0  0  0.106845  0  1.018149  0  0  0.10771  0.101559  0  1.018812  0
H  H14  1  0.53346955  0.93699693  0.23653194  1  0  0.062288  0  0.95332  0  0  0.075246  0  1.016832  0  0  0.07768  0  1.013427  0  0  0.109716  0.073513  0  1.019136  0
H  H15  1  0.46653585  0.06300904  0.76346164  1  0  0.062308  0  0.953283  0  0  0.075245  0  1.016832  0  0  0.077677  0  1.013431  0  0  0.109683  0.073512  0  1.019136  0
H  H16  1  0.22097445  0.34968093  0.23176264  1  0  0.091362  0  0.99666  0  0  0.099201  0  1.067343  0  0  0.103257  0  1.065904  0  0  0.093137  0.09647  0  1.068128  0
H  H17  1  0.77901468  0.65030781  0.76823998  1  0  0.091373  0  0.996766  0  0  0.099234  0  1.067409  0  0  0.103289  0  1.065967  0  0  0.093149  0.096503  0  1.068195  0
H  H18  1  0.20061145  0.15211913  0.41595885  1  0  0.080651  0  0.962999  0  0  0.095049  0  1.020303  0  0  0.097058  0  1.019616  0  0  0.095225  0.093489  0  1.021158  0
H  H19  1  0.79937248  0.84787567  0.58405928  1  0  0.080723  0  0.962779  0  0  0.095102  0  1.020119  0  0  0.097114  0  1.019428  0  0  0.09519  0.093517  0  1.021001  0
H  H20  1  0.40686304  0.12241508  0.56060673  1  0  0.088321  0  0.981665  0  0  0.098083  0  1.049206  0  0  0.100541  0  1.049654  0  0  0.092749  0.095943  0  1.04987  0
H  H21  1  0.59311564  0.87759272  0.43940453  1  0  0.088311  0  0.981587  0  0  0.098152  0  1.049026  0  0  0.10061  0  1.049473  0  0  0.092766  0.096012  0  1.049689  0
H  H22  1  0.67527527  0.21222875  0.60813075  1  0  0.088065  0  0.957253  0  0  0.098246  0  1.026021  0  0  0.102276  0  1.020713  0  0  0.101756  0.095323  0  1.02978  0
H  H23  1  0.32473183  0.78777223  0.39186916  1  0  0.088113  0  0.957112  0  0  0.098307  0  1.025868  0  0  0.10234  0  1.020554  0  0  0.101781  0.095382  0  1.029628  0
H  H24  1  0.91438807  0.39081364  0.54164439  1  0  0.090804  0  0.975003  0  0  0.105685  0  1.031873  0  0  0.107634  0  1.032331  0  0  0.102383  0.10429  0  1.031817  0
H  H25  1  0.08561390  0.60918122  0.45834759  1  0  0.090761  0  0.975034  0  0  0.105653  0  1.031904  0  0  0.107604  0  1.032363  0  0  0.102356  0.104254  0  1.031853  0
H  H26  1  0.91662408  0.58951094  0.35118611  1  0  0.060419  0  0.958206  0  0  0.069876  0  1.028256  0  0  0.073922  0  1.022565  0  0  0.110895  0.067002  0  1.032325  0
H  H27  1  0.08337405  0.41049199  0.64881786  1  0  0.06042  0  0.958295  0  0  0.0699  0  1.0283  0  0  0.073921  0  1.022636  0  0  0.110907  0.067023  0  1.032378  0
C  C28  1  0.92549940  0.78736739  0.89664825  1  0  0.281606  0  3.960415  0  0  0.271697  0  4.211721  0  0  0.286513  0  4.227323  0  0  0.056676  0.261525  0  4.201238  0
C  C29  1  0.07451701  0.21264275  0.10335699  1  0  0.28157  0  3.960515  0  0  0.271584  0  4.211955  0  0  0.286401  0  4.227547  0  0  0.056579  0.261411  0  4.201475  0
C  C30  1  0.04333052  0.81905486  0.76447366  1  0  -0.23468  0  3.774606  0  0  -0.251248  0  4.027013  0  0  -0.262275  0  4.051993  0  0  -0.125832  -0.244333  0  4.010418  0
C  C31  1  0.95667356  0.18094810  0.23552458  1  0  -0.234561  0  3.774597  0  0  -0.251064  0  4.027007  0  0  -0.262081  0  4.051989  0  0  -0.125859  -0.244148  0  4.010411  0
C  C32  1  0.06590924  0.95264291  0.68744911  1  0  -0.041691  0  3.853163  0  0  -0.056546  0  4.1044  0  0  -0.054337  0  4.1279  0  0  -0.098184  -0.057872  0  4.089446  0
C  C33  1  0.93409570  0.04735098  0.31254339  1  0  -0.04178  0  3.853091  0  0  -0.056604  0  4.104315  0  0  -0.054398  0  4.127817  0  0  -0.098151  -0.057928  0  4.08936  0
C  C34  1  0.97183181  0.05934489  0.73786445  1  0  -0.185858  0  3.80663  0  0  -0.207329  0  4.062136  0  0  -0.215631  0  4.089298  0  0  -0.123088  -0.201999  0  4.044388  0
C  C35  1  0.02818303  0.94065111  0.26213249  1  0  -0.185882  0  3.806595  0  0  -0.207371  0  4.062099  0  0  -0.215671  0  4.089259  0  0  -0.123142  -0.202053  0  4.044346  0
C  C36  1  0.85053317  0.03334353  0.87086803  1  0  0.04363  0  3.820973  0  0  0.061883  0  4.046199  0  0  0.06041  0  4.072792  0  0  -0.011054  0.062879  0  4.028524  0
C  C37  1  0.14947468  0.96665037  0.12912385  1  0  0.04371  0  3.820596  0  0  0.061992  0  4.045834  0  0  0.06052  0  4.072428  0  0  -0.011015  0.062987  0  4.028166  0
C  C38  1  0.74123432  0.13504790  0.92978601  1  0  -0.07444  0  3.713407  0  0  -0.100394  0  3.968761  0  0  -0.094401  0  3.979967  0  0  -0.076788  -0.104782  0  3.961926  0
C  C39  1  0.25877159  0.86495204  0.07020642  1  0  -0.074569  0  3.713285  0  0  -0.10049  0  3.968635  0  0  -0.094519  0  3.979833  0  0  -0.076838  -0.104868  0  3.961785  0
C  C40  1  0.62931340  0.10085959  0.06075756  1  0  -0.120681  0  3.77453  0  0  -0.134585  0  4.029338  0  0  -0.140349  0  4.048714  0  0  -0.091396  -0.131035  0  4.016435  0
C  C41  1  0.37070612  0.89913342  0.93923563  1  0  -0.120553  0  3.774046  0  0  -0.134405  0  4.028809  0  0  -0.140166  0  4.048189  0  0  -0.091385  -0.130852  0  4.015904  0
C  C42  1  0.62179102  0.96537400  0.13334926  1  0  0.12477  0  3.719326  0  0  0.092958  0  3.971694  0  0  0.10141  0  3.986854  0  0  0.041136  0.087957  0  3.961297  0
C  C43  1  0.37820035  0.03462481  0.86664748  1  0  0.124585  0  3.719578  0  0  0.092787  0  3.971932  0  0  0.101237  0  3.987096  0  0  0.041093  0.087788  0  3.961535  0
C  C44  1  0.82978585  0.89787788  0.95072885  1  0  0.080254  0  3.702675  0  0  0.080945  0  3.924844  0  0  0.080882  0  3.947487  0  0  0.089474  0.081097  0  3.910161  0
C  C45  1  0.17022494  0.10213019  0.04927548  1  0  0.080273  0  3.702288  0  0  0.080906  0  3.924616  0  0  0.080845  0  3.947251  0  0  0.089484  0.081058  0  3.909935  0
C  C46  1  0.44213792  0.44592016  0.26088188  1  0  0.256245  0  3.994515  0  0  0.247252  0  4.248868  0  0  0.261765  0  4.265986  0  0  0.041589  0.237512  0  4.236811  0
C  C47  1  0.55787071  0.55407883  0.73912181  1  0  0.256174  0  3.994418  0  0  0.247251  0  4.248763  0  0  0.261762  0  4.265881  0  0  0.041541  0.237511  0  4.23671  0
C  C48  1  0.31416575  0.34236185  0.29177792  1  0  -0.249429  0  3.792761  0  0  -0.267489  0  4.049482  0  0  -0.278275  0  4.072114  0  0  -0.130762  -0.259973  0  4.033385  0
C  C49  1  0.68582527  0.65763800  0.70823020  1  0  -0.249456  0  3.793109  0  0  -0.267528  0  4.049762  0  0  -0.278308  0  4.072392  0  0  -0.130736  -0.260009  0  4.033662  0
C  C50  1  0.30306007  0.22830738  0.39806442  1  0  -0.035318  0  3.845918  0  0  -0.049573  0  4.095852  0  0  -0.046569  0  4.118192  0  0  -0.097401  -0.051036  0  4.079967  0
C  C51  1  0.69691797  0.77169036  0.60194705  1  0  -0.035314  0  3.84581  0  0  -0.049564  0  4.095775  0  0  -0.046562  0  4.118115  0  0  -0.097378  -0.051009  0  4.079895  0
C  C52  1  0.41722496  0.21125722  0.47833626  1  0  -0.186232  0  3.799885  0  0  -0.207353  0  4.05508  0  0  -0.215368  0  4.080383  0  0  -0.121662  -0.20181  0  4.038241  0
C  C53  1  0.58275612  0.78873853  0.52167599  1  0  -0.186262  0  3.79993  0  0  -0.207422  0  4.055112  0  0  -0.215438  0  4.080418  0  0  -0.121643  -0.201878  0  4.038269  0
C  C54  1  0.55134172  0.31055697  0.45153936  1  0  0.045823  0  3.8235  0  0  0.06439  0  4.04755  0  0  0.063635  0  4.072069  0  0  -0.009169  0.06461  0  4.030897  0
C  C55  1  0.44865113  0.68943986  0.54846295  1  0  0.045725  0  3.823682  0  0  0.064282  0  4.047853  0  0  0.063524  0  4.072373  0  0  -0.009227  0.064502  0  4.031201  0
C  C56  1  0.67968359  0.29952612  0.52501031  1  0  -0.059392  0  3.693267  0  0  -0.08695  0  3.95008  0  0  -0.079145  0  3.958975  0  0  -0.073502  -0.091653  0  3.943613  0
C  C57  1  0.32030830  0.70048080  0.47499837  1  0  -0.059347  0  3.692955  0  0  -0.086877  0  3.949749  0  0  -0.079071  0  3.958644  0  0  -0.07341  -0.091572  0  3.943264  0
C  C58  1  0.81188891  0.39806293  0.48866546  1  0  -0.112296  0  3.77127  0  0  -0.126694  0  4.024993  0  0  -0.132662  0  4.044761  0  0  -0.091797  -0.122994  0  4.012035  0
C  C59  1  0.18809658  0.60193584  0.51133433  1  0  -0.112285  0  3.770838  0  0  -0.126751  0  4.024621  0  0  -0.132717  0  4.044376  0  0  -0.091855  -0.123047  0  4.011661  0
C  C60  1  0.81552628  0.50927304  0.38103651  1  0  0.107453  0  3.733815  0  0  0.072648  0  3.995544  0  0  0.081987  0  4.006985  0  0  0.036919  0.065891  0  3.989552  0
C  C61  1  0.18448319  0.49071588  0.61896528  1  0  0.107468  0  3.733657  0  0  0.072728  0  3.995326  0  0  0.082075  0  4.006791  0  0  0.036927  0.065967  0  3.989335  0
C  C62  1  0.56406339  0.42704617  0.34346925  1  0  0.068715  0  3.71494  0  0  0.069915  0  3.939414  0  0  0.069927  0  3.960916  0  0  0.084929  0.069737  0  3.925442  0
C  C63  1  0.43594162  0.57294472  0.65653029  1  0  0.068997  0  3.7144  0  0  0.070039  0  3.939133  0  0  0.070057  0  3.960629  0  0  0.084934  0.069857  0  3.92516  0
N  N64  1  0.71523859  0.86570174  0.08040653  1  0  -0.319236  0  3.426751  0  0  -0.247862  0  3.729438  0  0  -0.255811  0  3.7351  0  0  -0.369864  -0.243817  0  3.725638  0
N  N65  1  0.28475615  0.13429206  0.91958729  1  0  -0.319157  0  3.426844  0  0  -0.247748  0  3.729524  0  0  -0.255697  0  3.735181  0  0  -0.369757  -0.243703  0  3.725734  0
N  N66  1  0.69506928  0.52480800  0.31039335  1  0  -0.326772  0  3.453679  0  0  -0.257825  0  3.760784  0  0  -0.263038  0  3.762825  0  0  -0.377367  -0.254971  0  3.758932  0
N  N67  1  0.30493814  0.47518895  0.68960670  1  0  -0.326979  0  3.453832  0  0  -0.258056  0  3.761076  0  0  -0.263265  0  3.763088  0  0  -0.377444  -0.255189  0  3.759223  0
O  O68  1  0.89937910  0.66351744  0.97152772  1  0  -0.746919  0  2.145324  0  0  -0.680599  0  2.425379  0  0  -0.703692  0  2.413085  0  0  -0.55931  -0.664645  0  2.433059  0
O  O69  1  0.10059227  0.33649330  0.02847540  1  0  -0.746918  0  2.145406  0  0  -0.680536  0  2.425423  0  0  -0.70366  0  2.413182  0  0  -0.559195  -0.664595  0  2.433129  0
O  O70  1  0.46024941  0.55312724  0.16102584  1  0  -0.714719  0  2.070123  0  0  -0.649582  0  2.330842  0  0  -0.67349  0  2.322163  0  0  -0.492381  -0.632648  0  2.335642  0
O  O71  1  0.53977653  0.44687292  0.83897919  1  0  -0.714726  0  2.070113  0  0  -0.64959  0  2.330794  0  0  -0.673495  0  2.322102  0  0  -0.492362  -0.632656  0  2.335598  0
