# generated using pymatgen
data_CdH14C19N10
_symmetry_space_group_name_H-M   'P 1'
_cell_length_a   7.79434724
_cell_length_b   9.12775474
_cell_length_c   15.23871899
_cell_angle_alpha   77.21524480
_cell_angle_beta   90.10589857
_cell_angle_gamma   66.69870944
_symmetry_Int_Tables_number   1
_chemical_formula_structural   CdH14C19N10
_chemical_formula_sum   'Cd2 H28 C38 N20'
_cell_volume   966.19713064
_cell_formula_units_Z   2
loop_
 _symmetry_equiv_pos_site_id
 _symmetry_equiv_pos_as_xyz
  1  'x, y, z'
loop_
 _atom_site_type_symbol
 _atom_site_label
 _atom_site_symmetry_multiplicity
 _atom_site_fract_x
 _atom_site_fract_y
 _atom_site_fract_z
 _atom_site_occupancy
 _atom_site_hle17_bader_spin_density
 _atom_site_hle17_ddec_charge
 _atom_site_hle17_ddec_spin_density
 _atom_site_hle17_ddec_sum_bond_order
 _atom_site_hle17_magmom
 _atom_site_hse06_10hf_bader_spin_density
 _atom_site_hse06_10hf_ddec_charge
 _atom_site_hse06_10hf_ddec_spin_density
 _atom_site_hse06_10hf_ddec_sum_bond_order
 _atom_site_hse06_10hf_magmom
 _atom_site_hse06_bader_spin_density
 _atom_site_hse06_ddec_charge
 _atom_site_hse06_ddec_spin_density
 _atom_site_hse06_ddec_sum_bond_order
 _atom_site_hse06_magmom
 _atom_site_pbe_bader_spin_density
 _atom_site_pbe_cm5_charge
 _atom_site_pbe_ddec_charge
 _atom_site_pbe_ddec_spin_density
 _atom_site_pbe_ddec_sum_bond_order
 _atom_site_pbe_magmom
Cd  Cd0  1  0.69652485  0.33791498  0.29646306  1  0  1.106697  0  1.857648  0  0  0.909977  0  2.334533  0  0  0.958802  0  2.289419  0  0  0.824124  0.875811  0  2.365206  0
Cd  Cd1  1  0.30347019  0.66208534  0.70353767  1  0  1.106692  0  1.857682  0  0  0.909966  0  2.334572  0  0  0.958783  0  2.289473  0  0  0.824139  0.875801  0  2.365248  0
H  H2  1  0.13839216  0.98772279  0.07762278  1  0  0.321735  0  0.931095  0  0  0.300062  0  0.997913  0  0  0.309036  0  0.990183  0  0  0.302384  0.293751  0  1.003358  0
H  H3  1  0.86161129  0.01227878  0.92237712  1  0  0.321737  0  0.93108  0  0  0.300077  0  0.997877  0  0  0.309052  0  0.990144  0  0  0.302415  0.293768  0  1.003323  0
H  H4  1  0.07943269  0.38392572  0.16639029  1  0  0.07439  0  0.919825  0  0  0.09471  0  0.978123  0  0  0.093784  0  0.979627  0  0  0.11051  0.095272  0  0.977184  0
H  H5  1  0.92056761  0.61607708  0.83360879  1  0  0.074406  0  0.919787  0  0  0.09472  0  0.978097  0  0  0.093795  0  0.979599  0  0  0.110508  0.095279  0  0.977154  0
H  H6  1  0.94738749  0.53896632  0.06961583  1  0  0.053521  0  0.946251  0  0  0.068708  0  1.015282  0  0  0.069281  0  1.014952  0  0  0.100933  0.068207  0  1.01561  0
H  H7  1  0.05260769  0.46103647  0.93038392  1  0  0.053493  0  0.946214  0  0  0.068709  0  1.015216  0  0  0.069279  0  1.014887  0  0  0.100948  0.068204  0  1.015543  0
H  H8  1  0.01805627  0.28071095  0.03305545  1  0  0.103636  0  0.930993  0  0  0.1202  0  0.990567  0  0  0.122213  0  0.989145  0  0  0.107471  0.118731  0  0.991665  0
H  H9  1  0.98194276  0.71929185  0.96694494  1  0  0.103577  0  0.931063  0  0  0.120169  0  0.990593  0  0  0.12217  0  0.989187  0  0  0.107456  0.118701  0  0.991696  0
H  H10  1  0.77593808  0.36374043  0.04697234  1  0  0.108589  0  0.921803  0  0  0.123725  0  0.980323  0  0  0.125376  0  0.980112  0  0  0.105605  0.122571  0  0.980483  0
H  H11  1  0.22406265  0.63625868  0.95302789  1  0  0.108527  0  0.921823  0  0  0.12371  0  0.980283  0  0  0.125362  0  0.980069  0  0  0.105608  0.122558  0  0.980447  0
H  H12  1  0.80217133  0.93370324  0.38638188  1  0  0.104758  0  0.974513  0  0  0.111597  0  1.041977  0  0  0.114484  0  1.040913  0  0  0.099564  0.109545  0  1.042781  0
H  H13  1  0.19783054  0.06629341  0.61361801  1  0  0.104729  0  0.97451  0  0  0.111563  0  1.041984  0  0  0.114449  0  1.040924  0  0  0.099543  0.109507  0  1.04279  0
H  H14  1  0.94347017  0.62793065  0.41399333  1  0  0.087019  0  0.956772  0  0  0.098679  0  1.016367  0  0  0.101081  0  1.016066  0  0  0.094902  0.096984  0  1.016617  0
H  H15  1  0.05653238  0.37206725  0.58600377  1  0  0.086963  0  0.956772  0  0  0.098649  0  1.016345  0  0  0.101053  0  1.016039  0  0  0.094889  0.096954  0  1.0166  0
H  H16  1  0.14605373  0.48960634  0.30588278  1  0  0.079247  0  0.977184  0  0  0.090089  0  1.041793  0  0  0.091653  0  1.042076  0  0  0.092149  0.088949  0  1.041647  0
H  H17  1  0.85394696  0.51039279  0.69411351  1  0  0.079256  0  0.977197  0  0  0.090022  0  1.04189  0  0  0.091585  0  1.042171  0  0  0.092126  0.088885  0  1.041742  0
H  H18  1  0.21577386  0.64826424  0.16779637  1  0  0.114091  0  0.964373  0  0  0.123447  0  1.025187  0  0  0.126463  0  1.023872  0  0  0.099777  0.121271  0  1.026196  0
H  H19  1  0.78422642  0.35173857  0.83220074  1  0  0.1141  0  0.964373  0  0  0.123448  0  1.025184  0  0  0.126471  0  1.023868  0  0  0.099772  0.121269  0  1.026193  0
H  H20  1  0.75002480  0.74747109  0.12323634  1  0  0.082281  0  0.923787  0  0  0.089551  0  0.994399  0  0  0.092131  0  0.991307  0  0  0.117881  0.08757  0  0.996806  0
H  H21  1  0.24997724  0.25252801  0.87676585  1  0  0.082256  0  0.923794  0  0  0.089528  0  0.994423  0  0  0.092107  0  0.99133  0  0  0.117872  0.087543  0  0.996828  0
H  H22  1  0.53381900  0.97658962  0.17531703  1  0  0.107727  0  0.961813  0  0  0.116221  0  1.025238  0  0  0.118342  0  1.025618  0  0  0.108436  0.114663  0  1.025133  0
H  H23  1  0.46617675  0.02341194  0.82468353  1  0  0.107701  0  0.961859  0  0  0.116223  0  1.025256  0  0  0.118352  0  1.025613  0  0  0.10844  0.114664  0  1.025142  0
H  H24  1  0.32371859  0.08672234  0.29130589  1  0  0.091463  0  0.944835  0  0  0.103113  0  1.004451  0  0  0.104795  0  1.00395  0  0  0.10734  0.10183  0  1.004916  0
H  H25  1  0.67627645  0.91327799  0.70869419  1  0  0.091435  0  0.944775  0  0  0.10308  0  1.00439  0  0  0.10476  0  1.003889  0  0  0.107309  0.1018  0  1.004849  0
H  H26  1  0.26926968  0.88417298  0.41858887  1  0  0.113297  0  0.942311  0  0  0.123906  0  0.999408  0  0  0.126461  0  0.999379  0  0  0.11275  0.122094  0  0.999529  0
H  H27  1  0.73072535  0.11582735  0.58141120  1  0  0.113286  0  0.942344  0  0  0.123913  0  0.999405  0  0  0.126469  0  0.999377  0  0  0.112755  0.1221  0  0.99954  0
H  H28  1  0.42048561  0.58548733  0.42101071  1  0  0.078498  0  0.932345  0  0  0.08763  0  0.995054  0  0  0.089596  0  0.993762  0  0  0.117882  0.086179  0  0.996034  0
H  H29  1  0.57951072  0.41451299  0.57899067  1  0  0.078493  0  0.932339  0  0  0.087643  0  0.995033  0  0  0.089611  0  0.993741  0  0  0.117903  0.086191  0  0.996013  0
C  C30  1  0.94342668  0.43936381  0.12454703  1  0  0.04872  0  3.686349  0  0  -0.009271  0  3.952587  0  0  -0.004326  0  3.965496  0  0  -0.05713  -0.012395  0  3.943626  0
C  C31  1  0.05657050  0.56064021  0.87545321  1  0  0.048784  0  3.686299  0  0  -0.009242  0  3.952543  0  0  -0.004294  0  3.96545  0  0  -0.05713  -0.012359  0  3.943573  0
C  C32  1  0.91733867  0.30986498  0.08354919  1  0  -0.228232  0  3.687538  0  0  -0.270193  0  3.941347  0  0  -0.2737  0  3.949927  0  0  -0.145767  -0.267721  0  3.935251  0
C  C33  1  0.08266091  0.69013659  0.91644940  1  0  -0.228184  0  3.687653  0  0  -0.270154  0  3.941396  0  0  -0.273656  0  3.949981  0  0  -0.145765  -0.267695  0  3.935322  0
C  C34  1  0.94620618  0.15182938  0.14858001  1  0  0.412528  0  3.693715  0  0  0.380756  0  3.970264  0  0  0.399216  0  3.983362  0  0  0.22839  0.368699  0  3.960739  0
C  C35  1  0.05379399  0.84817095  0.85142072  1  0  0.412507  0  3.693645  0  0  0.380708  0  3.970208  0  0  0.399167  0  3.983307  0  0  0.228355  0.36865  0  3.960691  0
C  C36  1  0.04328162  0.88192840  0.19869253  1  0  0.149207  0  3.825844  0  0  0.142477  0  4.069525  0  0  0.146437  0  4.092431  0  0  0.087675  0.139778  0  4.054046  0
C  C37  1  0.95671724  0.11807194  0.80130557  1  0  0.149087  0  3.825707  0  0  0.142341  0  4.069397  0  0  0.1463  0  4.092307  0  0  0.087631  0.139652  0  4.053905  0
C  C38  1  0.92836770  0.96311375  0.26012191  1  0  0.142542  0  3.845559  0  0  0.140572  0  4.089241  0  0  0.143677  0  4.113598  0  0  0.079386  0.13846  0  4.072754  0
C  C39  1  0.07163045  0.03688537  0.73987635  1  0  0.142505  0  3.845556  0  0  0.14056  0  4.089212  0  0  0.143665  0  4.113571  0  0  0.079388  0.138447  0  4.072716  0
C  C40  1  0.89161224  0.87289182  0.33906234  1  0  -0.148517  0  3.754569  0  0  -0.164219  0  4.002998  0  0  -0.166964  0  4.023875  0  0  -0.098702  -0.162247  0  3.988827  0
C  C41  1  0.10838790  0.12710853  0.66093509  1  0  -0.14847  0  3.75446  0  0  -0.164201  0  4.002934  0  0  -0.166944  0  4.023808  0  0  -0.098667  -0.162221  0  3.988754  0
C  C42  1  0.97133415  0.70218434  0.35389195  1  0  -0.086727  0  3.792584  0  0  -0.104156  0  4.048843  0  0  -0.107179  0  4.072626  0  0  -0.105519  -0.102076  0  4.032634  0
C  C43  1  0.02866527  0.29781478  0.64610500  1  0  -0.086649  0  3.792555  0  0  -0.104098  0  4.048783  0  0  -0.107121  0  4.072567  0  0  -0.105545  -0.102021  0  4.03258  0
C  C44  1  0.08526027  0.62322730  0.29226643  1  0  -0.073895  0  3.797931  0  0  -0.090799  0  4.056055  0  0  -0.09318  0  4.08052  0  0  -0.10274  -0.089009  0  4.039323  0
C  C45  1  0.91474171  0.37677182  0.70773051  1  0  -0.073974  0  3.798  0  0  -0.090816  0  4.056123  0  0  -0.093195  0  4.08059  0  0  -0.102739  -0.089038  0  4.039397  0
C  C46  1  0.12379050  0.71133359  0.21354038  1  0  -0.161459  0  3.762232  0  0  -0.179782  0  4.014622  0  0  -0.183213  0  4.034986  0  0  -0.103844  -0.177321  0  4.000766  0
C  C47  1  0.87620920  0.28867045  0.78645591  1  0  -0.161326  0  3.762143  0  0  -0.179629  0  4.014482  0  0  -0.183069  0  4.034852  0  0  -0.103751  -0.177167  0  4.000623  0
C  C48  1  0.71919667  0.65851722  0.17507394  1  0  0.119027  0  3.669012  0  0  0.076282  0  3.922884  0  0  0.08721  0  3.936123  0  0  0.092774  0.068951  0  3.913922  0
C  C49  1  0.28080351  0.34148311  0.82492743  1  0  0.119059  0  3.668921  0  0  0.076284  0  3.922831  0  0  0.087215  0  3.936068  0  0  0.092775  0.068956  0  3.913861  0
C  C50  1  0.58628740  0.72593598  0.23875890  1  0  0.186698  0  3.797561  0  0  0.18918  0  4.036319  0  0  0.192742  0  4.058332  0  0  0.115086  0.186797  0  4.021436  0
C  C51  1  0.41371163  0.27406682  0.76124150  1  0  0.186695  0  3.797479  0  0  0.189161  0  4.036257  0  0  0.192721  0  4.058275  0  0  0.115094  0.186778  0  4.021368  0
C  C52  1  0.50441411  0.89517718  0.23110611  1  0  -0.118704  0  3.680111  0  0  -0.140678  0  3.929684  0  0  -0.146342  0  3.951739  0  0  -0.070019  -0.137035  0  3.914982  0
C  C53  1  0.49558478  0.10482315  0.76889461  1  0  -0.118606  0  3.680019  0  0  -0.140604  0  3.929577  0  0  -0.146266  0  3.951638  0  0  -0.069963  -0.136954  0  3.91486  0
C  C54  1  0.38824349  0.95507890  0.29584095  1  0  0.004639  0  3.69648  0  0  -0.016763  0  3.953167  0  0  -0.014413  0  3.972425  0  0  -0.062239  -0.018101  0  3.940111  0
C  C55  1  0.61175355  0.04492266  0.70415961  1  0  0.004588  0  3.696416  0  0  -0.016791  0  3.9531  0  0  -0.014443  0  3.972363  0  0  -0.062264  -0.018138  0  3.940047  0
C  C56  1  0.35737303  0.84417901  0.36591713  1  0  -0.090981  0  3.68675  0  0  -0.10737  0  3.939974  0  0  -0.113005  0  3.961968  0  0  -0.069355  -0.103813  0  3.925284  0
C  C57  1  0.64262272  0.15582255  0.63408278  1  0  -0.090936  0  3.686741  0  0  -0.107337  0  3.939959  0  0  -0.112973  0  3.961958  0  0  -0.069333  -0.103789  0  3.925284  0
C  C58  1  0.44305296  0.67646257  0.36812098  1  0  0.147845  0  3.698397  0  0  0.11831  0  3.948803  0  0  0.12434  0  3.967774  0  0  0.061307  0.114425  0  3.935852  0
C  C59  1  0.55694593  0.32353776  0.63188040  1  0  0.147896  0  3.698324  0  0  0.118331  0  3.948736  0  0  0.124359  0  3.967707  0  0  0.061313  0.114446  0  3.935789  0
C  C60  1  0.44187795  0.32229110  0.12329260  1  0  0.48365  0  4.011324  0  0  0.446503  0  4.298891  0  0  0.472155  0  4.309884  0  0  0.28972  0.428988  0  4.29115  0
C  C61  1  0.55813504  0.67769818  0.87670825  1  0  0.483584  0  4.011478  0  0  0.446463  0  4.299028  0  0  0.472116  0  4.310025  0  0  0.289686  0.42895  0  4.291276  0
C  C62  1  0.56813660  0.16373881  0.02348445  1  0  0.474462  0  4.010752  0  0  0.442265  0  4.305528  0  0  0.46547  0  4.317113  0  0  0.285724  0.426422  0  4.297433  0
C  C63  1  0.43187781  0.83625294  0.97651542  1  0  0.474483  0  4.010546  0  0  0.442303  0  4.305327  0  0  0.465508  0  4.316913  0  0  0.285673  0.42646  0  4.297242  0
C  C64  1  0.11026399  0.23135088  0.42646391  1  0  0.503211  0  3.99495  0  0  0.465121  0  4.27895  0  0  0.490992  0  4.289774  0  0  0.307463  0.447457  0  4.271331  0
C  C65  1  0.88972989  0.76865191  0.57353452  1  0  0.503238  0  3.994849  0  0  0.465189  0  4.278853  0  0  0.491056  0  4.289679  0  0  0.307464  0.447534  0  4.271228  0
C  C66  1  0.40977927  0.22437820  0.42963826  1  0  0.5151  0  4.00297  0  0  0.469421  0  4.295286  0  0  0.497056  0  4.305593  0  0  0.313422  0.450576  0  4.287954  0
C  C67  1  0.59021195  0.77563317  0.57036495  1  0  0.515102  0  4.003233  0  0  0.469483  0  4.295501  0  0  0.497116  0  4.305804  0  0  0.31354  0.45064  0  4.288172  0
N  N68  1  0.79874534  0.50356166  0.18212194  1  0  -0.318387  0  3.197203  0  0  -0.242293  0  3.470136  0  0  -0.262774  0  3.489343  0  0  -0.330204  -0.228488  0  3.456874  0
N  N69  1  0.20125241  0.49644113  0.81787846  1  0  -0.318403  0  3.197097  0  0  -0.24231  0  3.470099  0  0  -0.262792  0  3.489307  0  0  -0.330224  -0.228507  0  3.456831  0
N  N70  1  0.86968956  0.13187207  0.22657226  1  0  -0.506665  0  3.140826  0  0  -0.437635  0  3.412915  0  0  -0.46136  0  3.428775  0  0  -0.358174  -0.421359  0  3.401549  0
N  N71  1  0.13030989  0.86812704  0.77342731  1  0  -0.506616  0  3.14081  0  0  -0.437596  0  3.412911  0  0  -0.461319  0  3.428768  0  0  -0.358159  -0.421316  0  3.40154  0
N  N72  1  0.05197879  0.00501256  0.13006249  1  0  -0.391139  0  3.37316  0  0  -0.331761  0  3.602119  0  0  -0.350804  0  3.614779  0  0  -0.377497  -0.318879  0  3.593273  0
N  N73  1  0.94802394  0.99498778  0.86993757  1  0  -0.391104  0  3.373125  0  0  -0.331726  0  3.602089  0  0  -0.350767  0  3.614747  0  0  -0.377534  -0.31885  0  3.593244  0
N  N74  1  0.55451437  0.61872685  0.30622355  1  0  -0.353345  0  3.229355  0  0  -0.282014  0  3.481825  0  0  -0.30005  0  3.501281  0  0  -0.314158  -0.269621  0  3.46835  0
N  N75  1  0.44548396  0.38127471  0.69377767  1  0  -0.353399  0  3.229303  0  0  -0.282041  0  3.481792  0  0  -0.300075  0  3.501244  0  0  -0.314212  -0.269652  0  3.468324  0
N  N76  1  0.43648206  0.37011198  0.18979210  1  0  -0.61629  0  2.749916  0  0  -0.572182  0  3.021964  0  0  -0.592874  0  3.026621  0  0  -0.387323  -0.557962  0  3.018752  0
N  N77  1  0.56352711  0.62987730  0.81021007  1  0  -0.616207  0  2.750179  0  0  -0.5721  0  3.022207  0  0  -0.592794  0  3.026869  0  0  -0.387215  -0.557879  0  3.018984  0
N  N78  1  0.43050181  0.27930238  0.04861049  1  0  -0.473562  0  3.262443  0  0  -0.420918  0  3.52564  0  0  -0.444854  0  3.531098  0  0  -0.320902  -0.404218  0  3.521241  0
N  N79  1  0.56951203  0.72069059  0.95138987  1  0  -0.473635  0  3.262301  0  0  -0.421045  0  3.52556  0  0  -0.444977  0  3.531008  0  0  -0.321001  -0.404343  0  3.521161  0
N  N80  1  0.68457871  0.06030472  0.99575201  1  0  -0.583812  0  2.66525  0  0  -0.55939  0  2.906904  0  0  -0.575596  0  2.914139  0  0  -0.374555  -0.548264  0  2.902041  0
N  N81  1  0.31543501  0.93968579  0.00424934  1  0  -0.583787  0  2.665073  0  0  -0.559344  0  2.906696  0  0  -0.575552  0  2.913931  0  0  -0.37448  -0.548219  0  2.90184  0
N  N82  1  0.95193458  0.26885504  0.40163642  1  0  -0.595579  0  2.762144  0  0  -0.54832  0  3.036526  0  0  -0.569344  0  3.03922  0  0  -0.387964  -0.533927  0  3.034641  0
N  N83  1  0.04806498  0.73113547  0.59836101  1  0  -0.595586  0  2.762015  0  0  -0.548326  0  3.036371  0  0  -0.569342  0  3.03906  0  0  -0.387916  -0.533939  0  3.034484  0
N  N84  1  0.28113442  0.17906151  0.46184589  1  0  -0.454445  0  3.30864  0  0  -0.395505  0  3.568181  0  0  -0.420441  0  3.573857  0  0  -0.301314  -0.378124  0  3.563571  0
N  N85  1  0.71885494  0.82095110  0.53815585  1  0  -0.454571  0  3.308681  0  0  -0.395708  0  3.568267  0  0  -0.420649  0  3.573959  0  0  -0.301504  -0.378326  0  3.563641  0
N  N86  1  0.53870847  0.25616434  0.40791618  1  0  -0.612839  0  2.825586  0  0  -0.559267  0  3.11728  0  0  -0.582388  0  3.118508  0  0  -0.395238  -0.543422  0  3.116324  0
N  N87  1  0.46128051  0.74385193  0.59209032  1  0  -0.612727  0  2.825868  0  0  -0.559161  0  3.117537  0  0  -0.582281  0  3.118764  0  0  -0.395213  -0.543326  0  3.116598  0
