# generated using pymatgen
data_CdH8C8S2(BrN)2
_symmetry_space_group_name_H-M   'P 1'
_cell_length_a   7.14085238
_cell_length_b   9.64108446
_cell_length_c   10.31298685
_cell_angle_alpha   112.48756363
_cell_angle_beta   105.59283194
_cell_angle_gamma   94.30709926
_symmetry_Int_Tables_number   1
_chemical_formula_structural   CdH8C8S2(BrN)2
_chemical_formula_sum   'Cd2 H16 C16 S4 Br4 N4'
_cell_volume   619.11752238
_cell_formula_units_Z   2
loop_
 _symmetry_equiv_pos_site_id
 _symmetry_equiv_pos_as_xyz
  1  'x, y, z'
loop_
 _atom_site_type_symbol
 _atom_site_label
 _atom_site_symmetry_multiplicity
 _atom_site_fract_x
 _atom_site_fract_y
 _atom_site_fract_z
 _atom_site_occupancy
 _atom_site_hle17_bader_spin_density
 _atom_site_hle17_ddec_charge
 _atom_site_hle17_ddec_spin_density
 _atom_site_hle17_ddec_sum_bond_order
 _atom_site_hle17_magmom
 _atom_site_hse06_10hf_bader_spin_density
 _atom_site_hse06_10hf_ddec_charge
 _atom_site_hse06_10hf_ddec_spin_density
 _atom_site_hse06_10hf_ddec_sum_bond_order
 _atom_site_hse06_10hf_magmom
 _atom_site_hse06_bader_spin_density
 _atom_site_hse06_ddec_charge
 _atom_site_hse06_ddec_spin_density
 _atom_site_hse06_ddec_sum_bond_order
 _atom_site_hse06_magmom
 _atom_site_pbe_bader_spin_density
 _atom_site_pbe_cm5_charge
 _atom_site_pbe_ddec_charge
 _atom_site_pbe_ddec_spin_density
 _atom_site_pbe_ddec_sum_bond_order
 _atom_site_pbe_magmom
Cd  Cd0  1  0.25278296  0.58858124  0.47776071  1  0  0.901367  0  1.926996  0  0  0.739087  0  2.375479  0  0  0.789318  0  2.335919  0  0  0.543295  0.704302  0  2.402131  0
Cd  Cd1  1  0.74720980  0.41141819  0.52224135  1  0  0.90131  0  1.927076  0  0  0.739016  0  2.375587  0  0  0.789255  0  2.336012  0  0  0.543267  0.704232  0  2.402237  0
H  H2  1  0.17574463  0.37983887  0.07468736  1  0  0.124764  0  0.964098  0  0  0.139076  0  1.034252  0  0  0.141159  0  1.03387  0  0  0.084022  0.137531  0  1.034531  0
H  H3  1  0.82425056  0.62015833  0.92531628  1  0  0.124795  0  0.964114  0  0  0.139109  0  1.034266  0  0  0.141192  0  1.033885  0  0  0.084031  0.137566  0  1.034541  0
H  H4  1  0.43609601  0.44043662  0.13169234  1  0  0.136276  0  0.957869  0  0  0.152009  0  1.025846  0  0  0.154507  0  1.02469  0  0  0.083006  0.150092  0  1.026718  0
H  H5  1  0.56390114  0.55956290  0.86831150  1  0  0.136294  0  0.957901  0  0  0.152021  0  1.025873  0  0  0.15452  0  1.024717  0  0  0.083022  0.150104  0  1.026745  0
H  H6  1  0.28320864  0.43771874  0.96096786  1  0  0.11931  0  0.975082  0  0  0.134447  0  1.045463  0  0  0.13665  0  1.044754  0  0  0.080146  0.132494  0  1.046635  0
H  H7  1  0.71678765  0.56227050  0.03903411  1  0  0.119234  0  0.975138  0  0  0.134377  0  1.045501  0  0  0.13658  0  1.044795  0  0  0.080124  0.132425  0  1.046671  0
H  H8  1  0.24408406  0.00571015  0.23729301  1  0  0.145276  0  0.981067  0  0  0.153558  0  1.044573  0  0  0.157338  0  1.04236  0  0  0.097726  0.150625  0  1.046585  0
H  H9  1  0.75592494  0.99429071  0.76270856  1  0  0.145247  0  0.981039  0  0  0.153523  0  1.044556  0  0  0.157304  0  1.042341  0  0  0.097715  0.150592  0  1.046565  0
H  H10  1  0.26026824  0.16435484  0.49747452  1  0  0.149384  0  0.976277  0  0  0.152768  0  1.047403  0  0  0.156769  0  1.044736  0  0  0.096893  0.149761  0  1.049592  0
H  H11  1  0.73973870  0.83564367  0.50252197  1  0  0.149449  0  0.976278  0  0  0.152808  0  1.047424  0  0  0.15681  0  1.04476  0  0  0.096882  0.149801  0  1.049618  0
H  H12  1  0.22291022  0.79200829  0.79894004  1  0  0.125831  0  1.001973  0  0  0.139363  0  1.075249  0  0  0.14189  0  1.07414  0  0  0.078744  0.137424  0  1.075895  0
H  H13  1  0.77708725  0.20799920  0.20106379  1  0  0.125846  0  1.001963  0  0  0.139397  0  1.075224  0  0  0.141927  0  1.074112  0  0  0.078756  0.137458  0  1.075871  0
H  H14  1  0.07619458  0.93115224  0.85087807  1  0  0.124331  0  0.942427  0  0  0.143669  0  1.005628  0  0  0.145956  0  1.004325  0  0  0.089392  0.141794  0  1.006697  0
H  H15  1  0.92380510  0.06885871  0.14912544  1  0  0.124293  0  0.942408  0  0  0.143618  0  1.005638  0  0  0.145906  0  1.004337  0  0  0.089398  0.141754  0  1.006696  0
H  H16  1  0.33828430  0.98403615  0.93237633  1  0  0.118951  0  0.944157  0  0  0.13894  0  1.00558  0  0  0.141031  0  1.004342  0  0  0.089957  0.137433  0  1.006135  0
H  H17  1  0.66171704  0.01597595  0.06762498  1  0  0.118888  0  0.944228  0  0  0.13891  0  1.005608  0  0  0.141005  0  1.004368  0  0  0.089931  0.137402  0  1.006166  0
C  C18  1  0.29341997  0.46067659  0.07555509  1  0  -0.381644  0  3.726869  0  0  -0.45853  0  3.965225  0  0  -0.463485  0  3.971605  0  0  -0.252258  -0.454769  0  3.961447  0
C  C19  1  0.70657319  0.53931829  0.92444542  1  0  -0.381592  0  3.72695  0  0  -0.458488  0  3.965352  0  0  -0.463439  0  3.971735  0  0  -0.25225  -0.454731  0  3.961574  0
C  C20  1  0.27549429  0.62119666  0.15628132  1  0  0.269733  0  3.672148  0  0  0.266822  0  3.953142  0  0  0.280514  0  3.96849  0  0  0.130398  0.25725  0  3.943591  0
C  C21  1  0.72449854  0.37879705  0.84371484  1  0  0.269696  0  3.672143  0  0  0.266786  0  3.953127  0  0  0.280465  0  3.968494  0  0  0.130379  0.257215  0  3.943574  0
C  C22  1  0.25056624  0.89037873  0.22900000  1  0  -0.260794  0  3.673807  0  0  -0.287276  0  3.955531  0  0  -0.292042  0  3.973464  0  0  -0.110031  -0.283307  0  3.943052  0
C  C23  1  0.74943662  0.10962086  0.77099810  1  0  -0.260798  0  3.673795  0  0  -0.287273  0  3.955529  0  0  -0.292037  0  3.973461  0  0  -0.110015  -0.283305  0  3.943049  0
C  C24  1  0.26097632  0.83863400  0.33767329  1  0  0.164234  0  3.857684  0  0  0.159137  0  4.113037  0  0  0.164601  0  4.135274  0  0  0.081838  0.155738  0  4.097476  0
C  C25  1  0.73901989  0.16136204  0.66232138  1  0  0.164109  0  3.857678  0  0  0.15904  0  4.113051  0  0  0.164497  0  4.135307  0  0  0.081778  0.155641  0  4.09749  0
C  C26  1  0.25283254  0.92818121  0.48546528  1  0  0.152837  0  3.84154  0  0  0.147141  0  4.095305  0  0  0.150913  0  4.118021  0  0  0.077753  0.144431  0  4.07994  0
C  C27  1  0.74717788  0.07181966  0.51453461  1  0  0.152997  0  3.841547  0  0  0.147197  0  4.095445  0  0  0.150969  0  4.118164  0  0  0.077795  0.144487  0  4.080079  0
C  C28  1  0.25121835  0.08244308  0.54563527  1  0  -0.218332  0  3.623233  0  0  -0.24281  0  3.902766  0  0  -0.245361  0  3.919376  0  0  -0.097901  -0.241382  0  3.89231  0
C  C29  1  0.74879179  0.91755664  0.45436319  1  0  -0.21849  0  3.623398  0  0  -0.242896  0  3.902935  0  0  -0.245449  0  3.919545  0  0  -0.097868  -0.241471  0  3.892483  0
C  C30  1  0.23122101  0.95388729  0.70630171  1  0  0.248661  0  3.685743  0  0  0.246212  0  3.96842  0  0  0.258543  0  3.985256  0  0  0.1233  0.238272  0  3.956393  0
C  C31  1  0.76877824  0.04611565  0.29369596  1  0  0.248782  0  3.685791  0  0  0.246338  0  3.968451  0  0  0.258671  0  3.985289  0  0  0.123323  0.238399  0  3.956425  0
C  C32  1  0.21703108  0.91329636  0.82909385  1  0  -0.370784  0  3.740408  0  0  -0.450362  0  3.981321  0  0  -0.454366  0  3.987079  0  0  -0.247222  -0.446934  0  3.976562  0
C  C33  1  0.78297008  0.08671462  0.17091091  1  0  -0.370766  0  3.74051  0  0  -0.450373  0  3.981401  0  0  -0.454379  0  3.987145  0  0  -0.247227  -0.446957  0  3.976637  0
S  S34  1  0.25650622  0.74560900  0.07135446  1  0  0.136061  0  2.652556  0  0  0.150067  0  2.985808  0  0  0.146727  0  2.991929  0  0  0.114308  0.152537  0  2.981236  0
S  S35  1  0.74349102  0.25438480  0.92864445  1  0  0.136085  0  2.652555  0  0  0.150093  0  2.985801  0  0  0.146759  0  2.991923  0  0  0.114314  0.152562  0  2.981228  0
S  S36  1  0.23405569  0.13785366  0.71890779  1  0  0.15287  0  2.671186  0  0  0.163349  0  3.008772  0  0  0.160209  0  3.017311  0  0  0.118607  0.164433  0  3.0032  0
S  S37  1  0.76594813  0.86215049  0.28108822  1  0  0.15286  0  2.671345  0  0  0.163349  0  3.008886  0  0  0.160204  0  3.017431  0  0  0.118601  0.164432  0  3.003315  0
Br  Br38  1  0.34600549  0.30852181  0.33857692  1  0  -0.521506  0  1.052125  0  0  -0.453372  0  1.347853  0  0  -0.475244  0  1.327007  0  0  -0.253307  -0.437542  0  1.362019  0
Br  Br39  1  0.65399310  0.69147773  0.66142621  1  0  -0.521523  0  1.052073  0  0  -0.453388  0  1.347804  0  0  -0.47526  0  1.32696  0  0  -0.253325  -0.437557  0  1.361962  0
Br  Br40  1  0.15510961  0.48705706  0.67700317  1  0  -0.537556  0  1.079011  0  0  -0.475059  0  1.390194  0  0  -0.497007  0  1.370094  0  0  -0.261953  -0.458987  0  1.40387  0
Br  Br41  1  0.84488840  0.51294018  0.32299613  1  0  -0.537541  0  1.078987  0  0  -0.475064  0  1.3902  0  0  -0.49701  0  1.370094  0  0  -0.261949  -0.458988  0  1.403869  0
N  N42  1  0.27535828  0.68628034  0.29463187  1  0  -0.390661  0  3.154737  0  0  -0.331726  0  3.418687  0  0  -0.351902  0  3.435494  0  0  -0.332792  -0.318556  0  3.407472  0
N  N43  1  0.72464404  0.31371695  0.70536434  1  0  -0.390548  0  3.15473  0  0  -0.331593  0  3.418662  0  0  -0.351769  0  3.435483  0  0  -0.33272  -0.318422  0  3.407441  0
N  N44  1  0.24125009  0.85729541  0.57777685  1  0  -0.388585  0  3.18941  0  0  -0.326479  0  3.45062  0  0  -0.346692  0  3.469282  0  0  -0.333922  -0.312611  0  3.437526  0
N  N45  1  0.75875159  0.14270530  0.42222240  1  0  -0.388652  0  3.189386  0  0  -0.326533  0  3.450645  0  0  -0.346746  0  3.469305  0  0  -0.33396  -0.312665  0  3.43755  0
