# generated using pymatgen
data_MnH12C24(N4O)2
_symmetry_space_group_name_H-M   'P 1'
_cell_length_a   11.04959879
_cell_length_b   11.05149849
_cell_length_c   11.39334987
_cell_angle_alpha   108.19684541
_cell_angle_beta   110.73902199
_cell_angle_gamma   108.25227447
_symmetry_Int_Tables_number   1
_chemical_formula_structural   MnH12C24(N4O)2
_chemical_formula_sum   'Mn2 H24 C48 N16 O4'
_cell_volume   1086.38613436
_cell_formula_units_Z   2
loop_
 _symmetry_equiv_pos_site_id
 _symmetry_equiv_pos_as_xyz
  1  'x, y, z'
loop_
 _atom_site_type_symbol
 _atom_site_label
 _atom_site_symmetry_multiplicity
 _atom_site_fract_x
 _atom_site_fract_y
 _atom_site_fract_z
 _atom_site_occupancy
 _atom_site_pbe_cm5_charge
 _atom_site_pbe_ddec_charge
 _atom_site_pbe_ddec_spin_density
 _atom_site_pbe_ddec_sum_bond_order
 _atom_site_pbe_magmom
Mn  Mn0  1  0.50000106  0.50000314  0.00000174  1  0.898017  0.982347  1.393755  3.621158  1.346
Mn  Mn1  1  0.99999898  0.49999631  0.49999490  1  0.897963  0.983478  1.393485  3.622234  1.346
H  H2  1  0.51041498  0.15173586  0.36772701  1  0.105428  0.111636  0.000277  0.989397  0.0
H  H3  1  0.28411365  0.14282847  0.13231313  1  0.105266  0.111081  0.000278  0.989662  0.0
H  H4  1  0.48958743  0.84826778  0.63227818  1  0.105444  0.111657  0.000277  0.989347  0.0
H  H5  1  0.71589028  0.85716992  0.86768574  1  0.105269  0.111108  0.000277  0.989688  0.0
H  H6  1  0.37479079  0.14987285  0.49805832  1  0.103973  0.108815  0.000287  1.000244  0.0
H  H7  1  0.15190909  0.87685150  0.00196413  1  0.103676  0.108749  0.000287  0.998395  0.0
H  H8  1  0.62520771  0.85012860  0.50194389  1  0.103965  0.108822  0.000287  1.00018  0.0
H  H9  1  0.84809290  0.12314686  0.99803402  1  0.103688  0.108759  0.000287  0.998399  0.0
H  H10  1  0.18229237  0.68289508  0.30793770  1  0.101427  0.107139  0.000185  1.032754  0.0
H  H11  1  0.87502292  0.87443330  0.19206032  1  0.101186  0.106699  0.000186  1.033032  0.0
H  H12  1  0.81770812  0.31710855  0.69206591  1  0.101444  0.107172  0.000185  1.032762  0.0
H  H13  1  0.12497574  0.12556612  0.80793519  1  0.101189  0.106742  0.000186  1.032934  0.0
H  H14  1  0.31722787  0.68489166  0.17727655  1  0.101941  0.105604  0.000217  1.020791  0.0
H  H15  1  0.00768161  0.14003905  0.32273891  1  0.101692  0.104417  0.000216  1.022774  0.0
H  H16  1  0.68277306  0.31511088  0.82272776  1  0.101961  0.105655  0.000217  1.020774  0.0
H  H17  1  0.99231994  0.85996040  0.67725854  1  0.101696  0.104429  0.000216  1.022726  0.0
H  H18  1  0.57750600  0.52669460  0.25810064  1  0.299148  0.379884  -4.4e-05  0.960502  0.001
H  H19  1  0.76851782  0.31933987  0.24188732  1  0.299147  0.380416  -4.5e-05  0.959861  0.001
H  H20  1  0.42249552  0.47330483  0.74189766  1  0.299117  0.379825  -4.4e-05  0.960575  0.001
H  H21  1  0.23148020  0.68065415  0.75810718  1  0.299177  0.380459  -4.5e-05  0.959805  0.001
H  H22  1  0.70406040  0.66249847  0.27123431  1  0.301247  0.379597  7.9e-05  0.956535  0.001
H  H23  1  0.89119604  0.43275686  0.22876143  1  0.301089  0.379587  7.7e-05  0.956538  0.001
H  H24  1  0.29593874  0.33750201  0.72876258  1  0.301227  0.379548  7.9e-05  0.956607  0.001
H  H25  1  0.10880401  0.56723935  0.77123360  1  0.301095  0.379629  7.7e-05  0.956486  0.001
C  C26  1  0.42477299  0.91867498  0.26293326  1  0.001094  0.097637  -0.027949  4.043772  -0.017
C  C27  1  0.15584702  0.16198624  0.23715219  1  0.000138  0.094385  -0.028004  4.045293  -0.017
C  C28  1  0.57522735  0.08132856  0.73707465  1  0.001078  0.097605  -0.027951  4.043835  -0.017
C  C29  1  0.84415879  0.83801427  0.76285152  1  0.000128  0.094321  -0.028001  4.045443  -0.017
C  C30  1  0.43864624  0.04898428  0.35481245  1  -0.087069  -0.124759  -0.00773  3.984454  -0.004
C  C31  1  0.19426227  0.08398083  0.14523530  1  -0.086689  -0.122586  -0.007747  3.982687  -0.004
C  C32  1  0.56135134  0.95102143  0.64519162  1  -0.087066  -0.124687  -0.007735  3.984445  -0.004
C  C33  1  0.80574263  0.91601969  0.85476633  1  -0.086685  -0.122584  -0.007751  3.982689  -0.004
C  C34  1  0.36235904  0.04795960  0.42804453  1  -0.086329  -0.117916  -0.002116  3.973899  0.0
C  C35  1  0.12001522  0.93442604  0.07198523  1  -0.086319  -0.119167  -0.002121  3.972067  0.0
C  C36  1  0.63763938  0.95204392  0.57196181  1  -0.086384  -0.118003  -0.002118  3.973936  0.0
C  C37  1  0.87998971  0.06557451  0.92801554  1  -0.086361  -0.119235  -0.002118  3.9722  0.0
C  C38  1  0.26948453  0.91655498  0.41427680  1  0.002306  0.10032  -0.028595  4.031575  -0.017
C  C39  1  0.00234298  0.85530610  0.08570875  1  0.002196  0.10049  -0.028567  4.033433  -0.017
C  C40  1  0.73050823  0.08344645  0.58571981  1  0.00236  0.100242  -0.028603  4.031654  -0.017
C  C41  1  0.99765946  0.14469120  0.91428924  1  0.002287  0.100653  -0.028572  4.033446  -0.017
C  C42  1  0.25587981  0.78587060  0.32272912  1  -0.089176  -0.124477  -0.009748  3.966833  -0.005
C  C43  1  0.96320183  0.93321747  0.17725127  1  -0.088864  -0.125318  -0.009783  3.968854  -0.005
C  C44  1  0.74412166  0.21413305  0.67727485  1  -0.089187  -0.124479  -0.009747  3.966958  -0.005
C  C45  1  0.03680064  0.06678196  0.82274826  1  -0.088917  -0.125456  -0.009779  3.96881  -0.005
C  C46  1  0.33144594  0.78694407  0.24909520  1  -0.090274  -0.12607  -0.011283  3.967755  -0.006
C  C47  1  0.03791653  0.08244041  0.25093397  1  -0.08947  -0.122221  -0.011266  3.967754  -0.006
C  C48  1  0.66855266  0.21305957  0.75090597  1  -0.090329  -0.126153  -0.011288  3.967777  -0.006
C  C49  1  0.96208355  0.91756007  0.74906414  1  -0.089459  -0.122179  -0.011272  3.967773  -0.006
C  C50  1  0.50367516  0.91892766  0.18501656  1  -0.019441  -0.148465  -0.025609  4.173167  -0.014
C  C51  1  0.23403713  0.31882453  0.31505128  1  -0.019394  -0.147043  -0.025643  4.17339  -0.014
C  C52  1  0.49632429  0.08107592  0.81498842  1  -0.019395  -0.148436  -0.025629  4.173079  -0.014
C  C53  1  0.76596773  0.68117598  0.68495121  1  -0.019333  -0.147013  -0.025658  4.173397  -0.014
C  C54  1  0.50774554  0.79427523  0.11430083  1  0.208847  0.297172  -0.009692  4.040984  -0.002
C  C55  1  0.18005698  0.39354900  0.38573714  1  0.208968  0.296859  -0.009692  4.042796  -0.002
C  C56  1  0.49225546  0.20572948  0.88570330  1  0.208861  0.297176  -0.009688  4.040819  -0.002
C  C57  1  0.81994352  0.60644826  0.61426014  1  0.208937  0.296903  -0.00969  4.0428  -0.002
C  C58  1  0.57810979  0.04310162  0.17835601  1  0.191048  0.276121  0.001385  4.106514  0.002
C  C59  1  0.36484921  0.39993300  0.32167924  1  0.191179  0.274903  0.001385  4.108796  0.002
C  C60  1  0.42189070  0.95690201  0.82164760  1  0.191018  0.27613  0.001384  4.106717  0.002
C  C61  1  0.63515417  0.60006640  0.67832237  1  0.191092  0.274874  0.001385  4.109017  0.002
C  C62  1  0.19051655  0.91474698  0.49246024  1  -0.020039  -0.149008  -0.005662  4.168659  -0.001
C  C63  1  0.92234148  0.69816613  0.00758444  1  -0.019486  -0.148217  -0.005711  4.169945  -0.001
C  C64  1  0.80948092  0.08525230  0.50754093  1  -0.020014  -0.148982  -0.005667  4.168734  -0.001
C  C65  1  0.07765997  0.30183113  0.99241405  1  -0.019484  -0.148256  -0.005705  4.169822  -0.001
C  C66  1  0.18409103  0.04001242  0.56248028  1  0.194134  0.277605  0.000613  4.095359  0.0
C  C67  1  0.97758235  0.62171141  0.93757024  1  0.194125  0.2775  0.000615  4.098091  0.0
C  C68  1  0.81590301  0.95998573  0.43751931  1  0.19418  0.277676  0.000613  4.095287  0.0
C  C69  1  0.02241843  0.37828468  0.06243204  1  0.194106  0.277505  0.000616  4.098204  0.0
C  C70  1  0.12724040  0.79165148  0.50283665  1  0.208086  0.294213  -0.011217  4.035172  -0.005
C  C71  1  0.78885504  0.62447250  0.99719004  1  0.206919  0.292787  -0.011203  4.034549  -0.005
C  C72  1  0.87275809  0.20834571  0.49716163  1  0.208048  0.294222  -0.011218  4.035333  -0.005
C  C73  1  0.21114696  0.37552800  0.00280964  1  0.206912  0.292804  -0.011206  4.034474  -0.005
N  N74  1  0.50763582  0.68390797  0.06313071  1  -0.366802  -0.380124  -0.031152  3.386294  -0.027
N  N75  1  0.12082600  0.44456107  0.43689000  1  -0.366792  -0.379782  -0.031164  3.388712  -0.027
N  N76  1  0.49236422  0.31609461  0.93687066  1  -0.366782  -0.380087  -0.031161  3.386207  -0.027
N  N77  1  0.87917210  0.55543511  0.56310431  1  -0.366824  -0.379891  -0.031168  3.388753  -0.027
N  N78  1  0.63766931  0.14697569  0.17166240  1  -0.307609  -0.397749  -0.005465  2.909935  -0.004
N  N79  1  0.47543556  0.46614339  0.32836685  1  -0.307702  -0.396881  -0.005473  2.910475  -0.004
N  N80  1  0.36232980  0.85302478  0.82833535  1  -0.307629  -0.39779  -0.005475  2.910088  -0.004
N  N81  1  0.52456607  0.53385823  0.67163042  1  -0.307638  -0.396852  -0.00548  2.91066  -0.004
N  N82  1  0.18460277  0.14931807  0.61832504  1  -0.30884  -0.405498  0.004172  2.898355  0.004
N  N83  1  0.03104753  0.56636927  0.88173198  1  -0.308942  -0.405524  0.004159  2.900225  0.004
N  N84  1  0.81539537  0.85068239  0.38167235  1  -0.30886  -0.405537  0.00417  2.898308  0.004
N  N85  1  0.96895220  0.43362463  0.11827012  1  -0.308913  -0.405502  0.004161  2.900362  0.004
N  N86  1  0.08443907  0.68342384  0.50949866  1  -0.369158  -0.386005  -0.02047  3.382597  -0.018
N  N87  1  0.67394146  0.57497648  0.99051512  1  -0.368019  -0.383902  -0.020502  3.380818  -0.018
N  N88  1  0.91555991  0.31657231  0.49049860  1  -0.369178  -0.386061  -0.020472  3.382741  -0.018
N  N89  1  0.32606106  0.42502510  0.00948509  1  -0.368021  -0.383898  -0.020501  3.380713  -0.018
O  O90  1  0.63494631  0.55600951  0.21130475  1  -0.523107  -0.667852  -0.007161  2.158261  -0.011
O  O91  1  0.84464099  0.42357814  0.28867139  1  -0.522722  -0.667927  -0.007177  2.157643  -0.011
O  O92  1  0.36505432  0.44399208  0.78869301  1  -0.523063  -0.667769  -0.007163  2.158324  -0.011
O  O93  1  0.15535852  0.57641697  0.71132399  1  -0.52275  -0.668014  -0.007179  2.157547  -0.011
