# generated using pymatgen
data_CdH14(C4O3)2
_symmetry_space_group_name_H-M   'P 1'
_cell_length_a   8.70445746
_cell_length_b   12.94059327
_cell_length_c   20.01619521
_cell_angle_alpha   90.00008576
_cell_angle_beta   90.00011575
_cell_angle_gamma   90.00010880
_symmetry_Int_Tables_number   1
_chemical_formula_structural   CdH14(C4O3)2
_chemical_formula_sum   'Cd8 H112 C64 O48'
_cell_volume   2254.64111439
_cell_formula_units_Z   8
loop_
 _symmetry_equiv_pos_site_id
 _symmetry_equiv_pos_as_xyz
  1  'x, y, z'
loop_
 _atom_site_type_symbol
 _atom_site_label
 _atom_site_symmetry_multiplicity
 _atom_site_fract_x
 _atom_site_fract_y
 _atom_site_fract_z
 _atom_site_occupancy
 _atom_site_pbe_bader_charge
 _atom_site_pbe_bader_spin_density
 _atom_site_pbe_cm5_charge
 _atom_site_pbe_ddec_charge
 _atom_site_pbe_ddec_spin_density
 _atom_site_pbe_ddec_sum_bond_order
 _atom_site_pbe_magmom
Cd  Cd0  1  0.99325027  0.35333510  0.50881159  1  1.344496  0  0.773047  1.064048  0  2.019163  0
Cd  Cd1  1  0.99325111  0.14666585  0.99118938  1  1.34442  0  0.773033  1.064062  0  2.019216  0
Cd  Cd2  1  0.50674705  0.64666466  0.00880940  1  1.344615  0  0.773052  1.064084  0  2.019237  0
Cd  Cd3  1  0.50675077  0.85333349  0.49118839  1  1.344456  0  0.773024  1.064021  0  2.019232  0
Cd  Cd4  1  0.00674689  0.64666645  0.49118757  1  1.344525  0  0.773059  1.064069  0  2.019191  0
Cd  Cd5  1  0.00674835  0.85333261  0.00881178  1  1.344507  0  0.773026  1.064029  0  2.019234  0
Cd  Cd6  1  0.49325240  0.35333303  0.99118976  1  1.344442  0  0.773053  1.064126  0  2.019235  0
Cd  Cd7  1  0.49325328  0.14666652  0.50881177  1  1.344506  0  0.773033  1.064026  0  2.019237  0
H  H8  1  0.24752056  0.37676848  0.36875019  1  0.031701  0  0.098216  0.086636  0  0.983313  0
H  H9  1  0.24752539  0.12323114  0.13125138  1  0.031734  0  0.098183  0.086581  0  0.983313  0
H  H10  1  0.25247701  0.62322994  0.86874993  1  0.031734  0  0.098177  0.086582  0  0.98329  0
H  H11  1  0.25247451  0.87676673  0.63125237  1  0.031684  0  0.098203  0.086595  0  0.983369  0
H  H12  1  0.75247660  0.62323539  0.63124947  1  0.031667  0  0.098212  0.086602  0  0.983334  0
H  H13  1  0.75247522  0.87676809  0.86874927  1  0.031708  0  0.098189  0.086538  0  0.983295  0
H  H14  1  0.74752244  0.37677084  0.13125023  1  0.031744  0  0.098187  0.086588  0  0.983258  0
H  H15  1  0.74752494  0.12323328  0.36874979  1  0.031698  0  0.098213  0.086608  0  0.983354  0
H  H16  1  0.43953265  0.55567532  0.31235503  1  0.060596  0  0.090324  0.089338  0  0.992921  0
H  H17  1  0.43953061  0.94431887  0.18764470  1  0.060472  0  0.090324  0.08933  0  0.992941  0
H  H18  1  0.06046581  0.44432219  0.81235443  1  0.060547  0  0.090333  0.089336  0  0.992967  0
H  H19  1  0.06046841  0.05567912  0.68764523  1  0.060543  0  0.090309  0.089294  0  0.992941  0
H  H20  1  0.56047140  0.44432314  0.68764263  1  0.060584  0  0.090315  0.08932  0  0.992918  0
H  H21  1  0.56046655  0.05567727  0.81235496  1  0.060555  0  0.090312  0.089321  0  0.992937  0
H  H22  1  0.93953135  0.55567936  0.18764573  1  0.060522  0  0.0903  0.089315  0  0.993002  0
H  H23  1  0.93952990  0.94432165  0.31235493  1  0.060521  0  0.090289  0.089297  0  0.992932  0
H  H24  1  0.27161392  0.50504766  0.27516105  1  0.00533  0  0.087604  0.081163  0  1.009503  0
H  H25  1  0.27161450  0.99494864  0.22483853  1  0.005271  0  0.087606  0.081173  0  1.009535  0
H  H26  1  0.22838435  0.49495054  0.77516064  1  0.005322  0  0.087616  0.081178  0  1.009562  0
H  H27  1  0.22838699  0.00504945  0.72483966  1  0.005295  0  0.087602  0.081164  0  1.009533  0
H  H28  1  0.72838668  0.49495311  0.72483761  1  0.005354  0  0.087618  0.081188  0  1.009473  0
H  H29  1  0.72838381  0.00504828  0.77516063  1  0.005347  0  0.087606  0.081151  0  1.00953  0
H  H30  1  0.77161510  0.50504947  0.22483951  1  0.005318  0  0.087608  0.081165  0  1.00955  0
H  H31  1  0.77161132  0.99495210  0.27516150  1  0.005313  0  0.087597  0.081172  0  1.009468  0
H  H32  1  0.50630264  0.42707451  0.22231341  1  0.050105  0  0.089643  0.089548  0  0.981913  0
H  H33  1  0.50630801  0.07291925  0.27768640  1  0.050113  0  0.089693  0.089584  0  0.98188  0
H  H34  1  0.99369338  0.57292343  0.72231431  1  0.050097  0  0.089635  0.089526  0  0.981939  0
H  H35  1  0.99369287  0.92708114  0.77768764  1  0.050049  0  0.089656  0.089563  0  0.981842  0
H  H36  1  0.49369222  0.57292240  0.77768525  1  0.05012  0  0.089644  0.089558  0  0.981905  0
H  H37  1  0.49369029  0.92707534  0.72231476  1  0.050085  0  0.08965  0.089562  0  0.981912  0
H  H38  1  0.00630837  0.42707967  0.27768635  1  0.050047  0  0.089671  0.089563  0  0.981853  0
H  H39  1  0.00630544  0.07292196  0.22231402  1  0.050093  0  0.089667  0.089566  0  0.981913  0
H  H40  1  0.39709074  0.33211671  0.26363385  1  -0.001126  0  0.083153  0.067958  0  1.028137  0
H  H41  1  0.39709274  0.16787691  0.23636735  1  -0.00085  0  0.083128  0.067915  0  1.028188  0
H  H42  1  0.10290748  0.66788069  0.76363401  1  -0.001088  0  0.083175  0.067976  0  1.028171  0
H  H43  1  0.10290420  0.83212120  0.73636916  1  -0.000872  0  0.083144  0.067978  0  1.028175  0
H  H44  1  0.60290527  0.66788098  0.73636580  1  -0.00107  0  0.083173  0.067964  0  1.028201  0
H  H45  1  0.60290441  0.83211923  0.76363480  1  -0.000713  0  0.083176  0.067993  0  1.028157  0
H  H46  1  0.89709542  0.33212163  0.23636665  1  -0.000679  0  0.083147  0.067968  0  1.028163  0
H  H47  1  0.89709410  0.16788035  0.26363399  1  -0.001064  0  0.083177  0.068006  0  1.028188  0
H  H48  1  0.67330328  0.30975859  0.29126259  1  -0.015255  0  0.085452  0.075741  0  1.015624  0
H  H49  1  0.67330292  0.19023847  0.20873686  1  -0.012814  0  0.085445  0.075728  0  1.015576  0
H  H50  1  0.82669766  0.69024028  0.79126396  1  -0.012863  0  0.085456  0.075733  0  1.015621  0
H  H51  1  0.82669304  0.80976253  0.70873884  1  -0.015215  0  0.085462  0.075768  0  1.015639  0
H  H52  1  0.32669388  0.69023987  0.70873607  1  -0.015223  0  0.085441  0.07572  0  1.015618  0
H  H53  1  0.32669424  0.80975921  0.79126530  1  -0.012862  0  0.085443  0.075712  0  1.015636  0
H  H54  1  0.17330524  0.30976204  0.20873770  1  -0.015232  0  0.085481  0.075794  0  1.015607  0
H  H55  1  0.17330641  0.19023748  0.29126381  1  -0.012833  0  0.085474  0.075753  0  1.015594  0
H  H56  1  0.68478960  0.43869090  0.31918704  1  0.025753  0  0.088237  0.07778  0  1.02617  0
H  H57  1  0.68478989  0.06130695  0.18081091  1  0.02583  0  0.088204  0.077727  0  1.026221  0
H  H58  1  0.81521033  0.56130882  0.81918828  1  0.025865  0  0.088218  0.077766  0  1.026175  0
H  H59  1  0.81520939  0.93869243  0.68081151  1  0.025851  0  0.088218  0.07777  0  1.02617  0
H  H60  1  0.31520871  0.56130911  0.68080961  1  0.025923  0  0.088212  0.077747  0  1.026195  0
H  H61  1  0.31520842  0.93868996  0.81918974  1  0.025928  0  0.088213  0.077761  0  1.026187  0
H  H62  1  0.18479257  0.43869273  0.18081138  1  0.025828  0  0.088201  0.077747  0  1.026209  0
H  H63  1  0.18478777  0.06130680  0.31918964  1  0.025857  0  0.088219  0.077745  0  1.026186  0
H  H64  1  0.41627573  0.39080283  0.46755826  1  0.034335  0  0.092308  0.094583  0  1.017083  0
H  H65  1  0.41627316  0.10919159  0.03244096  1  0.034558  0  0.092298  0.094648  0  1.017105  0
H  H66  1  0.08372575  0.60919195  0.96755984  1  0.034555  0  0.09227  0.094612  0  1.017012  0
H  H67  1  0.08372283  0.89080295  0.53244281  1  0.034306  0  0.092294  0.094593  0  1.017043  0
H  H68  1  0.58372373  0.60919717  0.53243990  1  0.034503  0  0.092309  0.094583  0  1.017199  0
H  H69  1  0.58372744  0.89080764  0.96755969  1  0.034307  0  0.092294  0.094631  0  1.017098  0
H  H70  1  0.91627600  0.39080573  0.03244182  1  0.034583  0  0.09227  0.094589  0  1.016995  0
H  H71  1  0.91627547  0.10919550  0.46755934  1  0.034539  0  0.092319  0.094619  0  1.01711  0
H  H72  1  0.52378276  0.49050076  0.42816176  1  0.041188  0  0.092748  0.09123  0  1.006399  0
H  H73  1  0.52378240  0.00949612  0.07183906  1  0.041207  0  0.092766  0.091237  0  1.006392  0
H  H74  1  0.97621652  0.50949689  0.92816008  1  0.0412  0  0.092762  0.091214  0  1.006437  0
H  H75  1  0.97621637  0.99049915  0.57184085  1  0.040936  0  0.092783  0.091245  0  1.006454  0
H  H76  1  0.47621669  0.50950002  0.57183790  1  0.041179  0  0.092756  0.091229  0  1.006384  0
H  H77  1  0.47621706  0.99050311  0.92816110  1  0.041221  0  0.092768  0.091229  0  1.006392  0
H  H78  1  0.02378523  0.49050157  0.07184007  1  0.040883  0  0.092777  0.091226  0  1.006404  0
H  H79  1  0.02378423  0.00950008  0.42816081  1  0.040832  0  0.092773  0.091228  0  1.006424  0
H  H80  1  0.49277294  0.26595533  0.38166978  1  0.032448  0  0.097873  0.081642  0  0.994314  0
H  H81  1  0.49276768  0.23404150  0.11833051  1  0.032464  0  0.097796  0.081486  0  0.994375  0
H  H82  1  0.00723273  0.73404234  0.88167091  1  0.032439  0  0.097826  0.081565  0  0.99439  0
H  H83  1  0.00722757  0.76595479  0.61833267  1  0.032355  0  0.097853  0.081581  0  0.994358  0
H  H84  1  0.50722767  0.73404544  0.61833037  1  0.032426  0  0.097867  0.081637  0  0.994294  0
H  H85  1  0.50723063  0.76595696  0.88167115  1  0.032443  0  0.097851  0.081603  0  0.99434  0
H  H86  1  0.99277017  0.26595689  0.11833124  1  0.032445  0  0.097844  0.081582  0  0.994344  0
H  H87  1  0.99276959  0.23404522  0.38166898  1  0.032405  0  0.097844  0.081594  0  0.994347  0
H  H88  1  0.07283213  0.17621213  0.58919501  1  0.657836  0  0.283316  0.387092  0  0.958151  0
H  H89  1  0.07282965  0.32378765  0.91080515  1  0.65792  0  0.283342  0.387126  0  0.958104  0
H  H90  1  0.42716872  0.82378564  0.08919286  1  0.657838  0  0.283344  0.387109  0  0.958128  0
H  H91  1  0.42717156  0.67621241  0.41080486  1  0.657922  0  0.283353  0.387136  0  0.958086  0
H  H92  1  0.92716962  0.82378788  0.41080415  1  0.65784  0  0.283359  0.387144  0  0.958107  0
H  H93  1  0.92716981  0.67621158  0.08919400  1  0.65784  0  0.28336  0.387159  0  0.958043  0
H  H94  1  0.57283073  0.17621205  0.91080530  1  0.657844  0  0.283369  0.387149  0  0.958067  0
H  H95  1  0.57283134  0.32378837  0.58919430  1  0.657837  0  0.28335  0.387115  0  0.95815  0
H  H96  1  0.88723671  0.18202845  0.58708707  1  0.635252  0  0.291508  0.394197  0  0.929791  0
H  H97  1  0.88723307  0.31797160  0.91291430  1  0.635721  0  0.291492  0.394183  0  0.929815  0
H  H98  1  0.61276442  0.81797149  0.08708464  1  0.635242  0  0.291508  0.394159  0  0.929841  0
H  H99  1  0.61276844  0.68202679  0.41291423  1  0.635704  0  0.291487  0.394166  0  0.929834  0
H  H100  1  0.11276389  0.81797001  0.41291358  1  0.635259  0  0.291513  0.394215  0  0.929763  0
H  H101  1  0.11276638  0.68202841  0.08708586  1  0.635724  0  0.291512  0.394201  0  0.929784  0
H  H102  1  0.38723273  0.18202851  0.91291451  1  0.635715  0  0.291508  0.394184  0  0.929816  0
H  H103  1  0.38723561  0.31797244  0.58708592  1  0.635243  0  0.291511  0.394198  0  0.929783  0
H  H104  1  0.15132220  0.38769403  0.63089338  1  0.604919  0  0.326365  0.405996  0  0.861858  0
H  H105  1  0.15132122  0.11230663  0.86910735  1  0.604919  0  0.326354  0.406001  0  0.861833  0
H  H106  1  0.34868000  0.61230692  0.13089245  1  0.604925  0  0.326331  0.40594  0  0.861951  0
H  H107  1  0.34867865  0.88769334  0.36910719  1  0.604919  0  0.326335  0.405969  0  0.86183  0
H  H108  1  0.84867841  0.61230675  0.36910678  1  0.604917  0  0.32634  0.405968  0  0.861864  0
H  H109  1  0.84867939  0.88769261  0.13089330  1  0.604908  0  0.326369  0.406012  0  0.861802  0
H  H110  1  0.65132175  0.38769385  0.86910720  1  0.604916  0  0.326338  0.405941  0  0.86194  0
H  H111  1  0.65132310  0.11230667  0.63089347  1  0.604911  0  0.326353  0.406008  0  0.861852  0
H  H112  1  0.20092096  0.48501954  0.58850377  1  0.654707  0  0.291491  0.386021  0  0.953537  0
H  H113  1  0.20091990  0.01498118  0.91149700  1  0.6547  0  0.291504  0.386022  0  0.953538  0
H  H114  1  0.29907989  0.51498055  0.08850371  1  0.654695  0  0.291506  0.386037  0  0.95351  0
H  H115  1  0.29908016  0.98501965  0.41149639  1  0.654696  0  0.291474  0.385985  0  0.953569  0
H  H116  1  0.79907849  0.51498124  0.41149688  1  0.654734  0  0.291462  0.385966  0  0.953585  0
H  H117  1  0.79907955  0.98501882  0.08850465  1  0.654712  0  0.291476  0.385996  0  0.953557  0
H  H118  1  0.70092072  0.48501946  0.91149644  1  0.654705  0  0.291502  0.38602  0  0.953536  0
H  H119  1  0.70092159  0.01498113  0.58850427  1  0.654709  0  0.291486  0.386016  0  0.953548  0
C  C120  1  0.22063349  0.52601746  0.41124684  1  1.525647  0  0.208171  0.604398  0  4.131883  0
C  C121  1  0.22062993  0.97398264  0.08875419  1  1.526002  0  0.208258  0.604483  0  4.131892  0
C  C122  1  0.27936657  0.47397874  0.91124596  1  1.525698  0  0.208284  0.604601  0  4.131836  0
C  C123  1  0.27936518  0.02601745  0.58875289  1  1.526029  0  0.20814  0.604216  0  4.131984  0
C  C124  1  0.77936826  0.47398718  0.58875182  1  1.526032  0  0.208156  0.604293  0  4.13198  0
C  C125  1  0.77936608  0.02601891  0.91124646  1  1.526019  0  0.208174  0.604252  0  4.131976  0
C  C126  1  0.72063748  0.52602204  0.08875270  1  1.526065  0  0.208214  0.604341  0  4.132053  0
C  C127  1  0.72063313  0.97398256  0.41124727  1  1.526078  0  0.208138  0.604289  0  4.132192  0
C  C128  1  0.31774791  0.44679546  0.37481684  1  0.011962  0  -0.093029  -0.1079  0  3.879754  0
C  C129  1  0.31774677  0.05320347  0.12518429  1  0.011994  0  -0.093043  -0.107886  0  3.879646  0
C  C130  1  0.18225313  0.55320220  0.87481695  1  0.011993  0  -0.093039  -0.107931  0  3.879623  0
C  C131  1  0.18225311  0.94679360  0.62518428  1  0.011741  0  -0.093085  -0.107825  0  3.879654  0
C  C132  1  0.68225155  0.55320687  0.62518281  1  0.011987  0  -0.093096  -0.107948  0  3.879747  0
C  C133  1  0.68225039  0.94679499  0.87481586  1  0.011993  0  -0.093039  -0.107665  0  3.879349  0
C  C134  1  0.81774977  0.44679626  0.12518370  1  0.01203  0  -0.09306  -0.107803  0  3.879508  0
C  C135  1  0.81774750  0.05320563  0.37481737  1  0.012024  0  -0.093022  -0.107819  0  3.87968  0
C  C136  1  0.37154897  0.48455411  0.30607255  1  -0.016752  0  -0.166428  -0.166485  0  3.934061  0
C  C137  1  0.37154804  0.01544179  0.19392763  1  -0.016669  0  -0.166434  -0.166508  0  3.93409  0
C  C138  1  0.12845060  0.51544339  0.80607208  1  -0.016736  0  -0.166441  -0.166481  0  3.934097  0
C  C139  1  0.12845100  0.98455621  0.69392861  1  -0.01674  0  -0.166407  -0.166449  0  3.934022  0
C  C140  1  0.62845163  0.51544589  0.69392561  1  -0.016754  0  -0.166389  -0.166427  0  3.933957  0
C  C141  1  0.62844796  0.98455435  0.80607152  1  -0.016737  0  -0.166404  -0.166495  0  3.934007  0
C  C142  1  0.87155115  0.48455739  0.19392858  1  -0.016765  0  -0.166394  -0.166466  0  3.934117  0
C  C143  1  0.87154845  0.01544456  0.30607254  1  -0.016693  0  -0.166367  -0.166391  0  3.933914  0
C  C144  1  0.46845889  0.40127124  0.27204461  1  -0.032823  0  -0.167657  -0.139  0  3.944511  0
C  C145  1  0.46846181  0.09872324  0.22795616  1  -0.032682  0  -0.16766  -0.138952  0  3.944442  0
C  C146  1  0.03153937  0.59872695  0.77204463  1  -0.032832  0  -0.167657  -0.139003  0  3.944535  0
C  C147  1  0.03153740  0.90127485  0.72795648  1  -0.032646  0  -0.16763  -0.13903  0  3.9445  0
C  C148  1  0.53153827  0.59872721  0.72795355  1  -0.03279  0  -0.167637  -0.138987  0  3.944445  0
C  C149  1  0.53153535  0.90127290  0.77204549  1  -0.032822  0  -0.16764  -0.139014  0  3.944484  0
C  C150  1  0.96846353  0.40127537  0.22795553  1  -0.032786  0  -0.167617  -0.138957  0  3.944422  0
C  C151  1  0.96846091  0.09872593  0.27204468  1  -0.032828  0  -0.167678  -0.139116  0  3.944575  0
C  C152  1  0.60689492  0.37216684  0.31494441  1  0.002252  0  -0.166185  -0.157156  0  3.926981  0
C  C153  1  0.60689427  0.12783091  0.18505398  1  0.002066  0  -0.166146  -0.15713  0  3.926884  0
C  C154  1  0.89310613  0.62783286  0.81494578  1  0.002124  0  -0.166173  -0.157112  0  3.926965  0
C  C155  1  0.89310388  0.87216617  0.68505608  1  0.002345  0  -0.16619  -0.157208  0  3.927091  0
C  C156  1  0.39310339  0.62783393  0.68505324  1  0.002034  0  -0.166159  -0.157091  0  3.926973  0
C  C157  1  0.39310289  0.87216600  0.81494668  1  0.00202  0  -0.166166  -0.157104  0  3.926953  0
C  C158  1  0.10689677  0.37216715  0.18505488  1  0.002072  0  -0.166216  -0.157271  0  3.927069  0
C  C159  1  0.10689443  0.12783306  0.31494608  1  0.002102  0  -0.166215  -0.15712  0  3.927013  0
C  C160  1  0.45632525  0.41996993  0.41906406  1  -0.017073  0  -0.161021  -0.172374  0  3.862534  0
C  C161  1  0.45632627  0.08002685  0.08093520  1  -0.017363  0  -0.161053  -0.172537  0  3.862531  0
C  C162  1  0.04367485  0.58002706  0.91906408  1  -0.017359  0  -0.161045  -0.17247  0  3.862504  0
C  C163  1  0.04367224  0.91996780  0.58093704  1  -0.016436  0  -0.161017  -0.172437  0  3.862625  0
C  C164  1  0.54367306  0.58003239  0.58093410  1  -0.017267  0  -0.161013  -0.172349  0  3.862578  0
C  C165  1  0.54367433  0.91997083  0.91906496  1  -0.017127  0  -0.161037  -0.172472  0  3.862543  0
C  C166  1  0.95632690  0.41997063  0.08093658  1  -0.017048  0  -0.16102  -0.172436  0  3.862472  0
C  C167  1  0.95632721  0.08003143  0.41906461  1  -0.016939  0  -0.16106  -0.172421  0  3.862593  0
C  C168  1  0.55875304  0.33847447  0.38524695  1  0.003622  0  -0.095691  -0.123035  0  3.889571  0
C  C169  1  0.55875215  0.16152245  0.11475290  1  0.003605  0  -0.095626  -0.122712  0  3.889488  0
C  C170  1  0.94124835  0.66152462  0.88524789  1  0.003599  0  -0.095638  -0.122887  0  3.889591  0
C  C171  1  0.94124567  0.83847369  0.61475501  1  0.003346  0  -0.095621  -0.122791  0  3.889666  0
C  C172  1  0.44124527  0.66152631  0.61475171  1  0.003536  0  -0.095687  -0.123068  0  3.889752  0
C  C173  1  0.44124845  0.83847601  0.88524826  1  0.003545  0  -0.095706  -0.123001  0  3.889645  0
C  C174  1  0.05875226  0.33847615  0.11475377  1  0.003565  0  -0.095663  -0.122852  0  3.889478  0
C  C175  1  0.05875379  0.16152631  0.38524715  1  0.003595  0  -0.095698  -0.123072  0  3.889596  0
C  C176  1  0.69651701  0.31771822  0.42988335  1  1.552394  0  0.215627  0.603502  0  4.128487  0
C  C177  1  0.69651483  0.18228429  0.07011711  1  1.552876  0  0.215581  0.603344  0  4.12878  0
C  C178  1  0.80348573  0.68228407  0.92988320  1  1.552887  0  0.215624  0.603491  0  4.128664  0
C  C179  1  0.80348393  0.81771330  0.57011758  1  1.552945  0  0.215492  0.603209  0  4.128888  0
C  C180  1  0.30348359  0.68228411  0.57011580  1  1.552437  0  0.21568  0.603549  0  4.128587  0
C  C181  1  0.30348463  0.81771572  0.92988454  1  1.552849  0  0.215636  0.603465  0  4.128737  0
C  C182  1  0.19651602  0.31771593  0.07011746  1  1.552858  0  0.215589  0.603426  0  4.128681  0
C  C183  1  0.19651552  0.18228902  0.42988357  1  1.552463  0  0.215602  0.603525  0  4.128592  0
O  O184  1  0.09794351  0.49545700  0.44143982  1  -1.173788  0  -0.340163  -0.60847  0  2.358015  0
O  O185  1  0.09793962  0.00454474  0.05856013  1  -1.173837  0  -0.340154  -0.608437  0  2.358018  0
O  O186  1  0.40205899  0.50454159  0.94144008  1  -1.173807  0  -0.340257  -0.608607  0  2.35785  0
O  O187  1  0.40205994  0.99545372  0.55856035  1  -1.173867  0  -0.340191  -0.608423  0  2.357938  0
O  O188  1  0.90205824  0.50454610  0.55855834  1  -1.173968  0  -0.340189  -0.608427  0  2.358133  0
O  O189  1  0.90205984  0.99545681  0.94144053  1  -1.173831  0  -0.340208  -0.60848  0  2.357955  0
O  O190  1  0.59794391  0.49545609  0.05855808  1  -1.173813  0  -0.340281  -0.60861  0  2.357866  0
O  O191  1  0.59794066  0.00454628  0.44144080  1  -1.173924  0  -0.34018  -0.608457  0  2.358108  0
O  O192  1  0.26099226  0.61957657  0.41243694  1  -1.174861  0  -0.312816  -0.540241  0  2.22538  0
O  O193  1  0.26098842  0.88042358  0.08756313  1  -1.175135  0  -0.31285  -0.540259  0  2.225417  0
O  O194  1  0.23900781  0.38042272  0.91243693  1  -1.174947  0  -0.312749  -0.540196  0  2.225696  0
O  O195  1  0.23900668  0.11957263  0.58756088  1  -1.175148  0  -0.312745  -0.5401  0  2.225587  0
O  O196  1  0.73900834  0.38042575  0.58756122  1  -1.175059  0  -0.312762  -0.540157  0  2.22539  0
O  O197  1  0.73900758  0.11957488  0.91243852  1  -1.175138  0  -0.312745  -0.540123  0  2.225683  0
O  O198  1  0.76099280  0.61957496  0.08756073  1  -1.175205  0  -0.312714  -0.540095  0  2.225938  0
O  O199  1  0.76099048  0.88042737  0.41243928  1  -1.17519  0  -0.312766  -0.540152  0  2.225587  0
O  O200  1  0.80996931  0.38119915  0.42703674  1  -1.168246  0  -0.319038  -0.571317  0  2.29865  0
O  O201  1  0.80997156  0.11880659  0.07296483  1  -1.16859  0  -0.31901  -0.571246  0  2.298796  0
O  O202  1  0.69002997  0.61880700  0.92703492  1  -1.168619  0  -0.319056  -0.571318  0  2.298745  0
O  O203  1  0.69002836  0.88119332  0.57296476  1  -1.16857  0  -0.319  -0.571219  0  2.298723  0
O  O204  1  0.19002900  0.61880781  0.57296242  1  -1.168548  0  -0.319053  -0.571296  0  2.298734  0
O  O205  1  0.19002905  0.88119341  0.92703733  1  -1.168543  0  -0.319041  -0.571289  0  2.298717  0
O  O206  1  0.30996948  0.38119455  0.07296324  1  -1.168591  0  -0.319022  -0.571281  0  2.298759  0
O  O207  1  0.30997339  0.11880978  0.42703590  1  -1.16829  0  -0.31907  -0.571332  0  2.298606  0
O  O208  1  0.69770259  0.24034469  0.46857199  1  -1.181901  0  -0.317592  -0.566914  0  2.334824  0
O  O209  1  0.69769815  0.25965705  0.03142898  1  -1.181925  0  -0.317553  -0.566896  0  2.335016  0
O  O210  1  0.80230263  0.75965692  0.96857240  1  -1.181952  0  -0.317581  -0.566944  0  2.334927  0
O  O211  1  0.80230043  0.74034431  0.53142838  1  -1.182059  0  -0.317526  -0.566778  0  2.335006  0
O  O212  1  0.30230146  0.75965841  0.53142567  1  -1.181587  0  -0.317659  -0.566995  0  2.334859  0
O  O213  1  0.30230016  0.74034296  0.96857268  1  -1.181972  0  -0.317568  -0.566894  0  2.335051  0
O  O214  1  0.19769912  0.24034154  0.03142875  1  -1.181938  0  -0.317573  -0.566931  0  2.334937  0
O  O215  1  0.19769788  0.25965956  0.46857178  1  -1.181918  0  -0.317523  -0.566874  0  2.334998  0
O  O216  1  0.98157350  0.22388285  0.58835061  1  -1.260422  0  -0.59583  -0.79177  0  2.083601  0
O  O217  1  0.98157088  0.27611731  0.91165034  1  -1.260891  0  -0.595851  -0.791798  0  2.083618  0
O  O218  1  0.51842649  0.77611709  0.08834756  1  -1.260585  0  -0.595883  -0.791775  0  2.083706  0
O  O219  1  0.51842948  0.72388184  0.41164974  1  -1.26087  0  -0.595859  -0.791782  0  2.08361  0
O  O220  1  0.01842596  0.77611792  0.41164854  1  -1.26043  0  -0.595882  -0.791842  0  2.083601  0
O  O221  1  0.01842857  0.72388192  0.08834981  1  -1.260893  0  -0.595865  -0.79181  0  2.083573  0
O  O222  1  0.48157181  0.22388291  0.91165110  1  -1.260885  0  -0.595894  -0.79183  0  2.083648  0
O  O223  1  0.48157457  0.27611894  0.58834992  1  -1.260413  0  -0.595871  -0.791781  0  2.08362  0
O  O224  1  0.20667653  0.40779279  0.59065000  1  -1.233679  0  -0.55962  -0.736243  0  2.026355  0
O  O225  1  0.20667568  0.09220717  0.90935128  1  -1.233677  0  -0.559631  -0.736262  0  2.026352  0
O  O226  1  0.29332548  0.59220730  0.09064901  1  -1.233685  0  -0.559605  -0.736194  0  2.026449  0
O  O227  1  0.29332437  0.90779289  0.40935159  1  -1.233664  0  -0.559579  -0.73618  0  2.026343  0
O  O228  1  0.79332407  0.59220876  0.40935065  1  -1.233658  0  -0.559564  -0.736148  0  2.0265  0
O  O229  1  0.79332262  0.90779207  0.09064988  1  -1.233679  0  -0.559615  -0.736246  0  2.026313  0
O  O230  1  0.70667627  0.40779271  0.90935065  1  -1.233677  0  -0.559613  -0.736197  0  2.02647  0
O  O231  1  0.70667623  0.09220711  0.59064957  1  -1.233678  0  -0.559607  -0.736256  0  2.026352  0
