# generated using pymatgen
data_UAg2H18C34(N2O5)2
_symmetry_space_group_name_H-M   'P 1'
_cell_length_a   7.30146731
_cell_length_b   11.78869550
_cell_length_c   18.41858049
_cell_angle_alpha   106.15572487
_cell_angle_beta   89.99857260
_cell_angle_gamma   108.05590005
_symmetry_Int_Tables_number   1
_chemical_formula_structural   UAg2H18C34(N2O5)2
_chemical_formula_sum   'U2 Ag4 H36 C68 N8 O20'
_cell_volume   1441.31100810
_cell_formula_units_Z   2
loop_
 _symmetry_equiv_pos_site_id
 _symmetry_equiv_pos_as_xyz
  1  'x, y, z'
loop_
 _atom_site_type_symbol
 _atom_site_label
 _atom_site_symmetry_multiplicity
 _atom_site_fract_x
 _atom_site_fract_y
 _atom_site_fract_z
 _atom_site_occupancy
 _atom_site_hle17_bader_spin_density
 _atom_site_hle17_ddec_charge
 _atom_site_hle17_ddec_spin_density
 _atom_site_hle17_ddec_sum_bond_order
 _atom_site_hle17_magmom
 _atom_site_hse06_10hf_bader_spin_density
 _atom_site_hse06_10hf_ddec_charge
 _atom_site_hse06_10hf_ddec_spin_density
 _atom_site_hse06_10hf_ddec_sum_bond_order
 _atom_site_hse06_10hf_magmom
 _atom_site_hse06_bader_spin_density
 _atom_site_hse06_ddec_charge
 _atom_site_hse06_ddec_spin_density
 _atom_site_hse06_ddec_sum_bond_order
 _atom_site_hse06_magmom
 _atom_site_pbe_bader_spin_density
 _atom_site_pbe_cm5_charge
 _atom_site_pbe_ddec_charge
 _atom_site_pbe_ddec_spin_density
 _atom_site_pbe_ddec_sum_bond_order
 _atom_site_pbe_magmom
U  U0  1  0.51779936  0.00003185  0.74998668  1  0  2.435738  0  4.060009  0  0  2.498988  0  4.699795  0  0  2.609907  0  4.665012  0  0  2.102496  2.422486  0  4.72243  0
U  U1  1  0.48219806  0.99996725  0.25001448  1  0  2.435656  0  4.06021  0  0  2.498923  0  4.700001  0  0  2.609808  0  4.665262  0  0  2.102542  2.42243  0  4.722628  0
Ag  Ag2  1  0.22422591  0.21255263  0.84186049  1  0  0.623024  0  1.271135  0  0  0.485234  0  1.688652  0  0  0.514662  0  1.643034  0  0  0.487576  0.467304  0  1.71941  0
Ag  Ag3  1  0.01194341  0.78739029  0.65827633  1  0  0.623414  0  1.27056  0  0  0.485252  0  1.68767  0  0  0.514814  0  1.642039  0  0  0.487159  0.467205  0  1.718453  0
Ag  Ag4  1  0.77577077  0.78744677  0.15814041  1  0  0.623022  0  1.271114  0  0  0.485236  0  1.688628  0  0  0.514664  0  1.64301  0  0  0.487589  0.46731  0  1.719384  0
Ag  Ag5  1  0.98805143  0.21260817  0.34172441  1  0  0.623398  0  1.270559  0  0  0.485274  0  1.68761  0  0  0.514834  0  1.641979  0  0  0.487141  0.467221  0  1.71839  0
H  H6  1  0.05542228  0.23074579  0.01216554  1  0  0.062106  0  0.977565  0  0  0.072058  0  1.043916  0  0  0.071945  0  1.045696  0  0  0.106934  0.072122  0  1.042702  0
H  H7  1  0.82440245  0.76907135  0.48796035  1  0  0.062458  0  0.976249  0  0  0.072138  0  1.042939  0  0  0.072123  0  1.044618  0  0  0.106922  0.072143  0  1.041793  0
H  H8  1  0.94458177  0.76926014  0.98783762  1  0  0.062064  0  0.977562  0  0  0.072027  0  1.043897  0  0  0.071915  0  1.045678  0  0  0.106944  0.072097  0  1.042679  0
H  H9  1  0.17560154  0.23092898  0.51204017  1  0  0.062449  0  0.976257  0  0  0.072122  0  1.042963  0  0  0.072108  0  1.044642  0  0  0.106913  0.072126  0  1.041812  0
H  H10  1  0.05082157  0.39198928  0.13140721  1  0  0.098874  0  0.968504  0  0  0.109028  0  1.031498  0  0  0.1115  0  1.031641  0  0  0.104233  0.107287  0  1.031468  0
H  H11  1  0.65893529  0.60774710  0.36863885  1  0  0.099031  0  0.967223  0  0  0.109285  0  1.03015  0  0  0.111752  0  1.030294  0  0  0.104373  0.107552  0  1.030122  0
H  H12  1  0.94918298  0.60802038  0.86859498  1  0  0.098923  0  0.968505  0  0  0.109113  0  1.031472  0  0  0.111588  0  1.031611  0  0  0.104295  0.107373  0  1.031445  0
H  H13  1  0.34106779  0.39225416  0.63136185  1  0  0.098982  0  0.967265  0  0  0.109235  0  1.030198  0  0  0.111701  0  1.030343  0  0  0.104358  0.107504  0  1.030168  0
H  H14  1  0.19258035  0.62039452  0.13709722  1  0  0.112016  0  0.938803  0  0  0.126024  0  0.995999  0  0  0.128506  0  0.993698  0  0  0.113792  0.124285  0  0.997711  0
H  H15  1  0.57213603  0.37937887  0.36297799  1  0  0.112124  0  0.937898  0  0  0.126197  0  0.995004  0  0  0.128681  0  0.992714  0  0  0.113852  0.124458  0  0.996723  0
H  H16  1  0.80742600  0.37961329  0.86290030  1  0  0.111938  0  0.938786  0  0  0.12596  0  0.995978  0  0  0.12845  0  0.993678  0  0  0.11377  0.124217  0  0.997693  0
H  H17  1  0.42786431  0.62062239  0.63702216  1  0  0.112076  0  0.937934  0  0  0.126152  0  0.995033  0  0  0.128636  0  0.992742  0  0  0.113842  0.124415  0  0.996751  0
H  H18  1  0.59781868  0.75460462  0.82751582  1  0  0.110272  0  0.950513  0  0  0.120937  0  1.009777  0  0  0.123301  0  1.008028  0  0  0.115975  0.119274  0  1.011045  0
H  H19  1  0.84331663  0.24526431  0.67255011  1  0  0.109687  0  0.95072  0  0  0.12036  0  1.009932  0  0  0.122832  0  1.008042  0  0  0.115883  0.118652  0  1.011271  0
H  H20  1  0.40219213  0.24539292  0.17248095  1  0  0.110264  0  0.950596  0  0  0.120923  0  1.009869  0  0  0.123286  0  1.008121  0  0  0.115995  0.119261  0  1.011142  0
H  H21  1  0.15668322  0.75473322  0.32744938  1  0  0.109709  0  0.950736  0  0  0.120386  0  1.009945  0  0  0.122854  0  1.00806  0  0  0.115898  0.118679  0  1.011287  0
H  H22  1  0.63346823  0.57884014  0.72249139  1  0  0.105698  0  0.959324  0  0  0.115797  0  1.019276  0  0  0.118621  0  1.019019  0  0  0.108198  0.113783  0  1.01959  0
H  H23  1  0.05442308  0.42110097  0.77764609  1  0  0.105586  0  0.958679  0  0  0.115663  0  1.018733  0  0  0.118481  0  1.018503  0  0  0.108043  0.113651  0  1.01903  0
H  H24  1  0.36654024  0.42115273  0.27750726  1  0  0.105791  0  0.959411  0  0  0.115888  0  1.019343  0  0  0.118712  0  1.019086  0  0  0.108273  0.113874  0  1.019654  0
H  H25  1  0.94557356  0.57889562  0.22235431  1  0  0.105584  0  0.958689  0  0  0.115691  0  1.01871  0  0  0.118504  0  1.018477  0  0  0.108045  0.113674  0  1.019008  0
H  H26  1  0.48933530  0.35844594  0.73101836  1  0  0.084426  0  0.93461  0  0  0.093367  0  0.997607  0  0  0.095777  0  0.9954  0  0  0.11822  0.091661  0  0.999281  0
H  H27  1  0.13037731  0.64149120  0.76917902  1  0  0.084402  0  0.935507  0  0  0.093671  0  0.998159  0  0  0.096068  0  0.995966  0  0  0.118378  0.091978  0  0.999791  0
H  H28  1  0.51067002  0.64155159  0.26898275  1  0  0.084389  0  0.934606  0  0  0.093344  0  0.99759  0  0  0.095753  0  0.995385  0  0  0.118188  0.091639  0  0.999258  0
H  H29  1  0.86961842  0.35850632  0.23082264  1  0  0.08438  0  0.935527  0  0  0.093646  0  0.998183  0  0  0.09605  0  0.995971  0  0  0.118376  0.091955  0  0.999813  0
H  H30  1  0.35035262  0.77700766  0.07151710  1  0  0.10419  0  0.964207  0  0  0.113439  0  1.028637  0  0  0.115832  0  1.027528  0  0  0.111635  0.111795  0  1.029495  0
H  H31  1  0.57355592  0.22277292  0.42851135  1  0  0.105709  0  0.963329  0  0  0.114105  0  1.028405  0  0  0.116581  0  1.027203  0  0  0.112099  0.112406  0  1.029342  0
H  H32  1  0.64965281  0.22299828  0.92847791  1  0  0.10419  0  0.964201  0  0  0.113377  0  1.028719  0  0  0.115774  0  1.027611  0  0  0.111649  0.111733  0  1.029579  0
H  H33  1  0.42644396  0.77722742  0.57148754  1  0  0.105744  0  0.96331  0  0  0.114121  0  1.028408  0  0  0.116598  0  1.027203  0  0  0.112095  0.112423  0  1.029342  0
H  H34  1  0.49065880  0.82680490  0.95661909  1  0  0.103214  0  0.979242  0  0  0.114004  0  1.042051  0  0  0.116383  0  1.04164  0  0  0.103838  0.112347  0  1.04232  0
H  H35  1  0.66390447  0.17302123  0.54344497  1  0  0.102844  0  0.979785  0  0  0.113787  0  1.042505  0  0  0.116147  0  1.042093  0  0  0.103794  0.112124  0  1.042815  0
H  H36  1  0.50934746  0.17319451  0.04337476  1  0  0.103171  0  0.979236  0  0  0.113961  0  1.042079  0  0  0.116339  0  1.041669  0  0  0.103814  0.112303  0  1.042351  0
H  H37  1  0.33609675  0.82697631  0.45655342  1  0  0.102876  0  0.979752  0  0  0.113819  0  1.042453  0  0  0.116164  0  1.042078  0  0  0.103791  0.112159  0  1.04276  0
H  H38  1  0.31514808  0.96565207  0.97265353  1  0  0.122447  0  0.946665  0  0  0.130509  0  1.010333  0  0  0.134937  0  1.00688  0  0  0.113092  0.127247  0  1.013051  0
H  H39  1  0.34938211  0.03386450  0.52724524  1  0  0.122183  0  0.948667  0  0  0.13092  0  1.011622  0  0  0.135335  0  1.008119  0  0  0.11324  0.127714  0  1.01427  0
H  H40  1  0.68484676  0.03434639  0.02734612  1  0  0.122478  0  0.946681  0  0  0.130529  0  1.010356  0  0  0.134954  0  1.006909  0  0  0.113106  0.127267  0  1.013075  0
H  H41  1  0.65060902  0.96612929  0.47275521  1  0  0.122135  0  0.948686  0  0  0.130878  0  1.011637  0  0  0.135295  0  1.008129  0  0  0.113208  0.127657  0  1.014319  0
C  C42  1  0.11784861  0.32932679  0.01627683  1  0  0.141549  0  3.723  0  0  0.112464  0  3.97649  0  0  0.120147  0  3.995384  0  0  0.049842  0.107502  0  3.963364  0
C  C43  1  0.78858200  0.67047721  0.48378631  1  0  0.1404  0  3.721547  0  0  0.111593  0  3.975222  0  0  0.11921  0  3.994088  0  0  0.04937  0.106659  0  3.962149  0
C  C44  1  0.88215450  0.67067727  0.98372545  1  0  0.141489  0  3.722962  0  0  0.112405  0  3.976478  0  0  0.120086  0  3.995373  0  0  0.049764  0.107439  0  3.963357  0
C  C45  1  0.21142198  0.32952312  0.51621422  1  0  0.140402  0  3.721632  0  0  0.111598  0  3.975295  0  0  0.119214  0  3.994161  0  0  0.049386  0.106665  0  3.962207  0
C  C46  1  0.11409872  0.42106844  0.08341045  1  0  -0.117552  0  3.746916  0  0  -0.132533  0  4.003484  0  0  -0.139422  0  4.026138  0  0  -0.087064  -0.128047  0  3.988131  0
C  C47  1  0.69323306  0.57870355  0.41663877  1  0  -0.117296  0  3.746157  0  0  -0.132471  0  4.002649  0  0  -0.139334  0  4.02529  0  0  -0.086641  -0.128009  0  3.987343  0
C  C48  1  0.88590583  0.57894122  0.91659011  1  0  -0.117685  0  3.747029  0  0  -0.132712  0  4.003638  0  0  -0.139603  0  4.026295  0  0  -0.087091  -0.128223  0  3.988283  0
C  C49  1  0.30677092  0.42129678  0.58336175  1  0  -0.11727  0  3.746223  0  0  -0.132445  0  4.002711  0  0  -0.139309  0  4.025353  0  0  -0.086619  -0.127981  0  3.987398  0
C  C50  1  0.19114176  0.54526722  0.08638746  1  0  -0.042542  0  3.666603  0  0  -0.071517  0  3.920237  0  0  -0.068923  0  3.938476  0  0  -0.063988  -0.072973  0  3.907578  0
C  C51  1  0.64599881  0.45451514  0.41366401  1  0  -0.042607  0  3.665109  0  0  -0.071515  0  3.918616  0  0  -0.068981  0  3.936938  0  0  -0.0644  -0.073005  0  3.906015  0
C  C52  1  0.80886460  0.45474058  0.91361169  1  0  -0.042185  0  3.666305  0  0  -0.071165  0  3.919863  0  0  -0.068582  0  3.93811  0  0  -0.063857  -0.072629  0  3.907244  0
C  C53  1  0.35400428  0.54548613  0.58633614  1  0  -0.042481  0  3.665246  0  0  -0.071365  0  3.918753  0  0  -0.06883  0  3.937074  0  0  -0.06434  -0.072854  0  3.906152  0
C  C54  1  0.27425132  0.57651820  0.02240325  1  0  0.029118  0  3.781519  0  0  0.045697  0  4.01226  0  0  0.043131  0  4.036372  0  0  -0.0005  0.047311  0  3.995969  0
C  C55  1  0.69784132  0.42328007  0.47765365  1  0  0.028467  0  3.780796  0  0  0.045299  0  4.011021  0  0  0.042744  0  4.035149  0  0  -0.001099  0.046909  0  3.994711  0
C  C56  1  0.72575317  0.42348587  0.97759469  1  0  0.028938  0  3.781536  0  0  0.045567  0  4.012198  0  0  0.043002  0  4.036314  0  0  -0.0006  0.04717  0  3.995906  0
C  C57  1  0.30215993  0.57672026  0.52234688  1  0  0.028543  0  3.780738  0  0  0.045304  0  4.011058  0  0  0.042749  0  4.035184  0  0  -0.00109  0.04691  0  3.994759  0
C  C58  1  0.27586087  0.47728841  0.95762563  1  0  0.123524  0  3.75422  0  0  0.118545  0  3.990573  0  0  0.122759  0  4.012665  0  0  0.111501  0.115574  0  3.975829  0
C  C59  1  0.79876595  0.52254774  0.54241565  1  0  0.124965  0  3.752024  0  0  0.119738  0  3.988522  0  0  0.123971  0  4.010574  0  0  0.111888  0.116792  0  3.973742  0
C  C60  1  0.72414221  0.52271286  0.04237398  1  0  0.123508  0  3.754311  0  0  0.118551  0  3.990627  0  0  0.122765  0  4.012716  0  0  0.111524  0.115593  0  3.975866  0
C  C61  1  0.20123894  0.47745166  0.45758471  1  0  0.12488  0  3.751929  0  0  0.119683  0  3.98847  0  0  0.123916  0  4.010521  0  0  0.111841  0.116733  0  3.973696  0
C  C62  1  0.36921661  0.50694639  0.89274180  1  0  0.122195  0  3.761421  0  0  0.115729  0  3.998009  0  0  0.12002  0  4.019948  0  0  0.114477  0.112797  0  3.983324  0
C  C63  1  0.86221086  0.49289929  0.60734709  1  0  0.12088  0  3.760539  0  0  0.114892  0  3.997301  0  0  0.119168  0  4.019267  0  0  0.114637  0.11199  0  3.982547  0
C  C64  1  0.63078874  0.49305394  0.10725710  1  0  0.122234  0  3.761447  0  0  0.115694  0  3.998073  0  0  0.119985  0  4.020012  0  0  0.114458  0.112763  0  3.983383  0
C  C65  1  0.13779173  0.50709825  0.39265239  1  0  0.120866  0  3.760318  0  0  0.114833  0  3.997163  0  0  0.119109  0  4.019129  0  0  0.114619  0.111936  0  3.982409  0
C  C66  1  0.44563290  0.63398539  0.89339335  1  0  0.020274  0  3.793298  0  0  0.040542  0  4.017761  0  0  0.037789  0  4.042998  0  0  -0.00276  0.042235  0  4.00062  0
C  C67  1  0.81148088  0.36584873  0.60671615  1  0  0.020887  0  3.7909  0  0  0.039463  0  4.017452  0  0  0.036686  0  4.042728  0  0  -0.003048  0.041176  0  4.000269  0
C  C68  1  0.55437246  0.36601495  0.10660392  1  0  0.020216  0  3.79326  0  0  0.04063  0  4.017598  0  0  0.037874  0  4.042842  0  0  -0.002726  0.042321  0  4.000466  0
C  C69  1  0.18852033  0.63414880  0.39328388  1  0  0.020923  0  3.790748  0  0  0.039478  0  4.01736  0  0  0.036703  0  4.042631  0  0  -0.003049  0.04119  0  4.00019  0
C  C70  1  0.53904708  0.65887564  0.82964427  1  0  -0.03292  0  3.659651  0  0  -0.055363  0  3.901516  0  0  -0.052751  0  3.918943  0  0  -0.05454  -0.056717  0  3.889333  0
C  C71  1  0.88009525  0.34099575  0.67044936  1  0  -0.033092  0  3.658833  0  0  -0.054808  0  3.900725  0  0  -0.052317  0  3.918244  0  0  -0.055129  -0.056108  0  3.888513  0
C  C72  1  0.46096096  0.34111910  0.17035200  1  0  -0.032985  0  3.659621  0  0  -0.055453  0  3.901435  0  0  -0.052843  0  3.918869  0  0  -0.054597  -0.056809  0  3.889269  0
C  C73  1  0.11990597  0.65900178  0.32955066  1  0  -0.033084  0  3.658822  0  0  -0.054799  0  3.900729  0  0  -0.052304  0  3.918247  0  0  -0.055133  -0.0561  0  3.888521  0
C  C74  1  0.55715328  0.56127573  0.77103769  1  0  -0.116982  0  3.729168  0  0  -0.12998  0  3.984233  0  0  -0.136921  0  4.006207  0  0  -0.082921  -0.125423  0  3.969253  0
C  C75  1  0.99569267  0.43863471  0.72909537  1  0  -0.116135  0  3.727436  0  0  -0.129051  0  3.982186  0  0  -0.136025  0  4.004263  0  0  -0.081514  -0.124458  0  3.967137  0
C  C76  1  0.44284838  0.43871994  0.22896255  1  0  -0.116989  0  3.729098  0  0  -0.129989  0  3.984162  0  0  -0.136931  0  4.006137  0  0  -0.082957  -0.12543  0  3.969185  0
C  C77  1  0.00430671  0.56136189  0.27090558  1  0  -0.116191  0  3.727571  0  0  -0.12912  0  3.982301  0  0  -0.136087  0  4.00437  0  0  -0.081513  -0.124523  0  3.967246  0
C  C78  1  0.47808576  0.43876906  0.77551054  1  0  0.135099  0  3.707973  0  0  0.103248  0  3.967298  0  0  0.11092  0  3.984098  0  0  0.054925  0.098283  0  3.955671  0
C  C79  1  0.03899837  0.56112741  0.72463881  1  0  0.135481  0  3.709278  0  0  0.103313  0  3.968171  0  0  0.110955  0  3.98503  0  0  0.05488  0.09839  0  3.956476  0
C  C80  1  0.52191954  0.56122567  0.22448844  1  0  0.135069  0  3.708092  0  0  0.103228  0  3.967396  0  0  0.110899  0  3.984199  0  0  0.054937  0.098257  0  3.955767  0
C  C81  1  0.96099964  0.43886918  0.27536213  1  0  0.13556  0  3.709417  0  0  0.103391  0  3.968291  0  0  0.111036  0  3.985151  0  0  0.054925  0.098467  0  3.956592  0
C  C82  1  0.35387827  0.70311421  0.02105899  1  0  -0.096784  0  3.734648  0  0  -0.120158  0  3.994078  0  0  -0.122434  0  4.015937  0  0  -0.081384  -0.118583  0  3.979186  0
C  C83  1  0.65077657  0.29669279  0.47901179  1  0  -0.097983  0  3.734411  0  0  -0.120568  0  3.993829  0  0  -0.122962  0  4.015717  0  0  -0.080865  -0.118952  0  3.978986  0
C  C84  1  0.64612759  0.29688986  0.97893786  1  0  -0.096752  0  3.73467  0  0  -0.120091  0  3.9941  0  0  -0.122365  0  4.01595  0  0  -0.081352  -0.118514  0  3.979215  0
C  C85  1  0.34922558  0.70330661  0.52098803  1  0  -0.098068  0  3.734213  0  0  -0.120613  0  3.993656  0  0  -0.123004  0  4.015537  0  0  -0.08087  -0.118987  0  3.978813  0
C  C86  1  0.43244382  0.73070738  0.95831512  1  0  -0.099585  0  3.729921  0  0  -0.121979  0  3.979557  0  0  -0.126179  0  4.004076  0  0  -0.085228  -0.118933  0  3.962736  0
C  C87  1  0.70165773  0.26911857  0.54177290  1  0  -0.097951  0  3.728406  0  0  -0.11989  0  3.978023  0  0  -0.124093  0  4.002653  0  0  -0.084487  -0.116831  0  3.961162  0
C  C88  1  0.56756338  0.26929390  0.04168178  1  0  -0.099494  0  3.72997  0  0  -0.121957  0  3.979569  0  0  -0.126157  0  4.004091  0  0  -0.085224  -0.11891  0  3.962748  0
C  C89  1  0.29834075  0.73087896  0.45822604  1  0  -0.097991  0  3.728286  0  0  -0.119894  0  3.977885  0  0  -0.124102  0  4.002512  0  0  -0.084473  -0.116845  0  3.961036  0
C  C90  1  0.05492811  0.97759301  0.92513131  1  0  -0.046758  0  3.690803  0  0  -0.036578  0  3.929584  0  0  -0.037778  0  3.943965  0  0  -0.001359  -0.036349  0  3.920563  0
C  C91  1  0.07740679  0.02240643  0.57485761  1  0  -0.04623  0  3.692157  0  0  -0.035776  0  3.930609  0  0  -0.036988  0  3.944954  0  0  -0.001177  -0.035628  0  3.921722  0
C  C92  1  0.94506673  0.02240545  0.07486780  1  0  -0.04671  0  3.691005  0  0  -0.036531  0  3.929772  0  0  -0.03773  0  3.944154  0  0  -0.0013  -0.036308  0  3.920756  0
C  C93  1  0.92258801  0.97758923  0.42514317  1  0  -0.046329  0  3.692156  0  0  -0.035875  0  3.930687  0  0  -0.037142  0  3.945109  0  0  -0.001215  -0.03564  0  3.921685  0
C  C94  1  0.87680253  0.99731575  0.94117106  1  0  -0.064128  0  3.738407  0  0  -0.050758  0  3.975561  0  0  -0.054978  0  3.992675  0  0  -0.007844  -0.048173  0  3.964499  0
C  C95  1  0.87958544  0.00288912  0.55886976  1  0  -0.064706  0  3.74009  0  0  -0.051517  0  3.97715  0  0  -0.055753  0  3.994227  0  0  -0.008451  -0.048903  0  3.966144  0
C  C96  1  0.12318956  0.00268271  0.05883021  1  0  -0.064214  0  3.738403  0  0  -0.050858  0  3.975584  0  0  -0.05508  0  3.992701  0  0  -0.007893  -0.048282  0  3.964536  0
C  C97  1  0.12040797  0.99710374  0.44113160  1  0  -0.064502  0  3.739814  0  0  -0.051326  0  3.976891  0  0  -0.055548  0  3.993985  0  0  -0.008408  -0.048741  0  3.965869  0
C  C98  1  0.17771666  0.98189723  0.98465880  1  0  -0.082145  0  3.673405  0  0  -0.114272  0  3.925269  0  0  -0.113514  0  3.940357  0  0  -0.072991  -0.114777  0  3.915491  0
C  C99  1  0.19578036  0.01789613  0.51529746  1  0  -0.082434  0  3.677271  0  0  -0.115565  0  3.92892  0  0  -0.114761  0  3.944098  0  0  -0.073175  -0.116039  0  3.919088  0
C  C100  1  0.82227590  0.01810217  0.01534210  1  0  -0.082276  0  3.673677  0  0  -0.114406  0  3.925556  0  0  -0.113649  0  3.940646  0  0  -0.073046  -0.114913  0  3.91578  0
C  C101  1  0.80421441  0.98209673  0.48470281  1  0  -0.082259  0  3.677368  0  0  -0.11539  0  3.929011  0  0  -0.114571  0  3.944211  0  0  -0.073107  -0.115894  0  3.91914  0
C  C102  1  0.10991563  0.93905024  0.84507502  1  0  0.689838  0  3.857271  0  0  0.648675  0  4.144309  0  0  0.685615  0  4.133362  0  0  0.228573  0.623325  0  4.151226  0
C  C103  1  0.17107981  0.06088623  0.65489862  1  0  0.689862  0  3.856876  0  0  0.64831  0  4.144279  0  0  0.685283  0  4.133279  0  0  0.228885  0.622985  0  4.1512  0
C  C104  1  0.89008014  0.06095009  0.15492442  1  0  0.689757  0  3.857577  0  0  0.64865  0  4.144534  0  0  0.685587  0  4.133596  0  0  0.228524  0.623312  0  4.15144  0
C  C105  1  0.82891276  0.93911317  0.34510228  1  0  0.689907  0  3.856683  0  0  0.648245  0  4.144296  0  0  0.685232  0  4.1333  0  0  0.228881  0.622899  0  4.151211  0
C  C106  1  0.75157882  0.00465985  0.88010961  1  0  0.616083  0  3.935998  0  0  0.57362  0  4.242047  0  0  0.608995  0  4.235489  0  0  0.200233  0.54954  0  4.245866  0
C  C107  1  0.74700443  0.99562640  0.61991287  1  0  0.616206  0  3.938415  0  0  0.574068  0  4.243822  0  0  0.609479  0  4.237204  0  0  0.199901  0.549951  0  4.247684  0
C  C108  1  0.24841652  0.99534234  0.11989179  1  0  0.616074  0  3.936253  0  0  0.573605  0  4.242306  0  0  0.608983  0  4.235744  0  0  0.200208  0.549521  0  4.246135  0
C  C109  1  0.25299178  0.00437207  0.38008787  1  0  0.616193  0  3.938331  0  0  0.574063  0  4.243712  0  0  0.609477  0  4.237085  0  0  0.199931  0.549945  0  4.247582  0
N  N110  1  0.19515818  0.35569329  0.95512474  1  0  -0.346138  0  3.27751  0  0  -0.282723  0  3.563288  0  0  -0.299904  0  3.577942  0  0  -0.326167  -0.271016  0  3.553076  0
N  N111  1  0.83973341  0.64412219  0.54491685  1  0  -0.346216  0  3.275252  0  0  -0.282833  0  3.561004  0  0  -0.299988  0  3.575636  0  0  -0.326214  -0.27114  0  3.550801  0
N  N112  1  0.80484447  0.64430984  0.04487575  1  0  -0.34613  0  3.277453  0  0  -0.282738  0  3.563236  0  0  -0.299918  0  3.577892  0  0  -0.326225  -0.271033  0  3.553027  0
N  N113  1  0.16027148  0.35587721  0.45508351  1  0  -0.346203  0  3.275254  0  0  -0.28283  0  3.56101  0  0  -0.299982  0  3.575638  0  0  -0.326219  -0.271131  0  3.550793  0
N  N114  1  0.38547216  0.41268069  0.83402643  1  0  -0.334937  0  3.292904  0  0  -0.269302  0  3.572915  0  0  -0.285895  0  3.587124  0  0  -0.327584  -0.257915  0  3.562967  0
N  N115  1  0.97262179  0.58717350  0.66609103  1  0  -0.335833  0  3.292571  0  0  -0.269554  0  3.5717  0  0  -0.286183  0  3.585964  0  0  -0.328  -0.258133  0  3.561685  0
N  N116  1  0.61452999  0.58731870  0.16597501  1  0  -0.334883  0  3.292976  0  0  -0.26927  0  3.57303  0  0  -0.285862  0  3.587238  0  0  -0.327549  -0.257881  0  3.563078  0
N  N117  1  0.02738036  0.41282590  0.33390933  1  0  -0.33587  0  3.292598  0  0  -0.269573  0  3.571736  0  0  -0.286204  0  3.586002  0  0  -0.328042  -0.258154  0  3.561718  0
O  O118  1  0.25994056  0.01890513  0.82872087  1  0  -0.704917  0  2.213224  0  0  -0.664637  0  2.514408  0  0  -0.702224  0  2.505105  0  0  -0.387415  -0.638109  0  2.519641  0
O  O119  1  0.24117405  0.98093631  0.67115160  1  0  -0.705997  0  2.215242  0  0  -0.664985  0  2.515641  0  0  -0.702583  0  2.506288  0  0  -0.387766  -0.638485  0  2.520977  0
O  O120  1  0.74005521  0.98109520  0.17128020  1  0  -0.704789  0  2.213209  0  0  -0.664515  0  2.514335  0  0  -0.702095  0  2.505029  0  0  -0.387352  -0.637993  0  2.519577  0
O  O121  1  0.75882539  0.01906588  0.32885034  1  0  -0.706022  0  2.215245  0  0  -0.664992  0  2.51573  0  0  -0.702589  0  2.506379  0  0  -0.387794  -0.638494  0  2.52107  0
O  O122  1  0.01779540  0.83367137  0.80275521  1  0  -0.564527  0  1.949066  0  0  -0.518912  0  2.190506  0  0  -0.545661  0  2.180392  0  0  -0.285639  -0.499716  0  2.196562  0
O  O123  1  0.18440891  0.16618822  0.69728054  1  0  -0.564044  0  1.948398  0  0  -0.518452  0  2.189814  0  0  -0.545165  0  2.179735  0  0  -0.286121  -0.499291  0  2.195835  0
O  O124  1  0.98219486  0.16632616  0.19724372  1  0  -0.564548  0  1.949282  0  0  -0.518959  0  2.190681  0  0  -0.545709  0  2.180569  0  0  -0.28566  -0.499766  0  2.196737  0
O  O125  1  0.81558456  0.83381025  0.30271911  1  0  -0.564102  0  1.948307  0  0  -0.518467  0  2.189791  0  0  -0.54518  0  2.179708  0  0  -0.286129  -0.499306  0  2.195821  0
O  O126  1  0.82983278  0.03870331  0.82429496  1  0  -0.621637  0  2.035981  0  0  -0.593684  0  2.301762  0  0  -0.624998  0  2.295873  0  0  -0.331487  -0.572184  0  2.305231  0
O  O127  1  0.79129706  0.96185128  0.67584060  1  0  -0.621177  0  2.036855  0  0  -0.593211  0  2.302016  0  0  -0.62458  0  2.296151  0  0  -0.330959  -0.571688  0  2.305557  0
O  O128  1  0.17016305  0.96130262  0.17570602  1  0  -0.621573  0  2.036034  0  0  -0.593616  0  2.30181  0  0  -0.624929  0  2.295925  0  0  -0.331426  -0.572123  0  2.305305  0
O  O129  1  0.20869550  0.03814812  0.32416139  1  0  -0.621157  0  2.036824  0  0  -0.593236  0  2.302004  0  0  -0.624601  0  2.296138  0  0  -0.330962  -0.571712  0  2.305546  0
O  O130  1  0.56904088  0.97846314  0.88323278  1  0  -0.625542  0  1.970933  0  0  -0.598755  0  2.221662  0  0  -0.628963  0  2.218065  0  0  -0.331694  -0.577643  0  2.223253  0
O  O131  1  0.59051251  0.02155329  0.61668830  1  0  -0.625639  0  1.972677  0  0  -0.599053  0  2.223468  0  0  -0.629285  0  2.219865  0  0  -0.331534  -0.577943  0  2.225123  0
O  O132  1  0.43095262  0.02153812  0.11676737  1  0  -0.625542  0  1.971064  0  0  -0.598789  0  2.221852  0  0  -0.628986  0  2.218238  0  0  -0.331702  -0.577666  0  2.223438  0
O  O133  1  0.40948831  0.97844890  0.38331310  1  0  -0.62574  0  1.972808  0  0  -0.599053  0  2.223484  0  0  -0.629282  0  2.21988  0  0  -0.331543  -0.577944  0  2.225149  0
O  O134  1  0.60184796  0.16936864  0.77710656  1  0  -0.724428  0  1.568256  0  0  -0.727388  0  1.869708  0  0  -0.74536  0  1.854244  0  0  -0.763937  -0.718474  0  1.8813  0
O  O135  1  0.43264749  0.83065427  0.72282771  1  0  -0.72541  0  1.567461  0  0  -0.728165  0  1.868435  0  0  -0.746147  0  1.85293  0  0  -0.76377  -0.719234  0  1.88004  0
O  O136  1  0.39815338  0.83064009  0.22289492  1  0  -0.724346  0  1.56853  0  0  -0.727317  0  1.870026  0  0  -0.745273  0  1.854561  0  0  -0.763992  -0.718401  0  1.881605  0
O  O137  1  0.56735241  0.16934886  0.27717440  1  0  -0.725404  0  1.567369  0  0  -0.72819  0  1.868359  0  0  -0.746165  0  1.852866  0  0  -0.763764  -0.719263  0  1.879967  0
