# generated using pymatgen
data_Cu3As2H16C16Br3(NO)2
_symmetry_space_group_name_H-M   'P 1'
_cell_length_a   9.92224358
_cell_length_b   11.38074297
_cell_length_c   11.61327068
_cell_angle_alpha   67.95326549
_cell_angle_beta   78.74783651
_cell_angle_gamma   67.91458894
_symmetry_Int_Tables_number   1
_chemical_formula_structural   Cu3As2H16C16Br3(NO)2
_chemical_formula_sum   'Cu6 As4 H32 C32 Br6 N4 O4'
_cell_volume   1124.09080764
_cell_formula_units_Z   2
loop_
 _symmetry_equiv_pos_site_id
 _symmetry_equiv_pos_as_xyz
  1  'x, y, z'
loop_
 _atom_site_type_symbol
 _atom_site_label
 _atom_site_symmetry_multiplicity
 _atom_site_fract_x
 _atom_site_fract_y
 _atom_site_fract_z
 _atom_site_occupancy
 _atom_site_hle17_bader_spin_density
 _atom_site_hle17_ddec_charge
 _atom_site_hle17_ddec_spin_density
 _atom_site_hle17_ddec_sum_bond_order
 _atom_site_hle17_magmom
 _atom_site_hse06_10hf_bader_spin_density
 _atom_site_hse06_10hf_ddec_charge
 _atom_site_hse06_10hf_ddec_spin_density
 _atom_site_hse06_10hf_ddec_sum_bond_order
 _atom_site_hse06_10hf_magmom
 _atom_site_hse06_bader_spin_density
 _atom_site_hse06_ddec_charge
 _atom_site_hse06_ddec_spin_density
 _atom_site_hse06_ddec_sum_bond_order
 _atom_site_hse06_magmom
 _atom_site_pbe_bader_spin_density
 _atom_site_pbe_cm5_charge
 _atom_site_pbe_ddec_charge
 _atom_site_pbe_ddec_spin_density
 _atom_site_pbe_ddec_sum_bond_order
 _atom_site_pbe_magmom
Cu  Cu0  1  0.18766202  0.18110217  0.35900602  1  0  0.213145  0  2.402762  0  0  0.125071  0  2.92216  0  0  0.123011  0  2.877228  0  0  0.377625  0.127931  0  2.953573  0
Cu  Cu1  1  0.81234512  0.81889584  0.64099643  1  0  0.213133  0  2.402866  0  0  0.125089  0  2.922296  0  0  0.122986  0  2.877351  0  0  0.377611  0.127904  0  2.953671  0
Cu  Cu2  1  0.91375453  0.33840359  0.24625378  1  0  0.434227  0  2.075791  0  0  0.350365  0  2.581759  0  0  0.363947  0  2.519073  0  0  0.350003  0.341834  0  2.623586  0
Cu  Cu3  1  0.08624314  0.66159538  0.75373863  1  0  0.43419  0  2.075983  0  0  0.350343  0  2.581986  0  0  0.363919  0  2.519261  0  0  0.350005  0.341806  0  2.623766  0
Cu  Cu4  1  0.14652046  0.85394808  0.55337331  1  0  0.153991  0  2.212078  0  0  0.059855  0  2.71795  0  0  0.068892  0  2.665435  0  0  0.243136  0.054993  0  2.753928  0
Cu  Cu5  1  0.85347973  0.14605496  0.44662840  1  0  0.154006  0  2.212063  0  0  0.059849  0  2.717942  0  0  0.068899  0  2.665435  0  0  0.243141  0.054994  0  2.753932  0
As  As6  1  0.42842167  0.04845603  0.32619753  1  0  0.893773  0  3.294411  0  0  0.831482  0  3.811715  0  0  0.870385  0  3.774802  0  0  0.312537  0.800407  0  3.840015  0
As  As7  1  0.57158036  0.95154197  0.67380316  1  0  0.893767  0  3.294381  0  0  0.831429  0  3.81171  0  0  0.870354  0  3.774779  0  0  0.312535  0.800371  0  3.839979  0
As  As8  1  0.38444653  0.82700056  0.58255279  1  0  0.895792  0  3.323702  0  0  0.83524  0  3.848261  0  0  0.87397  0  3.808962  0  0  0.312731  0.808266  0  3.874979  0
As  As9  1  0.61555301  0.17300146  0.41744768  1  0  0.895769  0  3.32376  0  0  0.835236  0  3.848317  0  0  0.873957  0  3.809026  0  0  0.312749  0.808265  0  3.875031  0
H  H10  1  0.39178115  0.96391915  0.16866796  1  0  0.145712  0  0.971032  0  0  0.164851  0  1.028586  0  0  0.166467  0  1.030477  0  0  0.090883  0.163155  0  1.028063  0
H  H11  1  0.60822263  0.03607685  0.83133406  1  0  0.145724  0  0.971024  0  0  0.164858  0  1.028568  0  0  0.166476  0  1.030456  0  0  0.090873  0.163161  0  1.028049  0
H  H12  1  0.58346153  0.91198656  0.18846749  1  0  0.151985  0  0.984335  0  0  0.16989  0  1.041659  0  0  0.171199  0  1.04468  0  0  0.093871  0.168591  0  1.039916  0
H  H13  1  0.41654191  0.08801043  0.81153162  1  0  0.152007  0  0.984341  0  0  0.169892  0  1.041678  0  0  0.171209  0  1.044692  0  0  0.09388  0.168593  0  1.039936  0
H  H14  1  0.48774019  0.08214570  0.09704929  1  0  0.151737  0  0.965316  0  0  0.172176  0  1.01986  0  0  0.174017  0  1.021547  0  0  0.093272  0.170471  0  1.019344  0
H  H15  1  0.51226257  0.91785029  0.90295203  1  0  0.151694  0  0.965304  0  0  0.172149  0  1.019832  0  0  0.173993  0  1.021515  0  0  0.093267  0.170448  0  1.019313  0
H  H16  1  0.53521547  0.59387467  0.57993253  1  0  0.156611  0  0.956409  0  0  0.174999  0  1.0113  0  0  0.178085  0  1.011518  0  0  0.090577  0.172292  0  1.012045  0
H  H17  1  0.46478514  0.40612435  0.42007060  1  0  0.15658  0  0.956456  0  0  0.174979  0  1.011336  0  0  0.178066  0  1.011553  0  0  0.090558  0.172273  0  1.012082  0
H  H18  1  0.63486783  0.65946386  0.64080432  1  0  0.153251  0  0.973778  0  0  0.167426  0  1.039321  0  0  0.171533  0  1.037371  0  0  0.087998  0.164743  0  1.040456  0
H  H19  1  0.36513072  0.34053516  0.35919913  1  0  0.153273  0  0.973769  0  0  0.167445  0  1.039315  0  0  0.171562  0  1.037349  0  0  0.088  0.164764  0  1.040452  0
H  H20  1  0.49333094  0.59659107  0.73594829  1  0  0.142187  0  0.980555  0  0  0.161339  0  1.038533  0  0  0.162049  0  1.042459  0  0  0.089131  0.160755  0  1.036185  0
H  H21  1  0.50666830  0.40340895  0.26405296  1  0  0.142214  0  0.980553  0  0  0.16137  0  1.038529  0  0  0.16208  0  1.042455  0  0  0.089132  0.160779  0  1.036181  0
H  H22  1  0.15854282  0.97124243  0.82184164  1  0  0.104942  0  0.957265  0  0  0.111783  0  1.025236  0  0  0.114547  0  1.0241  0  0  0.101334  0.110589  0  1.024674  0
H  H23  1  0.84146045  0.02876061  0.17815958  1  0  0.104897  0  0.957211  0  0  0.111776  0  1.025155  0  0  0.114524  0  1.024035  0  0  0.101312  0.11058  0  1.024586  0
H  H24  1  0.15372000  0.95837180  0.04236098  1  0  0.086266  0  0.977486  0  0  0.094609  0  1.04219  0  0  0.09652  0  1.043625  0  0  0.095147  0.093178  0  1.041458  0
H  H25  1  0.84628510  0.04162620  0.95764007  1  0  0.086299  0  0.977503  0  0  0.094619  0  1.042233  0  0  0.096531  0  1.043663  0  0  0.095141  0.093188  0  1.041502  0
H  H26  1  0.12970467  0.16201004  0.08887607  1  0  0.083869  0  0.996876  0  0  0.089595  0  1.069869  0  0  0.093112  0  1.067492  0  0  0.083281  0.086922  0  1.071737  0
H  H27  1  0.87029873  0.83798697  0.91112649  1  0  0.083813  0  0.996846  0  0  0.089524  0  1.069864  0  0  0.093035  0  1.067501  0  0  0.083253  0.086853  0  1.071733  0
H  H28  1  0.10455923  0.37833853  0.91852233  1  0  0.092098  0  0.978854  0  0  0.096595  0  1.052523  0  0  0.101033  0  1.048992  0  0  0.087361  0.092942  0  1.056061  0
H  H29  1  0.89544275  0.62165950  0.08148266  1  0  0.092075  0  0.978876  0  0  0.096593  0  1.052545  0  0  0.101029  0  1.049017  0  0  0.087371  0.092942  0  1.05608  0
H  H30  1  0.11428523  0.39221417  0.69796497  1  0  0.106678  0  0.972835  0  0  0.112985  0  1.040081  0  0  0.117116  0  1.037181  0  0  0.094026  0.109982  0  1.042257  0
H  H31  1  0.88571496  0.60778887  0.30203674  1  0  0.106685  0  0.972797  0  0  0.112987  0  1.040047  0  0  0.117119  0  1.037143  0  0  0.094026  0.109987  0  1.042221  0
H  H32  1  0.46825588  0.35189917  0.08167773  1  0  0.102587  0  0.959005  0  0  0.110676  0  1.024763  0  0  0.113563  0  1.024003  0  0  0.10109  0.107854  0  1.026512  0
H  H33  1  0.53173749  0.64810585  0.91831830  1  0  0.102627  0  0.959028  0  0  0.110757  0  1.024756  0  0  0.113632  0  1.024008  0  0  0.101121  0.107941  0  1.0265  0
H  H34  1  0.33231608  0.35119125  0.92510504  1  0  0.09102  0  0.98666  0  0  0.097884  0  1.056148  0  0  0.100583  0  1.055837  0  0  0.095076  0.095906  0  1.056567  0
H  H35  1  0.66768256  0.64880774  0.07489152  1  0  0.090984  0  0.986588  0  0  0.097836  0  1.056111  0  0  0.100542  0  1.055795  0  0  0.095047  0.095852  0  1.056533  0
H  H36  1  0.45813678  0.32217886  0.72470651  1  0  0.097889  0  0.933921  0  0  0.109006  0  0.991091  0  0  0.112171  0  0.989206  0  0  0.104233  0.105737  0  0.99423  0
H  H37  1  0.54186120  0.67781913  0.27529052  1  0  0.097907  0  0.933871  0  0  0.10902  0  0.991063  0  0  0.112193  0  0.989167  0  0  0.104228  0.105736  0  0.994219  0
H  H38  1  0.72279633  0.29345812  0.68177303  1  0  0.099162  0  0.978329  0  0  0.107237  0  1.04319  0  0  0.110641  0  1.042061  0  0  0.088824  0.10475  0  1.043836  0
H  H39  1  0.27720230  0.70654087  0.31822353  1  0  0.099181  0  0.97837  0  0  0.107244  0  1.043242  0  0  0.110646  0  1.042115  0  0  0.088823  0.104759  0  1.04388  0
H  H40  1  0.85892816  0.30028454  0.83650100  1  0  0.09598  0  0.986874  0  0  0.104371  0  1.051848  0  0  0.105975  0  1.05298  0  0  0.100662  0.102791  0  1.05181  0
H  H41  1  0.14106665  0.69971647  0.16349715  1  0  0.095966  0  0.986897  0  0  0.104417  0  1.051797  0  0  0.106022  0  1.052933  0  0  0.100694  0.102837  0  1.051757  0
C  C42  1  0.48000737  0.99505263  0.17790337  1  0  -0.541481  0  3.522219  0  0  -0.593412  0  3.746926  0  0  -0.602731  0  3.75306  0  0  -0.285036  -0.586478  0  3.744268  0
C  C43  1  0.51999568  0.00494537  0.82209716  1  0  -0.541473  0  3.522176  0  0  -0.59338  0  3.746902  0  0  -0.602709  0  3.75302  0  0  -0.285027  -0.586442  0  3.744231  0
C  C44  1  0.52933815  0.64881533  0.64159332  1  0  -0.547179  0  3.547459  0  0  -0.600079  0  3.774998  0  0  -0.610587  0  3.781558  0  0  -0.287686  -0.592244  0  3.771033  0
C  C45  1  0.47066072  0.35118570  0.35840848  1  0  -0.547192  0  3.547557  0  0  -0.600111  0  3.77508  0  0  -0.610623  0  3.781629  0  0  -0.287673  -0.59227  0  3.771103  0
C  C46  1  0.14430761  0.18896980  0.62243381  1  0  0.341981  0  3.669308  0  0  0.315889  0  3.934807  0  0  0.330833  0  3.948247  0  0  0.213924  0.305742  0  3.925377  0
C  C47  1  0.85569092  0.81102923  0.37757222  1  0  0.341927  0  3.669359  0  0  0.315839  0  3.934855  0  0  0.330791  0  3.948288  0  0  0.213851  0.305696  0  3.925418  0
C  C48  1  0.13795621  0.18172641  0.74756111  1  0  0.004582  0  3.880631  0  0  0.031003  0  4.108346  0  0  0.026966  0  4.127915  0  0  -0.000322  0.033693  0  4.095567  0
C  C49  1  0.86204842  0.81827563  0.25244284  1  0  0.004583  0  3.880519  0  0  0.030978  0  4.108276  0  0  0.026922  0  4.127842  0  0  -0.000321  0.033629  0  4.09553  0
C  C50  1  0.14758267  0.05908245  0.84442720  1  0  -0.073094  0  3.70039  0  0  -0.09903  0  3.949001  0  0  -0.098083  0  3.967597  0  0  -0.075364  -0.099457  0  3.935916  0
C  C51  1  0.85242036  0.94091556  0.15557591  1  0  -0.072975  0  3.700224  0  0  -0.098936  0  3.948818  0  0  -0.097961  0  3.967416  0  0  -0.075329  -0.099343  0  3.935724  0
C  C52  1  0.14544912  0.05272828  0.96674217  1  0  -0.073523  0  3.763294  0  0  -0.081581  0  4.007738  0  0  -0.086129  0  4.030462  0  0  -0.08972  -0.078531  0  3.992735  0
C  C53  1  0.85455626  0.94727175  0.03326069  1  0  -0.073661  0  3.763314  0  0  -0.081714  0  4.007764  0  0  -0.086254  0  4.030476  0  0  -0.089711  -0.078655  0  3.992757  0
C  C54  1  0.13234114  0.16689917  0.99297498  1  0  -0.04374  0  3.723028  0  0  -0.058703  0  3.96468  0  0  -0.058049  0  3.985028  0  0  -0.085117  -0.058975  0  3.950998  0
C  C55  1  0.86766049  0.83309985  0.00702798  1  0  -0.043678  0  3.723104  0  0  -0.058605  0  3.964707  0  0  -0.057963  0  3.985057  0  0  -0.08511  -0.058895  0  3.95104  0
C  C56  1  0.12006724  0.28879822  0.89671074  1  0  -0.076255  0  3.770824  0  0  -0.086584  0  4.020619  0  0  -0.090794  0  4.041462  0  0  -0.093511  -0.083295  0  4.007082  0
C  C57  1  0.87992853  0.71120281  0.10329327  1  0  -0.07611  0  3.770844  0  0  -0.086473  0  4.020606  0  0  -0.090677  0  4.041457  0  0  -0.093482  -0.08318  0  4.007075  0
C  C58  1  0.12346462  0.29742295  0.77353320  1  0  -0.085822  0  3.706124  0  0  -0.106985  0  3.945347  0  0  -0.106248  0  3.962109  0  0  -0.077444  -0.107753  0  3.935211  0
C  C59  1  0.87653319  0.70257808  0.22647134  1  0  -0.085892  0  3.705934  0  0  -0.107048  0  3.94519  0  0  -0.106306  0  3.961953  0  0  -0.077455  -0.107801  0  3.935062  0
C  C60  1  0.75031721  0.32807677  0.05727711  1  0  0.326956  0  3.687416  0  0  0.304932  0  3.948944  0  0  0.321632  0  3.963285  0  0  0.210104  0.294032  0  3.938592  0
C  C61  1  0.24967381  0.67192624  0.94271918  1  0  0.326734  0  3.687105  0  0  0.304676  0  3.948684  0  0  0.321377  0  3.963022  0  0  0.209983  0.29379  0  3.938339  0
C  C62  1  0.67258235  0.32554528  0.96860403  1  0  0.000124  0  3.892292  0  0  0.024974  0  4.122094  0  0  0.019614  0  4.142431  0  0  -0.001734  0.028201  0  4.108025  0
C  C63  1  0.32741273  0.67446075  0.03138964  1  0  0.000227  0  3.892235  0  0  0.025119  0  4.122019  0  0  0.019767  0  4.142362  0  0  -0.001711  0.028339  0  4.107961  0
C  C64  1  0.52352017  0.33982428  0.99399616  1  0  -0.088165  0  3.724725  0  0  -0.111769  0  3.970872  0  0  -0.111586  0  3.990631  0  0  -0.078212  -0.111701  0  3.957418  0
C  C65  1  0.47647081  0.66018174  0.00599816  1  0  -0.088307  0  3.724939  0  0  -0.111975  0  3.971088  0  0  -0.111784  0  3.990854  0  0  -0.0783  -0.111912  0  3.957634  0
C  C66  1  0.44776358  0.33855125  0.90580107  1  0  -0.075683  0  3.763991  0  0  -0.087357  0  4.013401  0  0  -0.091583  0  4.034998  0  0  -0.088542  -0.084678  0  3.999075  0
C  C67  1  0.55223194  0.66145075  0.09419316  1  0  -0.075576  0  3.763935  0  0  -0.08722  0  4.01334  0  0  -0.091453  0  4.034932  0  0  -0.088462  -0.084545  0  3.999005  0
C  C68  1  0.51902523  0.32136515  0.79389446  1  0  -0.03011  0  3.70724  0  0  -0.046157  0  3.954939  0  0  -0.043713  0  3.972106  0  0  -0.071253  -0.047571  0  3.944422  0
C  C69  1  0.48096962  0.67863584  0.20610024  1  0  -0.030157  0  3.707358  0  0  -0.046231  0  3.955076  0  0  -0.043785  0  3.972245  0  0  -0.071279  -0.04762  0  3.944551  0
C  C70  1  0.66733833  0.30567009  0.76944878  1  0  -0.064086  0  3.732464  0  0  -0.074958  0  3.977519  0  0  -0.078845  0  3.996546  0  0  -0.085703  -0.07245  0  3.964333  0
C  C71  1  0.33265853  0.69433092  0.23054990  1  0  -0.063996  0  3.732509  0  0  -0.074855  0  3.977581  0  0  -0.078746  0  3.996612  0  0  -0.085641  -0.072353  0  3.964378  0
C  C72  1  0.74439172  0.30904931  0.85555868  1  0  -0.071506  0  3.697319  0  0  -0.092645  0  3.936554  0  0  -0.090576  0  3.954434  0  0  -0.073346  -0.093503  0  3.924882  0
C  C73  1  0.25560165  0.69095572  0.14443736  1  0  -0.071629  0  3.697128  0  0  -0.092833  0  3.936367  0  0  -0.090768  0  3.954249  0  0  -0.073439  -0.09369  0  3.924695  0
Br  Br74  1  0.07289390  0.02030822  0.33970468  1  0  -0.364058  0  1.608032  0  0  -0.287499  0  2.027191  0  0  -0.305638  0  1.990107  0  0  -0.198727  -0.275146  0  2.053687  0
Br  Br75  1  0.92710629  0.97969482  0.66029703  1  0  -0.364039  0  1.608046  0  0  -0.287487  0  2.027201  0  0  -0.305627  0  1.990139  0  0  -0.1987  -0.275108  0  2.053662  0
Br  Br76  1  0.14354140  0.38041727  0.17485060  1  0  -0.452744  0  1.345128  0  0  -0.379945  0  1.712911  0  0  -0.402711  0  1.68367  0  0  -0.242931  -0.363342  0  1.73403  0
Br  Br77  1  0.85646304  0.61957973  0.82515094  1  0  -0.452709  0  1.345176  0  0  -0.379947  0  1.71302  0  0  -0.402698  0  1.683758  0  0  -0.242923  -0.363326  0  1.734093  0
Br  Br78  1  0.19983873  0.61754141  0.56594838  1  0  -0.446807  0  1.31895  0  0  -0.376611  0  1.66095  0  0  -0.399267  0  1.629904  0  0  -0.245398  -0.359028  0  1.681097  0
Br  Br79  1  0.80016807  0.38245760  0.43405204  1  0  -0.446797  0  1.318915  0  0  -0.376574  0  1.660873  0  0  -0.399238  0  1.629841  0  0  -0.245377  -0.358991  0  1.681034  0
N  N80  1  0.14917758  0.19533179  0.51928135  1  0  -0.386506  0  3.186594  0  0  -0.344233  0  3.530327  0  0  -0.350865  0  3.525407  0  0  -0.389375  -0.340549  0  3.533863  0
N  N81  1  0.85083017  0.80466724  0.48072493  1  0  -0.386472  0  3.186661  0  0  -0.344204  0  3.530399  0  0  -0.350825  0  3.525457  0  0  -0.389344  -0.340509  0  3.533897  0
N  N82  1  0.81368847  0.33002249  0.13115727  1  0  -0.422111  0  3.154637  0  0  -0.375804  0  3.497498  0  0  -0.385142  0  3.488948  0  0  -0.390114  -0.369881  0  3.502463  0
N  N83  1  0.18630744  0.66997849  0.86883468  1  0  -0.421918  0  3.154351  0  0  -0.375587  0  3.497206  0  0  -0.384918  0  3.488645  0  0  -0.389979  -0.369655  0  3.502154  0
O  O84  1  0.58805496  0.09583890  0.31463870  1  0  -0.645685  0  1.892708  0  0  -0.563228  0  2.158422  0  0  -0.590645  0  2.149634  0  0  -0.330805  -0.543864  0  2.164601  0
O  O85  1  0.41194911  0.90415911  0.68536339  1  0  -0.645693  0  1.892723  0  0  -0.563193  0  2.15841  0  0  -0.590617  0  2.149625  0  0  -0.330777  -0.543824  0  2.164586  0
O  O86  1  0.49566306  0.87999956  0.44059031  1  0  -0.637994  0  1.880825  0  0  -0.557666  0  2.140029  0  0  -0.584683  0  2.130837  0  0  -0.326517  -0.537345  0  2.145722  0
O  O87  1  0.50433898  0.11999844  0.55940952  1  0  -0.637989  0  1.880822  0  0  -0.557646  0  2.140027  0  0  -0.584666  0  2.130836  0  0  -0.326532  -0.537334  0  2.145722  0
