# generated using pymatgen
data_ZnH19C24N2O5
_symmetry_space_group_name_H-M   'P 1'
_cell_length_a   8.83595495
_cell_length_b   16.01760015
_cell_length_c   16.72593947
_cell_angle_alpha   90.00068173
_cell_angle_beta   99.17208356
_cell_angle_gamma   89.99999866
_symmetry_Int_Tables_number   1
_chemical_formula_structural   ZnH19C24N2O5
_chemical_formula_sum   'Zn4 H76 C96 N8 O20'
_cell_volume   2336.96812290
_cell_formula_units_Z   4
loop_
 _symmetry_equiv_pos_site_id
 _symmetry_equiv_pos_as_xyz
  1  'x, y, z'
loop_
 _atom_site_type_symbol
 _atom_site_label
 _atom_site_symmetry_multiplicity
 _atom_site_fract_x
 _atom_site_fract_y
 _atom_site_fract_z
 _atom_site_occupancy
 _atom_site_pbe_bader_charge
 _atom_site_pbe_bader_spin_density
 _atom_site_pbe_cm5_charge
 _atom_site_pbe_ddec_charge
 _atom_site_pbe_ddec_spin_density
 _atom_site_pbe_ddec_sum_bond_order
 _atom_site_pbe_magmom
Zn  Zn0  1  0.18042784  0.35356105  0.80309593  1  1.249071  0  0.692973  0.760654  0  2.396033  0
Zn  Zn1  1  0.31956590  0.85356413  0.69690678  1  1.249099  0  0.692975  0.760633  0  2.395881  0
Zn  Zn2  1  0.81957508  0.64644198  0.19690189  1  1.249188  0  0.692976  0.76058  0  2.396237  0
Zn  Zn3  1  0.68043579  0.14643952  0.30309572  1  1.249137  0  0.692982  0.760616  0  2.396007  0
H  H4  1  0.90868253  0.25738675  0.58994797  1  0.099348  0  0.103683  0.108638  0  1.027815  0
H  H5  1  0.59132441  0.75738249  0.91004592  1  0.098558  0  0.103752  0.108708  0  1.027925  0
H  H6  1  0.09133304  0.74261940  0.41004859  1  0.098629  0  0.103727  0.108691  0  1.027957  0
H  H7  1  0.40867502  0.24261741  0.08995518  1  0.098603  0  0.103728  0.108662  0  1.027855  0
H  H8  1  0.45525431  0.29117130  0.46016631  1  0.085145  0  0.100751  0.108934  0  1.061311  0
H  H9  1  0.04474600  0.79116933  0.03983075  1  0.085208  0  0.100748  0.108919  0  1.06135  0
H  H10  1  0.54474965  0.70882611  0.53983819  1  0.08482  0  0.100802  0.108959  0  1.061224  0
H  H11  1  0.95525809  0.20882184  0.96016539  1  0.084953  0  0.100775  0.10895  0  1.06133  0
H  H12  1  0.61188896  0.43936211  0.67433011  1  0.09922  0  0.105491  0.121893  0  1.019055  0
H  H13  1  0.88811280  0.93936241  0.82567199  1  0.098859  0  0.105465  0.121873  0  1.01912  0
H  H14  1  0.38811735  0.56064030  0.32567101  1  0.099247  0  0.105453  0.121862  0  1.019153  0
H  H15  1  0.11188434  0.06063625  0.17432832  1  0.099234  0  0.10548  0.121866  0  1.019075  0
H  H16  1  0.23543289  0.33087156  0.48960776  1  0.063777  0  0.104013  0.071887  0  0.980517  0
H  H17  1  0.26456389  0.83087609  0.01040438  1  0.064033  0  0.103959  0.071783  0  0.980258  0
H  H18  1  0.76457441  0.66911835  0.51040301  1  0.064032  0  0.103889  0.071752  0  0.980362  0
H  H19  1  0.73542618  0.16912257  0.98960785  1  0.063947  0  0.103927  0.071792  0  0.980285  0
H  H20  1  0.31664273  0.41177848  0.43610653  1  0.03183  0  0.102007  0.073854  0  0.97514  0
H  H21  1  0.18334304  0.91178991  0.06389540  1  0.032176  0  0.101981  0.073755  0  0.975196  0
H  H22  1  0.68335097  0.58820831  0.56389347  1  0.031866  0  0.101999  0.073769  0  0.975239  0
H  H23  1  0.81663684  0.08821186  0.93610696  1  0.031798  0  0.10203  0.07389  0  0.975107  0
H  H24  1  0.96924642  0.34971691  0.46427755  1  0.071379  0  0.099345  0.101064  0  1.018527  0
H  H25  1  0.53074685  0.84971801  0.03572082  1  0.071441  0  0.099333  0.101013  0  1.018484  0
H  H26  1  0.03074618  0.65027114  0.53571936  1  0.071527  0  0.099384  0.101105  0  1.018401  0
H  H27  1  0.46924782  0.15027440  0.96429063  1  0.071589  0  0.099397  0.101124  0  1.018414  0
H  H28  1  0.25963714  0.56300832  0.52770723  1  0.061974  0  0.097181  0.093615  0  1.04526  0
H  H29  1  0.24035769  0.06301233  0.97230123  1  0.061956  0  0.09713  0.093585  0  1.045403  0
H  H30  1  0.74035313  0.43698035  0.47229187  1  0.062477  0  0.097119  0.093627  0  1.045171  0
H  H31  1  0.75964164  0.93698134  0.02770584  1  0.061925  0  0.097133  0.093585  0  1.045166  0
H  H32  1  0.19629365  0.47300701  0.67819891  1  0.131593  0  0.11873  0.089925  0  1.012642  0
H  H33  1  0.30369596  0.97301226  0.82180421  1  0.131628  0  0.118714  0.089955  0  1.012625  0
H  H34  1  0.80371037  0.52699664  0.32180200  1  0.131499  0  0.118779  0.090014  0  1.012619  0
H  H35  1  0.69630112  0.02699327  0.17819968  1  0.131648  0  0.118687  0.089836  0  1.012768  0
H  H36  1  0.38170023  0.58188830  0.64934469  1  0.070743  0  0.107192  0.114621  0  1.022822  0
H  H37  1  0.11829364  0.08189955  0.85065673  1  0.070675  0  0.107182  0.114577  0  1.022766  0
H  H38  1  0.61830493  0.41811347  0.35065633  1  0.070776  0  0.107177  0.114626  0  1.02282  0
H  H39  1  0.88170465  0.91810910  0.14934367  1  0.070697  0  0.107177  0.11461  0  1.022779  0
H  H40  1  0.57357044  0.57931146  0.90377327  1  0.121497  0  0.11004  0.130326  0  1.011993  0
H  H41  1  0.92642767  0.07931392  0.59622737  1  0.121577  0  0.110055  0.130385  0  1.012009  0
H  H42  1  0.42643701  0.42069282  0.09622795  1  0.121393  0  0.110075  0.130375  0  1.012053  0
H  H43  1  0.07356833  0.92068786  0.40377283  1  0.121343  0  0.110064  0.130389  0  1.012033  0
H  H44  1  0.38472942  0.46619225  0.92118588  1  0.120541  0  0.118376  0.099553  0  1.015559  0
H  H45  1  0.11526245  0.96619014  0.57881736  1  0.120634  0  0.118377  0.099594  0  1.015535  0
H  H46  1  0.61527459  0.53381202  0.07881504  1  0.120518  0  0.118391  0.099529  0  1.015642  0
H  H47  1  0.88473464  0.03380977  0.42118592  1  0.12056  0  0.118377  0.099559  0  1.015562  0
H  H48  1  0.60281112  0.65532276  0.68865209  1  0.020617  0  0.092463  0.086535  0  1.014063  0
H  H49  1  0.89719081  0.15533912  0.81134318  1  0.020542  0  0.092426  0.086562  0  1.014243  0
H  H50  1  0.39719750  0.34467839  0.31134803  1  0.020561  0  0.092443  0.086536  0  1.014077  0
H  H51  1  0.10280528  0.84467077  0.18865105  1  0.020558  0  0.092419  0.086487  0  1.014135  0
H  H52  1  0.59341412  0.70955117  0.77894025  1  0.110891  0  0.099496  0.110708  0  1.0321  0
H  H53  1  0.90657890  0.20955767  0.72105127  1  0.110706  0  0.099557  0.110884  0  1.031958  0
H  H54  1  0.40659221  0.29045248  0.22105967  1  0.110895  0  0.099491  0.110695  0  1.032182  0
H  H55  1  0.09341606  0.79044723  0.27894167  1  0.11091  0  0.099504  0.110708  0  1.032063  0
H  H56  1  0.80360282  0.55733478  0.76749347  1  0.153722  0  0.103076  0.13486  0  1.005582  0
H  H57  1  0.69640769  0.05733707  0.73251639  1  0.153852  0  0.103027  0.134859  0  1.005609  0
H  H58  1  0.19640456  0.44266637  0.23251252  1  0.153656  0  0.103046  0.134823  0  1.005567  0
H  H59  1  0.30359749  0.94266346  0.26748403  1  0.153765  0  0.103029  0.134835  0  1.005581  0
H  H60  1  0.79596023  0.61601890  0.85508739  1  0.038711  0  0.101066  0.107988  0  0.980472  0
H  H61  1  0.70403912  0.11601074  0.64491618  1  0.038804  0  0.101068  0.107981  0  0.980461  0
H  H62  1  0.20404374  0.38398725  0.14491651  1  0.038805  0  0.101056  0.107946  0  0.980405  0
H  H63  1  0.29596036  0.88398792  0.35508134  1  0.038849  0  0.10108  0.107958  0  0.980429  0
H  H64  1  0.76723566  0.74329148  0.66706307  1  0.067541  0  0.110736  0.122146  0  1.003562  0
H  H65  1  0.73275150  0.24328565  0.83294385  1  0.067375  0  0.110789  0.122151  0  1.00352  0
H  H66  1  0.23276372  0.25671030  0.33294042  1  0.06753  0  0.11076  0.122157  0  1.003469  0
H  H67  1  0.26723642  0.75670427  0.16705922  1  0.067506  0  0.110756  0.12219  0  1.003421  0
H  H68  1  0.98587716  0.82561696  0.63343126  1  0.104806  0  0.118291  0.090917  0  1.004286  0
H  H69  1  0.51410583  0.32561280  0.86656906  1  0.104965  0  0.118219  0.090842  0  1.004334  0
H  H70  1  0.01411542  0.17438420  0.36656744  1  0.104865  0  0.118257  0.09087  0  1.004338  0
H  H71  1  0.48588442  0.67437836  0.13343123  1  0.104808  0  0.118285  0.090896  0  1.004306  0
H  H72  1  0.28487558  0.72326887  0.82383416  1  0.11679  0  0.118745  0.092779  0  0.998422  0
H  H73  1  0.21512713  0.22327420  0.67615112  1  0.117678  0  0.118787  0.092838  0  0.998347  0
H  H74  1  0.71512974  0.27673041  0.17615730  1  0.117006  0  0.118773  0.092861  0  0.998346  0
H  H75  1  0.78487249  0.77673195  0.32383745  1  0.116787  0  0.118762  0.092809  0  0.998379  0
H  H76  1  0.08015627  0.63092382  0.86240526  1  0.065135  0  0.113597  0.125311  0  0.977186  0
H  H77  1  0.41985177  0.13093054  0.63758302  1  0.065172  0  0.113549  0.1252  0  0.977178  0
H  H78  1  0.91985469  0.36907422  0.13759208  1  0.064934  0  0.113578  0.125258  0  0.977204  0
H  H79  1  0.58015015  0.86907624  0.36240515  1  0.065097  0  0.113605  0.125276  0  0.977224  0
C  C80  1  0.89964131  0.37580783  0.70598700  1  1.556533  0  0.198093  0.562401  0  4.220721  0
C  C81  1  0.60036126  0.87580526  0.79402102  1  1.556051  0  0.198093  0.562478  0  4.22022  0
C  C82  1  0.10037080  0.62419894  0.29401045  1  1.556795  0  0.198118  0.562413  0  4.220731  0
C  C83  1  0.39963471  0.12419278  0.20598038  1  1.556509  0  0.198117  0.562538  0  4.220021  0
C  C84  1  0.77263810  0.35067507  0.63939259  1  0.049984  0  -0.019059  -0.018088  0  4.001087  0
C  C85  1  0.72736226  0.85067331  0.86060418  1  0.05016  0  -0.01901  -0.017869  0  4.000883  0
C  C86  1  0.22736364  0.64932983  0.36060752  1  0.049924  0  -0.019066  -0.018028  0  4.001068  0
C  C87  1  0.27263376  0.14932285  0.13939423  1  0.05004  0  -0.019014  -0.017967  0  4.001007  0
C  C88  1  0.79768503  0.28794498  0.58462291  1  -0.039813  0  -0.089721  -0.138156  0  3.978618  0
C  C89  1  0.70231395  0.78793891  0.91537361  1  -0.021533  0  -0.089771  -0.138295  0  3.978697  0
C  C90  1  0.20231786  0.71206117  0.41537730  1  -0.039262  0  -0.089747  -0.138221  0  3.978996  0
C  C91  1  0.29768551  0.21205725  0.08462510  1  -0.038814  0  -0.089766  -0.138232  0  3.978525  0
C  C92  1  0.68257969  0.26708878  0.52090054  1  -0.011579  0  -0.02316  -0.013398  0  4.010406  0
C  C93  1  0.81741922  0.76708536  0.97909515  1  -0.029427  0  -0.02322  -0.013474  0  4.010321  0
C  C94  1  0.31741516  0.73291175  0.47909897  1  -0.011573  0  -0.02318  -0.013464  0  4.01029  0
C  C95  1  0.18258255  0.23290767  0.02090317  1  -0.011857  0  -0.023156  -0.013293  0  4.01029  0
C  C96  1  0.71388539  0.20444293  0.45889851  1  1.559305  0  0.196315  0.563712  0  4.225106  0
C  C97  1  0.78611545  0.70443909  0.04109409  1  1.559678  0  0.196428  0.563899  0  4.224951  0
C  C98  1  0.28611751  0.79555885  0.54110050  1  1.559427  0  0.196302  0.563755  0  4.225038  0
C  C99  1  0.21388863  0.29555519  0.95890265  1  1.559118  0  0.196431  0.563816  0  4.224901  0
C  C100  1  0.54111425  0.30856623  0.51136344  1  -0.034199  0  -0.107515  -0.246968  0  3.997193  0
C  C101  1  0.95888593  0.80856354  0.98863462  1  -0.034172  0  -0.107443  -0.246907  0  3.997069  0
C  C102  1  0.45888398  0.69143430  0.48864055  1  -0.033848  0  -0.107537  -0.246918  0  3.996965  0
C  C103  1  0.04111586  0.19143074  0.01136190  1  -0.034013  0  -0.107539  -0.247001  0  3.997228  0
C  C104  1  0.51548667  0.37042665  0.56662520  1  0.466408  0  0.07737  0.2486  0  4.084703  0
C  C105  1  0.98451714  0.87042640  0.93337569  1  0.466124  0  0.077358  0.248614  0  4.08455  0
C  C106  1  0.48451845  0.62957263  0.43337880  1  0.466341  0  0.077337  0.24855  0  4.08454  0
C  C107  1  0.01548690  0.12957101  0.06662343  1  0.466452  0  0.077386  0.248595  0  4.084705  0
C  C108  1  0.63123816  0.39120856  0.63107980  1  -0.113523  0  -0.091394  -0.199066  0  3.930362  0
C  C109  1  0.86875658  0.89120627  0.86891933  1  -0.112796  0  -0.091339  -0.199103  0  3.930324  0
C  C110  1  0.36876128  0.60879384  0.36892011  1  -0.113334  0  -0.091336  -0.199039  0  3.93026  0
C  C111  1  0.13124287  0.10879051  0.13108058  1  -0.113526  0  -0.091432  -0.199102  0  3.930416  0
C  C112  1  0.26741106  0.39747768  0.49140272  1  0.434855  0  -0.057954  -0.005766  0  3.914938  0
C  C113  1  0.23257805  0.89748343  0.00860233  1  0.434008  0  -0.057778  -0.005373  0  3.914846  0
C  C114  1  0.73258259  0.60251161  0.50860086  1  0.434671  0  -0.057828  -0.005365  0  3.915082  0
C  C115  1  0.76741208  0.10251273  0.99140512  1  0.435003  0  -0.057891  -0.005591  0  3.91479  0
C  C116  1  0.12968406  0.45055433  0.49621245  1  -0.064536  0  -0.016529  0.075422  0  3.987748  0
C  C117  1  0.37030642  0.95056126  0.00379153  1  -0.064403  0  -0.016376  0.075539  0  3.98757  0
C  C118  1  0.87030620  0.54943496  0.50378724  1  -0.064614  0  -0.016333  0.07547  0  3.987733  0
C  C119  1  0.62968257  0.04944114  0.99621642  1  -0.064775  0  -0.016454  0.075346  0  3.987822  0
C  C120  1  0.98286822  0.41585924  0.47939614  1  -0.034394  0  -0.090303  -0.126751  0  3.981195  0
C  C121  1  0.51712982  0.91586453  0.02060699  1  -0.033297  0  -0.090308  -0.126716  0  3.981118  0
C  C122  1  0.01713693  0.58412755  0.52060547  1  -0.033362  0  -0.090388  -0.126786  0  3.981225  0
C  C123  1  0.48286026  0.08413350  0.97940404  1  -0.034393  0  -0.090408  -0.126843  0  3.981436  0
C  C124  1  0.14580334  0.53513891  0.51649801  1  -0.013384  0  -0.090636  -0.118669  0  3.988544  0
C  C125  1  0.35419137  0.03514430  0.98351132  1  -0.012563  0  -0.090685  -0.118799  0  3.988854  0
C  C126  1  0.85419378  0.46485350  0.48350349  1  -0.012978  0  -0.090702  -0.118829  0  3.988379  0
C  C127  1  0.64580103  0.96485686  0.01649813  1  -0.0133  0  -0.090668  -0.118649  0  3.988356  0
C  C128  1  0.28175846  0.49836066  0.72630228  1  0.500163  0  0.050518  0.103642  0  3.945551  0
C  C129  1  0.21823354  0.99836595  0.77370074  1  0.500348  0  0.050327  0.103318  0  3.945701  0
C  C130  1  0.71824558  0.50164299  0.27369684  1  0.500224  0  0.050386  0.103418  0  3.945749  0
C  C131  1  0.78176356  0.00163958  0.22630255  1  0.500278  0  0.050399  0.103476  0  3.945791  0
C  C132  1  0.38567843  0.55872541  0.71083617  1  -0.024919  0  -0.083222  -0.184825  0  3.946275  0
C  C133  1  0.11431765  0.05873153  0.78916518  1  -0.024936  0  -0.083128  -0.184601  0  3.945819  0
C  C134  1  0.61432333  0.44127699  0.28916275  1  -0.02491  0  -0.083211  -0.184799  0  3.946291  0
C  C135  1  0.88568176  0.94127337  0.21083652  1  -0.025028  0  -0.083178  -0.184761  0  3.946092  0
C  C136  1  0.49820982  0.58743734  0.77319833  1  -0.013049  0  0.022096  0.180696  0  3.921028  0
C  C137  1  0.00178413  0.08744394  0.72679956  1  -0.013277  0  0.022185  0.180828  0  3.920853  0
C  C138  1  0.50179310  0.41256694  0.22679949  1  -0.01294  0  0.022061  0.180599  0  3.920984  0
C  C139  1  0.99821071  0.91256221  0.27320053  1  -0.013053  0  0.022104  0.180749  0  3.921009  0
C  C140  1  0.49395306  0.55682025  0.85149765  1  -0.056215  0  -0.080609  -0.177829  0  3.901863  0
C  C141  1  0.00604301  0.05682526  0.64850368  1  -0.056271  0  -0.080652  -0.177948  0  3.9016  0
C  C142  1  0.50604986  0.44318402  0.14850018  1  -0.056022  0  -0.080608  -0.177824  0  3.902018  0
C  C143  1  0.99395640  0.94317777  0.35149802  1  -0.056108  0  -0.080584  -0.177872  0  3.901791  0
C  C144  1  0.38781793  0.49559704  0.86259915  1  0.447505  0  0.044752  0.086047  0  3.948649  0
C  C145  1  0.11217751  0.99559565  0.63740295  1  0.447748  0  0.04477  0.086066  0  3.948331  0
C  C146  1  0.61218382  0.50440598  0.13739977  1  0.44738  0  0.044692  0.08604  0  3.948798  0
C  C147  1  0.88782303  0.00440363  0.36260005  1  0.44744  0  0.044708  0.08602  0  3.948481  0
C  C148  1  0.61749113  0.64790133  0.75474473  1  -0.033659  0  -0.159823  -0.203026  0  3.941504  0
C  C149  1  0.88251069  0.14791064  0.74525583  1  -0.033402  0  -0.159865  -0.20334  0  3.941896  0
C  C150  1  0.38251633  0.35209920  0.24525649  1  -0.033611  0  -0.159781  -0.202993  0  3.941518  0
C  C151  1  0.11748877  0.85209551  0.25474289  1  -0.033535  0  -0.159816  -0.203049  0  3.941581  0
C  C152  1  0.78153088  0.62096055  0.78867971  1  -0.054731  0  -0.156173  -0.213744  0  3.921396  0
C  C153  1  0.71847082  0.12095945  0.71132172  1  -0.054966  0  -0.15618  -0.213697  0  3.921332  0
C  C154  1  0.21847538  0.37904435  0.21132439  1  -0.054911  0  -0.15613  -0.213629  0  3.921305  0
C  C155  1  0.28152753  0.87904045  0.28867450  1  -0.054942  0  -0.156116  -0.213563  0  3.921371  0
C  C156  1  0.90471212  0.67744578  0.76717228  1  -0.088292  0  0.023627  0.187915  0  3.912064  0
C  C157  1  0.59528296  0.17744620  0.73282622  1  -0.088501  0  0.023677  0.187892  0  3.912224  0
C  C158  1  0.09528963  0.32255600  0.23282664  1  -0.088611  0  0.023625  0.187874  0  3.912351  0
C  C159  1  0.40471420  0.82255620  0.26717288  1  -0.088306  0  0.023623  0.187811  0  3.912151  0
C  C160  1  0.88035386  0.73442333  0.70280311  1  0.019274  0  -0.083858  -0.185736  0  3.933705  0
C  C161  1  0.61963680  0.23441831  0.79719804  1  0.019712  0  -0.083933  -0.185811  0  3.933907  0
C  C162  1  0.11964672  0.26558032  0.29719749  1  0.019632  0  -0.083866  -0.185777  0  3.933642  0
C  C163  1  0.38035462  0.76557598  0.20280116  1  0.019671  0  -0.083863  -0.185755  0  3.933579  0
C  C164  1  0.00133987  0.78222066  0.68430057  1  0.440529  0  0.047254  0.096224  0  3.960501  0
C  C165  1  0.49865021  0.28221710  0.81569862  1  0.440435  0  0.047323  0.096351  0  3.960462  0
C  C166  1  0.99865844  0.21778174  0.31569805  1  0.440295  0  0.047253  0.096284  0  3.960425  0
C  C167  1  0.50133892  0.71777781  0.18429978  1  0.439877  0  0.047267  0.096278  0  3.960387  0
C  C168  1  0.16864963  0.72415706  0.79005749  1  0.483442  0  0.0455  0.096695  0  3.951372  0
C  C169  1  0.33135072  0.22416031  0.70993177  1  0.482836  0  0.045479  0.096637  0  3.951439  0
C  C170  1  0.83135333  0.27584347  0.20993735  1  0.483096  0  0.045461  0.096606  0  3.951502  0
C  C171  1  0.66864772  0.77584209  0.29005908  1  0.483598  0  0.04551  0.096701  0  3.951614  0
C  C172  1  0.05386097  0.67355036  0.81121851  1  0.044869  0  -0.080931  -0.182279  0  3.934032  0
C  C173  1  0.44614029  0.17355209  0.68877325  1  0.044187  0  -0.080911  -0.182093  0  3.93389  0
C  C174  1  0.94614423  0.32645079  0.18878011  1  0.045095  0  -0.080854  -0.182088  0  3.934067  0
C  C175  1  0.55385584  0.82645156  0.31121860  1  0.044767  0  -0.080908  -0.182161  0  3.934071  0
N  N176  1  0.28531904  0.46538240  0.80071849  1  -1.269018  0  -0.33926  -0.252367  0  3.61997  0
N  N177  1  0.21466943  0.96538552  0.69928204  1  -1.269255  0  -0.339168  -0.252267  0  3.620006  0
N  N178  1  0.71468271  0.53462125  0.19928042  1  -1.269129  0  -0.339161  -0.252245  0  3.620204  0
N  N179  1  0.78532768  0.03461876  0.30072005  1  -1.268941  0  -0.339146  -0.252186  0  3.620073  0
N  N180  1  0.14385989  0.77760163  0.72690748  1  -1.258245  0  -0.331973  -0.245488  0  3.555853  0
N  N181  1  0.35613143  0.27760129  0.77308518  1  -1.258008  0  -0.331974  -0.245526  0  3.555893  0
N  N182  1  0.85613732  0.22239953  0.27308864  1  -1.257919  0  -0.331958  -0.245532  0  3.555942  0
N  N183  1  0.64386807  0.72239862  0.22691114  1  -1.257998  0  -0.332046  -0.245613  0  3.556019  0
O  O184  1  0.02835799  0.33577501  0.70538822  1  -1.173267  0  -0.34209  -0.564054  0  2.333707  0
O  O185  1  0.47163458  0.83577992  0.79461180  1  -1.173118  0  -0.342016  -0.563972  0  2.333694  0
O  O186  1  0.97165419  0.66422926  0.29460504  1  -1.173512  0  -0.34215  -0.564044  0  2.333886  0
O  O187  1  0.52836023  0.16421874  0.20539069  1  -1.173448  0  -0.342019  -0.563988  0  2.33373  0
O  O188  1  0.87944908  0.43003911  0.75671113  1  -1.174425  0  -0.328514  -0.548692  0  2.112703  0
O  O189  1  0.62055964  0.93004840  0.74328430  1  -1.174244  0  -0.328669  -0.548991  0  2.111977  0
O  O190  1  0.12056883  0.56996828  0.24328264  1  -1.174416  0  -0.328529  -0.548739  0  2.112574  0
O  O191  1  0.37943520  0.06994839  0.25671640  1  -1.174337  0  -0.328696  -0.54903  0  2.111856  0
O  O192  1  0.61037084  0.20141462  0.39432727  1  -1.170746  0  -0.340357  -0.545018  0  2.316999  0
O  O193  1  0.88963224  0.70141095  0.10566789  1  -1.171096  0  -0.340451  -0.54514  0  2.316899  0
O  O194  1  0.38962858  0.79858841  0.60567384  1  -1.170927  0  -0.340333  -0.545037  0  2.316996  0
O  O195  1  0.11037185  0.29858334  0.89432825  1  -1.17054  0  -0.340438  -0.545183  0  2.316802  0
O  O196  1  0.83450413  0.16179304  0.46999943  1  -1.187604  0  -0.330644  -0.573703  0  2.136874  0
O  O197  1  0.66550226  0.66178907  0.02999496  1  -1.187596  0  -0.330615  -0.573691  0  2.13704  0
O  O198  1  0.16550108  0.83821061  0.52999859  1  -1.187563  0  -0.330655  -0.573724  0  2.136811  0
O  O199  1  0.33450067  0.33820647  0.97000226  1  -1.187597  0  -0.33062  -0.573661  0  2.136997  0
O  O200  1  0.38106528  0.41412730  0.56120216  1  -1.072514  0  -0.179038  -0.203896  0  2.547044  0
O  O201  1  0.11894360  0.91412714  0.93880139  1  -1.072433  0  -0.179186  -0.204041  0  2.547395  0
O  O202  1  0.61894903  0.58587011  0.43880085  1  -1.072711  0  -0.179102  -0.20403  0  2.54738  0
O  O203  1  0.88105923  0.08586777  0.06120181  1  -1.072921  0  -0.179008  -0.203909  0  2.547178  0
