# generated using pymatgen
data_CuH14C16N2O11
_symmetry_space_group_name_H-M   'P 1'
_cell_length_a   6.19041427
_cell_length_b   7.22832566
_cell_length_c   23.08100190
_cell_angle_alpha   89.41659845
_cell_angle_beta   88.61043745
_cell_angle_gamma   64.60299461
_symmetry_Int_Tables_number   1
_chemical_formula_structural   CuH14C16N2O11
_chemical_formula_sum   'Cu2 H28 C32 N4 O22'
_cell_volume   932.70453751
_cell_formula_units_Z   2
loop_
 _symmetry_equiv_pos_site_id
 _symmetry_equiv_pos_as_xyz
  1  'x, y, z'
loop_
 _atom_site_type_symbol
 _atom_site_label
 _atom_site_symmetry_multiplicity
 _atom_site_fract_x
 _atom_site_fract_y
 _atom_site_fract_z
 _atom_site_occupancy
 _atom_site_hle17_ddec_charge
 _atom_site_hle17_ddec_spin_density
 _atom_site_hle17_ddec_sum_bond_order
 _atom_site_hle17_magmom
 _atom_site_hse06_10hf_ddec_charge
 _atom_site_hse06_10hf_ddec_spin_density
 _atom_site_hse06_10hf_ddec_sum_bond_order
 _atom_site_hse06_10hf_magmom
 _atom_site_hse06_ddec_charge
 _atom_site_hse06_ddec_spin_density
 _atom_site_hse06_ddec_sum_bond_order
 _atom_site_hse06_magmom
 _atom_site_pbe_cm5_charge
 _atom_site_pbe_ddec_charge
 _atom_site_pbe_ddec_spin_density
 _atom_site_pbe_ddec_sum_bond_order
 _atom_site_pbe_magmom
Cu  Cu0  1  0.20156901  0.59640386  0.24997204  1  1.054007  -0.719211  1.622559  -0.552  1.065497  -0.815668  2.000552  -0.682  1.147656  -0.87522  1.943146  -0.768  0.729941  1.011422  -0.770139  2.042883  -0.622
Cu  Cu1  1  0.79843557  0.40359124  0.75002827  1  1.053999  -0.719209  1.622499  -0.552  1.065477  -0.815667  2.000491  -0.682  1.147641  -0.875221  1.943087  -0.768  0.729926  1.011391  -0.770127  2.042832  -0.622
H  H2  1  0.65533966  0.94050297  0.90696093  1  0.420216  -1.2e-05  0.771477  0.0  0.405223  -3.2e-05  0.820851  0.0  0.414767  -1.8e-05  0.811388  0.0  0.35244  0.398256  -4.7e-05  0.8279  0.0
H  H3  1  0.40357712  0.94071236  0.59310922  1  0.42002  -1.3e-05  0.772264  0.0  0.405124  -3.2e-05  0.8215  0.0  0.414682  -1.9e-05  0.812036  0.0  0.352533  0.398146  -4.7e-05  0.828553  0.0
H  H4  1  0.34467136  0.05948906  0.09303807  1  0.4202  -1.3e-05  0.771442  0.0  0.405219  -3.2e-05  0.820816  0.0  0.414762  -1.9e-05  0.811354  0.0  0.352452  0.398252  -4.7e-05  0.827864  0.0
H  H5  1  0.59640697  0.05929805  0.40688897  1  0.419968  -1.2e-05  0.772208  0.0  0.405078  -3.2e-05  0.821445  0.0  0.414637  -1.8e-05  0.811988  0.0  0.352535  0.398099  -4.7e-05  0.828506  0.0
H  H6  1  0.09758006  0.03535719  0.26436879  1  0.422312  6.5e-05  0.87937  0.0  0.400912  7.9e-05  0.928596  0.0  0.412197  5.9e-05  0.912176  0.0  0.281536  0.393085  8.1e-05  0.939972  0.0
H  H7  1  0.86703191  0.03555087  0.23560379  1  0.422846  6.4e-05  0.878805  0.0  0.400978  7.9e-05  0.928721  0.0  0.412289  5.9e-05  0.912293  0.0  0.281411  0.393139  8.1e-05  0.940092  0.0
H  H8  1  0.90242617  0.96464097  0.73563239  1  0.422311  6.6e-05  0.87939  0.0  0.400906  7.9e-05  0.928623  0.0  0.412193  5.9e-05  0.912202  0.0  0.28152  0.393078  8.1e-05  0.939999  0.0
H  H9  1  0.13297196  0.96444882  0.76439695  1  0.42295  6.6e-05  0.878699  0.0  0.401111  7.9e-05  0.928565  0.0  0.412422  5.9e-05  0.912138  0.0  0.281466  0.393266  8e-05  0.939947  0.0
H  H10  1  0.66006736  0.47869022  0.03962975  1  0.118661  -0.000258  0.945198  0.0  0.126566  -0.000199  1.009956  0.0  0.13031  -0.000127  1.005076  0.0  0.132381  0.123801  -0.000263  1.013514  0.0
H  H11  1  0.86043858  0.47924641  0.46032684  1  0.118723  -0.000262  0.944851  0.0  0.126285  -0.000198  1.009945  0.0  0.130174  -0.000127  1.004912  0.0  0.132616  0.123432  -0.000262  1.01359  0.0
H  H12  1  0.33993249  0.52130794  0.96036971  1  0.118676  -0.000256  0.945162  0.0  0.126567  -0.000198  1.009953  0.0  0.130313  -0.000127  1.005068  0.0  0.132369  0.123791  -0.000263  1.013509  0.0
H  H13  1  0.13955674  0.52076400  0.53967304  1  0.118697  -0.000261  0.944719  0.0  0.126275  -0.000198  1.009843  0.0  0.130165  -0.000127  1.004804  0.0  0.132621  0.12342  -0.000262  1.013491  0.0
H  H14  1  0.91660286  0.94955810  0.03751236  1  0.104661  -6.4e-05  0.945372  0.0  0.114215  -1.9e-05  1.009181  0.0  0.117243  -4e-06  1.00568  0.0  0.108903  0.111953  -3.6e-05  1.011831  0.0
H  H15  1  0.13210966  0.94989367  0.46256275  1  0.104332  -6.5e-05  0.945697  0.0  0.114024  -1.9e-05  1.009575  0.0  0.116963  -4e-06  1.00617  0.0  0.108828  0.111823  -3.5e-05  1.012158  0.0
H  H16  1  0.08340163  0.05043393  0.96248796  1  0.10471  -6.5e-05  0.945323  0.0  0.114257  -1.9e-05  1.009143  0.0  0.117285  -4e-06  1.005642  0.0  0.10891  0.111991  -3.6e-05  1.011799  0.0
H  H17  1  0.86787554  0.05010143  0.53743719  1  0.104303  -6.6e-05  0.945701  0.0  0.114015  -1.9e-05  1.009559  0.0  0.116954  -4e-06  1.006154  0.0  0.108818  0.111814  -3.5e-05  1.012142  0.0
H  H18  1  0.05355628  0.85060390  0.13932298  1  0.145162  0.000228  0.941502  0.0  0.151024  8.8e-05  1.0033  0.0  0.155788  9.6e-05  1.00067  0.0  0.117705  0.147451  6.9e-05  1.005619  0.0
H  H19  1  0.09438845  0.85110144  0.36070123  1  0.144914  0.000229  0.942248  0.0  0.150766  8.6e-05  1.003908  0.0  0.155537  9.4e-05  1.001284  0.0  0.117766  0.147184  6.9e-05  1.006246  0.0
H  H20  1  0.94644428  0.14939273  0.86067778  1  0.145185  0.000223  0.941536  0.0  0.15103  8.7e-05  1.003339  0.0  0.155794  9.5e-05  1.000709  0.0  0.11774  0.14746  6.9e-05  1.005656  0.0
H  H21  1  0.90560749  0.14889825  0.63929650  1  0.144851  0.000234  0.942185  0.0  0.15072  8.6e-05  1.003827  0.0  0.15549  9.5e-05  1.001205  0.0  0.11775  0.147135  6.9e-05  1.006156  0.0
H  H22  1  0.97557728  0.25322352  0.16619416  1  0.125294  -0.000365  0.920464  0.0  0.135834  -0.000403  0.981088  0.0  0.138331  -0.00025  0.978718  0.0  0.127619  0.133923  -0.000542  0.982939  0.0
H  H23  1  0.77076058  0.25380394  0.33373788  1  0.125198  -0.000361  0.920079  0.0  0.135518  -0.000403  0.980951  0.0  0.138006  -0.000249  0.978677  0.0  0.127636  0.133587  -0.000542  0.982777  0.0
H  H24  1  0.02442255  0.74677464  0.83380573  1  0.125297  -0.000352  0.920463  0.0  0.135827  -0.000403  0.981081  0.0  0.138321  -0.00025  0.978712  0.0  0.127631  0.133917  -0.000542  0.982933  0.0
H  H25  1  0.22924808  0.74619575  0.66626415  1  0.125128  -0.000346  0.920051  0.0  0.135462  -0.000403  0.980973  0.0  0.137948  -0.00025  0.9787  0.0  0.127624  0.133526  -0.000542  0.982803  0.0
H  H26  1  0.80314369  0.23275633  0.10713010  1  0.106952  0.000217  0.950332  0.0  0.117804  4.6e-05  1.019409  0.0  0.118363  8.8e-05  1.019677  0.0  0.116401  0.11752  -1e-06  1.019109  0.0
H  H27  1  0.96362976  0.23324825  0.39281246  1  0.107241  0.000216  0.949814  0.0  0.118606  4.6e-05  1.018286  0.0  0.119153  8.8e-05  1.018611  0.0  0.116636  0.11832  -1e-06  1.017938  0.0
H  H28  1  0.19685212  0.76724337  0.89287023  1  0.106955  0.000229  0.950283  0.0  0.117784  4.6e-05  1.019377  0.0  0.11834  8.8e-05  1.019645  0.0  0.116388  0.117503  -1e-06  1.019082  0.0
H  H29  1  0.03637347  0.76675910  0.60718914  1  0.107193  0.000223  0.9498  0.0  0.118587  4.6e-05  1.018263  0.0  0.119131  8.8e-05  1.018589  0.0  0.116657  0.118301  -1e-06  1.017909  0.0
C  C30  1  0.74636611  0.56530909  0.05922876  1  0.11319  0.000139  3.610035  0.0  0.057646  -0.000413  3.861787  -0.001  0.072539  -0.000239  3.874775  0.0  0.068137  0.048043  -0.0006  3.852915  -0.001
C  C31  1  0.68735905  0.56582986  0.44074347  1  0.113693  0.000191  3.611853  0.0  0.05863  -0.000409  3.863508  -0.001  0.073436  -0.000236  3.876452  0.0  0.068043  0.049114  -0.000597  3.854598  -0.001
C  C32  1  0.25363534  0.43468907  0.94077112  1  0.113162  9.2e-05  3.609991  0.0  0.057615  -0.000413  3.861748  -0.001  0.072507  -0.000242  3.874738  0.0  0.068107  0.048026  -0.0006  3.852858  -0.001
C  C33  1  0.31263379  0.43417902  0.55925686  1  0.113912  0.000197  3.61166  0.0  0.058776  -0.000408  3.863425  -0.001  0.073585  -0.000236  3.876368  0.0  0.068057  0.049267  -0.000597  3.854513  -0.001
C  C34  1  0.77359080  0.72324376  0.03062831  1  -0.184632  -0.000813  3.858166  -0.001  -0.168224  -0.000194  4.119561  0.0  -0.187173  6.5e-05  4.146643  0.0  -0.042502  -0.155971  -0.000443  4.101342  0.0
C  C35  1  0.50192336  0.72369074  0.46938311  1  -0.184911  -0.000855  3.86039  -0.001  -0.169143  -0.000205  4.121646  0.0  -0.18808  5.6e-05  4.148684  0.0  -0.042507  -0.156904  -0.000457  4.10343  0.0
C  C36  1  0.22641222  0.27675133  0.96937071  1  -0.184606  -0.000789  3.858168  -0.001  -0.16819  -0.000193  4.119542  0.0  -0.187141  6.8e-05  4.146629  0.0  -0.042496  -0.155929  -0.000443  4.101307  0.0
C  C37  1  0.49806773  0.27631201  0.53061637  1  -0.185009  -0.00086  3.860379  -0.001  -0.169246  -0.000205  4.121729  0.0  -0.188185  5.6e-05  4.148768  0.0  -0.042533  -0.157017  -0.000457  4.103528  0.0
C  C38  1  0.89041145  0.82653914  0.05951383  1  0.003763  0.003045  3.728742  0.002  -0.030826  0.000955  3.992915  0.001  -0.020765  0.001055  4.008462  0.001  -0.070207  -0.037241  0.000933  3.982446  0.001
C  C39  1  0.28163479  0.82697868  0.44052998  1  0.003753  0.003084  3.727035  0.002  -0.031134  0.000953  3.991582  0.001  -0.020977  0.001053  4.007117  0.001  -0.07042  -0.037626  0.000928  3.981154  0.001
C  C40  1  0.10959397  0.17345749  0.94048648  1  0.003673  0.003018  3.728875  0.002  -0.030929  0.000955  3.99303  0.001  -0.020869  0.001052  4.008579  0.001  -0.070224  -0.037352  0.000932  3.982568  0.001
C  C41  1  0.71835535  0.17301948  0.55946994  1  0.003754  0.003117  3.726995  0.002  -0.031132  0.000951  3.991571  0.001  -0.020973  0.001054  4.007105  0.001  -0.070395  -0.037629  0.000928  3.981142  0.001
C  C42  1  0.96590015  0.77461123  0.11517033  1  -0.213534  -0.002614  3.664982  -0.003  -0.235578  -0.000721  3.927477  -0.001  -0.248149  -0.000331  3.943201  -0.001  -0.088032  -0.227845  -0.001189  3.917572  -0.002
C  C43  1  0.25816360  0.77514323  0.38484348  1  -0.212002  -0.002657  3.663857  -0.003  -0.234177  -0.000729  3.925719  -0.001  -0.246772  -0.000336  3.941428  -0.001  -0.087856  -0.226439  -0.001199  3.915817  -0.002
C  C44  1  0.03410118  0.22538387  0.88483043  1  -0.213515  -0.002585  3.664965  -0.003  -0.235472  -0.000722  3.927467  -0.001  -0.248042  -0.000329  3.943193  -0.001  -0.088015  -0.227741  -0.001189  3.917558  -0.002
C  C45  1  0.74183148  0.22485800  0.61515599  1  -0.211901  -0.002682  3.663773  -0.003  -0.234077  -0.000729  3.925646  -0.001  -0.246674  -0.000337  3.941357  -0.001  -0.087873  -0.226334  -0.001199  3.915727  -0.002
C  C46  1  0.93092934  0.61498314  0.14487894  1  0.522264  0.003984  3.765826  0.004  0.487501  -0.000174  4.035383  0.0  0.519188  0.000322  4.037448  0.0  0.238146  0.466088  -0.000633  4.033609  0.0
C  C47  1  0.45309210  0.61558817  0.35509930  1  0.520352  0.003987  3.766239  0.004  0.486868  -0.000178  4.033823  0.0  0.518631  0.000317  4.035822  0.0  0.23827  0.465413  -0.000638  4.032067  0.0
C  C48  1  0.06907277  0.38501043  0.85512139  1  0.522343  0.003972  3.765782  0.004  0.487424  -0.000173  4.035554  0.0  0.51911  0.000321  4.037626  0.0  0.238121  0.466026  -0.000632  4.033744  0.0
C  C49  1  0.54691268  0.38441305  0.64490014  1  0.52041  0.004006  3.766251  0.004  0.486914  -0.000179  4.033842  0.0  0.518678  0.000318  4.035842  0.0  0.238305  0.465456  -0.000638  4.032078  0.0
C  C50  1  0.67791597  0.77235920  0.97205902  1  0.639522  0.000369  3.851028  0.0  0.585828  6.9e-05  4.163495  0.0  0.61973  8.8e-05  4.156293  0.0  0.222001  0.562685  2.8e-05  4.168152  0.0
C  C51  1  0.54880641  0.77267105  0.52792545  1  0.638557  0.000366  3.852746  0.0  0.58652  6.9e-05  4.162946  0.0  0.62042  8.7e-05  4.155738  0.0  0.221625  0.563375  2.4e-05  4.167589  0.0
C  C52  1  0.32208937  0.22763436  0.02794130  1  0.639462  0.000362  3.851102  0.0  0.585808  7e-05  4.163514  0.0  0.619708  8.9e-05  4.156317  0.0  0.221969  0.562657  2.8e-05  4.168183  0.0
C  C53  1  0.45118240  0.22733630  0.47207360  1  0.638574  0.000355  3.852576  0.0  0.586511  6.8e-05  4.16285  0.0  0.620411  8.6e-05  4.155641  0.0  0.221647  0.563365  2.4e-05  4.167501  0.0
C  C54  1  0.81299742  0.33293695  0.14112522  1  -0.164674  -0.009421  3.618804  -0.01  -0.230732  -0.005252  3.873547  -0.006  -0.230258  -0.003435  3.879006  -0.004  -0.061402  -0.230838  -0.006733  3.86967  -0.007
C  C55  1  0.85351575  0.33348221  0.35882400  1  -0.165512  -0.009456  3.618254  -0.01  -0.231612  -0.005262  3.873179  -0.006  -0.231303  -0.003439  3.87889  -0.004  -0.061636  -0.231577  -0.006748  3.869079  -0.007
C  C56  1  0.18700007  0.66706274  0.85887381  1  -0.16467  -0.009465  3.618719  -0.01  -0.230665  -0.005253  3.873404  -0.006  -0.230177  -0.003435  3.878841  -0.004  -0.061429  -0.230779  -0.006734  3.869546  -0.007
C  C57  1  0.14648825  0.66652361  0.64117760  1  -0.165301  -0.009492  3.618163  -0.01  -0.231515  -0.005261  3.873214  -0.006  -0.231195  -0.003439  3.87891  -0.004  -0.061707  -0.231462  -0.006747  3.869096  -0.007
C  C58  1  0.59950531  0.37880070  0.18291665  1  0.67955  0.00808  3.871965  0.008  0.637346  0.002242  4.190052  0.003  0.673374  0.00256  4.182831  0.003  0.202614  0.612806  0.001746  4.19397  0.003
C  C59  1  0.02129224  0.37912147  0.31704899  1  0.67882  0.008115  3.873754  0.008  0.636608  0.002246  4.191821  0.003  0.672699  0.002566  4.184605  0.003  0.201947  0.612029  0.001751  4.195721  0.003
C  C60  1  0.40049290  0.62119747  0.81708324  1  0.679465  0.008124  3.872204  0.008  0.637251  0.00224  4.190289  0.003  0.673277  0.002561  4.183069  0.003  0.20259  0.612706  0.001746  4.194217  0.003
C  C61  1  0.97871493  0.62088128  0.68295217  1  0.678712  0.008145  3.873845  0.008  0.636535  0.002245  4.191886  0.003  0.672624  0.002565  4.184674  0.003  0.201958  0.61194  0.00175  4.195794  0.003
N  N62  1  0.82772258  0.50958113  0.11313703  1  -0.093307  -0.004258  3.470154  -0.005  -0.000449  -0.003275  3.681186  -0.004  -0.019149  -0.002198  3.701776  -0.003  -0.220518  0.011669  -0.004188  3.667137  -0.005
N  N63  1  0.66187002  0.51013721  0.38683044  1  -0.092226  -0.004273  3.470453  -0.005  6.6e-05  -0.00328  3.681289  -0.004  -0.018593  -0.002199  3.701886  -0.003  -0.220366  0.012153  -0.004193  3.66721  -0.005
N  N64  1  0.17227798  0.49041549  0.88686373  1  -0.093346  -0.004246  3.470123  -0.005  -0.000457  -0.003275  3.681175  -0.004  -0.019158  -0.002198  3.701764  -0.003  -0.220488  0.011661  -0.004188  3.667116  -0.005
N  N65  1  0.33813247  0.48986861  0.61316900  1  -0.092406  -0.004273  3.470504  -0.005  -5e-05  -0.00328  3.681362  -0.004  -0.018714  -0.0022  3.70196  -0.003  -0.220316  0.012029  -0.004193  3.667278  -0.005
O  O66  1  0.73460969  0.91410547  0.94448777  1  -0.546773  -8.4e-05  2.050043  0.0  -0.495092  -0.0001  2.260754  0.0  -0.515876  -3.7e-05  2.247696  0.0  -0.328086  -0.480561  -0.000156  2.269637  0.0
O  O67  1  0.35041817  0.91456132  0.55559190  1  -0.546208  -8.4e-05  2.049906  0.0  -0.495114  -0.0001  2.260302  0.0  -0.515919  -3.4e-05  2.247204  0.0  -0.328104  -0.480575  -0.000157  2.269211  0.0
O  O68  1  0.26539893  0.08588809  0.05551167  1  -0.546687  -8.1e-05  2.049974  0.0  -0.495059  -0.000102  2.260701  0.0  -0.515843  -3.3e-05  2.247646  0.0  -0.328089  -0.480526  -0.000156  2.269587  0.0
O  O69  1  0.64956658  0.08544450  0.44440673  1  -0.546145  -9e-05  2.049793  0.0  -0.495048  -9.6e-05  2.260202  0.0  -0.515858  -3.9e-05  2.247104  0.0  -0.328133  -0.48051  -0.000157  2.269121  0.0
O  O70  1  0.55731944  0.69755180  0.94878772  1  -0.544663  -4.6e-05  1.945897  0.0  -0.505878  9e-06  2.170029  0.0  -0.526419  6.1e-05  2.162467  0.0  -0.283532  -0.49208  -9.5e-05  2.175161  0.0
O  O71  1  0.74451534  0.69760314  0.55111736  1  -0.544492  -5.5e-05  1.945148  0.0  -0.506568  1e-06  2.168712  0.0  -0.527179  5.4e-05  2.161282  0.0  -0.283651  -0.492741  -0.0001  2.173756  0.0
O  O72  1  0.44268673  0.30244023  0.05121129  1  -0.544622  -4.5e-05  1.945915  0.0  -0.505869  1.1e-05  2.170056  0.0  -0.526407  5.6e-05  2.162495  0.0  -0.283506  -0.492072  -9.5e-05  2.175197  0.0
O  O73  1  0.25547383  0.30241646  0.44888123  1  -0.544489  -4e-05  1.945035  0.0  -0.506534  -4e-06  2.168594  0.0  -0.527145  6e-05  2.161171  0.0  -0.283616  -0.492703  -0.0001  2.17364  0.0
O  O74  1  0.98355505  0.55610701  0.19620314  1  -0.525745  -0.051846  2.140402  -0.073  -0.498125  -0.0366  2.410681  -0.056  -0.532599  -0.027239  2.401546  -0.045  -0.285642  -0.474945  -0.043452  2.417071  -0.063
O  O75  1  0.45959284  0.55670959  0.30375942  1  -0.525411  -0.051812  2.14127  -0.073  -0.498106  -0.036627  2.410764  -0.056  -0.53264  -0.02726  2.401608  -0.045  -0.285773  -0.474897  -0.043492  2.417165  -0.063
O  O76  1  0.01644553  0.44388962  0.80379718  1  -0.525769  -0.05185  2.140455  -0.073  -0.498097  -0.036601  2.410812  -0.056  -0.532575  -0.027239  2.401685  -0.045  -0.285635  -0.47492  -0.043455  2.417189  -0.063
O  O77  1  0.54041269  0.44329010  0.69624045  1  -0.525467  -0.051815  2.141238  -0.073  -0.498136  -0.036627  2.410715  -0.056  -0.532673  -0.02726  2.401562  -0.045  -0.285789  -0.474916  -0.043493  2.417106  -0.063
O  O78  1  0.60099597  0.22791415  0.21011507  1  -0.606567  -0.000465  1.930486  -0.002  -0.570835  0.000479  2.151163  -0.001  -0.596943  0.001371  2.140742  0.0  -0.317039  -0.552388  -0.000389  2.157802  -0.002
O  O79  1  0.17088467  0.22805839  0.28989223  1  -0.605769  -0.000475  1.928912  -0.002  -0.570245  0.000476  2.149563  -0.001  -0.596343  0.001362  2.139116  0.0  -0.316655  -0.551813  -0.000393  2.156221  -0.002
O  O80  1  0.39900220  0.77208401  0.78988569  1  -0.60651  -0.000483  1.930561  -0.002  -0.570787  0.00048  2.151237  -0.001  -0.596897  0.001369  2.14082  0.0  -0.317  -0.552337  -0.00039  2.15788  -0.002
O  O81  1  0.82911987  0.77193977  0.71011068  1  -0.605765  -0.000487  1.928928  -0.002  -0.570236  0.000476  2.149565  -0.001  -0.596336  0.001361  2.13912  0.0  -0.316702  -0.551799  -0.000393  2.156223  -0.002
O  O82  1  0.43867766  0.56439428  0.18555972  1  -0.60427  -0.087618  1.994542  -0.122  -0.59096  -0.049982  2.26936  -0.077  -0.632635  -0.035618  2.262016  -0.06  -0.33026  -0.562144  -0.060069  2.273757  -0.087
O  O83  1  0.99638200  0.56465566  0.31437904  1  -0.603899  -0.087763  1.996857  -0.122  -0.590779  -0.050055  2.271877  -0.077  -0.632413  -0.035668  2.264423  -0.06  -0.330255  -0.561963  -0.06016  2.276293  -0.087
O  O84  1  0.56131582  0.43560695  0.81443975  1  -0.604243  -0.087615  1.994623  -0.122  -0.590935  -0.049981  2.269443  -0.077  -0.632612  -0.035616  2.262105  -0.06  -0.330272  -0.562116  -0.060067  2.273842  -0.087
O  O85  1  0.00361964  0.43534863  0.68562040  1  -0.603819  -0.087766  1.996871  -0.122  -0.590715  -0.050054  2.271886  -0.077  -0.632346  -0.035667  2.264426  -0.06  -0.3302  -0.561895  -0.060163  2.276303  -0.087
O  O86  1  0.02818298  0.94374244  0.24997060  1  -0.889449  0.002821  1.831018  0.001  -0.85183  0.002608  1.999715  0.001  -0.871311  0.002787  1.960707  0.001  -0.610687  -0.837887  0.002286  2.027078  0.001
O  O87  1  0.97182491  0.05625572  0.75002970  1  -0.889578  0.00282  1.830979  0.001  -0.851977  0.002608  1.999652  0.001  -0.871458  0.002787  1.960638  0.001  -0.61075  -0.838025  0.002285  2.027023  0.001
