# generated using pymatgen
data_CdH9C14NO7
_symmetry_space_group_name_H-M   'P 1'
_cell_length_a   7.47748504
_cell_length_b   10.22501986
_cell_length_c   10.78286909
_cell_angle_alpha   118.27681120
_cell_angle_beta   91.72003555
_cell_angle_gamma   107.47141351
_symmetry_Int_Tables_number   1
_chemical_formula_structural   CdH9C14NO7
_chemical_formula_sum   'Cd2 H18 C28 N2 O14'
_cell_volume   677.84081863
_cell_formula_units_Z   2
loop_
 _symmetry_equiv_pos_site_id
 _symmetry_equiv_pos_as_xyz
  1  'x, y, z'
loop_
 _atom_site_type_symbol
 _atom_site_label
 _atom_site_symmetry_multiplicity
 _atom_site_fract_x
 _atom_site_fract_y
 _atom_site_fract_z
 _atom_site_occupancy
 _atom_site_hle17_bader_spin_density
 _atom_site_hle17_ddec_charge
 _atom_site_hle17_ddec_spin_density
 _atom_site_hle17_ddec_sum_bond_order
 _atom_site_hle17_magmom
 _atom_site_hse06_10hf_bader_spin_density
 _atom_site_hse06_10hf_ddec_charge
 _atom_site_hse06_10hf_ddec_spin_density
 _atom_site_hse06_10hf_ddec_sum_bond_order
 _atom_site_hse06_10hf_magmom
 _atom_site_hse06_bader_spin_density
 _atom_site_hse06_ddec_charge
 _atom_site_hse06_ddec_spin_density
 _atom_site_hse06_ddec_sum_bond_order
 _atom_site_hse06_magmom
 _atom_site_pbe_bader_spin_density
 _atom_site_pbe_cm5_charge
 _atom_site_pbe_ddec_charge
 _atom_site_pbe_ddec_spin_density
 _atom_site_pbe_ddec_sum_bond_order
 _atom_site_pbe_magmom
Cd  Cd0  1  0.85358619  0.14035968  0.04598862  1  0  1.2812  0  1.57669  0  0  1.11501  0  2.022782  0  0  1.174481  0  1.960636  0  0  0.783934  1.068247  0  2.068801  0
Cd  Cd1  1  0.14641146  0.85963743  0.95401024  1  0  1.281236  0  1.576609  0  0  1.115034  0  2.022702  0  0  1.174513  0  1.960543  0  0  0.783946  1.068248  0  2.068768  0
H  H2  1  0.84620011  0.63155845  0.04615027  1  0  0.128312  0  0.948009  0  0  0.134162  0  1.016937  0  0  0.138485  0  1.013005  0  0  0.11297  0.131072  0  1.019813  0
H  H3  1  0.15380224  0.36844342  0.95385080  1  0  0.128295  0  0.948054  0  0  0.134151  0  1.016983  0  0  0.138478  0  1.01304  0  0  0.112957  0.13106  0  1.019861  0
H  H4  1  0.44409508  0.43414734  0.24496826  1  0  0.138395  0  0.929199  0  0  0.14228  0  0.997909  0  0  0.147203  0  0.9931  0  0  0.118744  0.138659  0  1.00135  0
H  H5  1  0.55590003  0.56584379  0.75502512  1  0  0.138421  0  0.929156  0  0  0.142276  0  0.997904  0  0  0.147205  0  0.993077  0  0  0.118754  0.138656  0  1.001342  0
H  H6  1  0.47511027  0.87579365  0.27196768  1  0  0.121763  0  0.96063  0  0  0.129117  0  1.027049  0  0  0.133323  0  1.023217  0  0  0.114843  0.126237  0  1.029434  0
H  H7  1  0.52489616  0.12420835  0.72804373  1  0  0.12174  0  0.960764  0  0  0.129099  0  1.02717  0  0  0.133303  0  1.023335  0  0  0.114842  0.126205  0  1.029559  0
H  H8  1  0.47218848  0.64555291  0.49803979  1  0  0.118385  0  0.953159  0  0  0.124455  0  1.017154  0  0  0.128008  0  1.014002  0  0  0.132517  0.121891  0  1.019398  0
H  H9  1  0.52780866  0.35444300  0.50195760  1  0  0.118441  0  0.953089  0  0  0.12444  0  1.017158  0  0  0.127992  0  1.014003  0  0  0.132517  0.121876  0  1.019401  0
H  H10  1  0.23760123  0.66796628  0.66215162  1  0  0.134202  0  0.977116  0  0  0.13836  0  1.041323  0  0  0.142694  0  1.039279  0  0  0.116291  0.135057  0  1.043229  0
H  H11  1  0.76240044  0.33204033  0.33785061  1  0  0.134184  0  0.977101  0  0  0.138322  0  1.041318  0  0  0.14265  0  1.039296  0  0  0.116314  0.135018  0  1.043224  0
H  H12  1  0.90043146  0.74809918  0.39180177  1  0  0.120226  0  0.961542  0  0  0.126026  0  1.024498  0  0  0.129357  0  1.024297  0  0  0.113594  0.123699  0  1.024745  0
H  H13  1  0.09956834  0.25189671  0.60819289  1  0  0.120242  0  0.961512  0  0  0.126042  0  1.024463  0  0  0.129374  0  1.024264  0  0  0.113588  0.123714  0  1.024713  0
H  H14  1  0.13854678  0.70438207  0.22585548  1  0  0.129034  0  0.924562  0  0  0.134519  0  0.989189  0  0  0.138076  0  0.985812  0  0  0.139407  0.131673  0  0.992001  0
H  H15  1  0.86145587  0.29561740  0.77414082  1  0  0.129065  0  0.924591  0  0  0.134491  0  0.989281  0  0  0.138048  0  0.985905  0  0  0.139392  0.131646  0  0.992093  0
H  H16  1  0.70428469  0.89980257  0.74354015  1  0  0.432288  0  0.866797  0  0  0.399552  0  0.932564  0  0  0.411461  0  0.915285  0  0  0.284638  0.390982  0  0.944983  0
H  H17  1  0.29571581  0.10019811  0.25646035  1  0  0.432379  0  0.866672  0  0  0.39959  0  0.932513  0  0  0.411498  0  0.915236  0  0  0.28466  0.391021  0  0.944932  0
H  H18  1  0.54628766  0.97722857  0.81582600  1  0  0.433717  0  0.864765  0  0  0.403743  0  0.926421  0  0  0.414671  0  0.910605  0  0  0.292237  0.395771  0  0.938051  0
H  H19  1  0.45371286  0.02277213  0.18417730  1  0  0.433742  0  0.86473  0  0  0.403769  0  0.926386  0  0  0.4147  0  0.910567  0  0  0.292247  0.395796  0  0.93802  0
C  C20  1  0.72532760  0.38570543  0.09944785  1  0  0.610871  0  3.97314  0  0  0.561936  0  4.265074  0  0  0.594831  0  4.263374  0  0  0.185436  0.539654  0  4.264799  0
C  C21  1  0.27467538  0.61429165  0.90054555  1  0  0.611025  0  3.973091  0  0  0.562097  0  4.265007  0  0  0.594993  0  4.263303  0  0  0.185497  0.539817  0  4.264733  0
C  C22  1  0.65481467  0.52147260  0.14304058  1  0  -0.049914  0  3.754603  0  0  -0.021027  0  3.985801  0  0  -0.030844  0  4.010744  0  0  -0.009945  -0.01517  0  3.969795  0
C  C23  1  0.34518114  0.47852332  0.85695865  1  0  -0.04997  0  3.754747  0  0  -0.021083  0  3.985946  0  0  -0.030905  0  4.010894  0  0  -0.009967  -0.01523  0  3.96995  0
C  C24  1  0.73396665  0.63990933  0.10876897  1  0  -0.065238  0  3.648744  0  0  -0.102925  0  3.895062  0  0  -0.100153  0  3.913973  0  0  -0.066763  -0.104844  0  3.883592  0
C  C25  1  0.26603656  0.36009141  0.89123626  1  0  -0.065189  0  3.648818  0  0  -0.102919  0  3.895154  0  0  -0.100148  0  3.914072  0  0  -0.066755  -0.104838  0  3.883683  0
C  C26  1  0.66869245  0.76733260  0.15441719  1  0  -0.050816  0  3.736342  0  0  -0.022317  0  3.969615  0  0  -0.032107  0  3.992752  0  0  -0.011045  -0.016523  0  3.955081  0
C  C27  1  0.33130706  0.23266574  0.84558597  1  0  -0.050872  0  3.736279  0  0  -0.022333  0  3.969488  0  0  -0.032127  0  3.992628  0  0  -0.011046  -0.016537  0  3.954951  0
C  C28  1  0.74544852  0.89411627  0.11661869  1  0  0.67118  0  3.887042  0  0  0.61637  0  4.176107  0  0  0.652006  0  4.169687  0  0  0.209847  0.59194  0  4.179691  0
C  C29  1  0.25455786  0.10588564  0.88338434  1  0  0.671231  0  3.886899  0  0  0.616475  0  4.175868  0  0  0.652111  0  4.169447  0  0  0.209909  0.592044  0  4.179451  0
C  C30  1  0.50995102  0.52944419  0.22277343  1  0  -0.111017  0  3.654944  0  0  -0.149518  0  3.912753  0  0  -0.147307  0  3.928276  0  0  -0.066814  -0.149842  0  3.901783  0
C  C31  1  0.49004698  0.47055058  0.77722719  1  0  -0.111084  0  3.65507  0  0  -0.149555  0  3.912874  0  0  -0.147341  0  3.928399  0  0  -0.066814  -0.14988  0  3.901901  0
C  C32  1  0.44947921  0.65808824  0.26890179  1  0  0.149898  0  3.759617  0  0  0.146448  0  4.014605  0  0  0.147387  0  4.037502  0  0  0.094754  0.145519  0  3.998837  0
C  C33  1  0.55051895  0.34191007  0.73109948  1  0  0.149982  0  3.759651  0  0  0.146541  0  4.01462  0  0  0.14748  0  4.037516  0  0  0.094781  0.145616  0  3.99884  0
C  C34  1  0.52581495  0.77679187  0.23580815  1  0  -0.117533  0  3.680775  0  0  -0.156561  0  3.933348  0  0  -0.154582  0  3.950349  0  0  -0.072626  -0.156814  0  3.921186  0
C  C35  1  0.47418841  0.22320293  0.76419258  1  0  -0.117512  0  3.680777  0  0  -0.156569  0  3.93335  0  0  -0.154585  0  3.950347  0  0  -0.072633  -0.156806  0  3.921191  0
C  C36  1  0.33829912  0.66029980  0.47673565  1  0  0.109586  0  3.544485  0  0  0.068613  0  3.792861  0  0  0.076755  0  3.806038  0  0  0.071611  0.063298  0  3.783966  0
C  C37  1  0.66170004  0.33970088  0.52326576  1  0  0.109473  0  3.544419  0  0  0.068583  0  3.79277  0  0  0.076731  0  3.805941  0  0  0.071596  0.063271  0  3.783872  0
C  C38  1  0.20910156  0.67586180  0.56662668  1  0  -0.095717  0  3.678406  0  0  -0.118205  0  3.932712  0  0  -0.1242  0  3.950894  0  0  -0.064141  -0.114428  0  3.92068  0
C  C39  1  0.79089910  0.32414242  0.43337354  1  0  -0.095639  0  3.678183  0  0  -0.118136  0  3.932514  0  0  -0.124134  0  3.950691  0  0  -0.06416  -0.114359  0  3.920482  0
C  C40  1  0.04881142  0.70789270  0.53718309  1  0  0.02122  0  3.659848  0  0  0.033938  0  3.89818  0  0  0.03547  0  3.915447  0  0  0.01954  0.033213  0  3.886262  0
C  C41  1  0.95119057  0.29211153  0.46281716  1  0  0.021301  0  3.659636  0  0  0.034051  0  3.897972  0  0  0.035581  0  3.91524  0  0  0.019569  0.033325  0  3.886052  0
C  C42  1  0.02366915  0.72247312  0.41589330  1  0  -0.101272  0  3.682325  0  0  -0.122583  0  3.931184  0  0  -0.129072  0  3.950349  0  0  -0.063383  -0.118747  0  3.918586  0
C  C43  1  0.97633217  0.27752635  0.58410391  1  0  -0.101383  0  3.682301  0  0  -0.122682  0  3.931129  0  0  -0.129175  0  3.950297  0  0  -0.063417  -0.118845  0  3.918532  0
C  C44  1  0.15305347  0.70169333  0.32549724  1  0  0.112892  0  3.534438  0  0  0.072882  0  3.781919  0  0  0.082062  0  3.794464  0  0  0.07767  0.066776  0  3.773769  0
C  C45  1  0.84694367  0.29830258  0.67450016  1  0  0.112894  0  3.534585  0  0  0.072926  0  3.782057  0  0  0.082106  0  3.794604  0  0  0.077706  0.06682  0  3.77391  0
C  C46  1  0.90426807  0.72614930  0.63509695  1  0  0.643311  0  3.934708  0  0  0.593134  0  4.235225  0  0  0.626005  0  4.227646  0  0  0.207189  0.570737  0  4.239584  0
C  C47  1  0.09572953  0.27385721  0.36489773  1  0  0.643137  0  3.934742  0  0  0.592872  0  4.235394  0  0  0.625745  0  4.227814  0  0  0.207001  0.570474  0  4.239757  0
N  N48  1  0.30843303  0.67251346  0.35824864  1  0  -0.018911  0  3.561867  0  0  0.071376  0  3.762392  0  0  0.059203  0  3.787266  0  0  -0.184726  0.079229  0  3.745802  0
N  N49  1  0.69156730  0.32748366  0.64175121  1  0  -0.018908  0  3.561948  0  0  0.071367  0  3.762445  0  0  0.059193  0  3.787318  0  0  -0.184722  0.079218  0  3.745855  0
O  O50  1  0.64290398  0.28308614  0.13495468  1  0  -0.641552  0  1.978954  0  0  -0.577929  0  2.212562  0  0  -0.606483  0  2.204191  0  0  -0.329086  -0.556403  0  2.218576  0
O  O51  1  0.35709770  0.71691100  0.86504614  1  0  -0.641582  0  1.979093  0  0  -0.577984  0  2.212728  0  0  -0.606538  0  2.204352  0  0  -0.329115  -0.556451  0  2.218726  0
O  O52  1  0.86341187  0.37981369  0.03383679  1  0  -0.632443  0  1.951251  0  0  -0.579202  0  2.195337  0  0  -0.607321  0  2.187428  0  0  -0.323258  -0.558621  0  2.199537  0
O  O53  1  0.13658846  0.62018343  0.96616213  1  0  -0.632552  0  1.951054  0  0  -0.579294  0  2.195119  0  0  -0.607415  0  2.187209  0  0  -0.323267  -0.558706  0  2.199314  0
O  O54  1  0.87435196  0.88985990  0.04232488  1  0  -0.674209  0  2.080573  0  0  -0.601871  0  2.346544  0  0  -0.633974  0  2.333391  0  0  -0.325882  -0.577806  0  2.353976  0
O  O55  1  0.12565192  0.11014558  0.95768153  1  0  -0.67428  0  2.080505  0  0  -0.601964  0  2.346425  0  0  -0.634053  0  2.333239  0  0  -0.325941  -0.577913  0  2.353889  0
O  O56  1  0.67733957  0.00537299  0.16001425  1  0  -0.660572  0  2.053843  0  0  -0.589033  0  2.290995  0  0  -0.620063  0  2.28321  0  0  -0.309656  -0.56644  0  2.297432  0
O  O57  1  0.32266332  0.99463014  0.83999389  1  0  -0.660593  0  2.053831  0  0  -0.589047  0  2.2909  0  0  -0.620074  0  2.283109  0  0  -0.309679  -0.566452  0  2.297337  0
O  O58  1  0.77043097  0.76503241  0.60539986  1  0  -0.623521  0  1.944915  0  0  -0.572579  0  2.164017  0  0  -0.596265  0  2.153723  0  0  -0.31988  -0.556385  0  2.170774  0
O  O59  1  0.22957114  0.23497528  0.39459266  1  0  -0.623396  0  1.944914  0  0  -0.572392  0  2.164056  0  0  -0.596078  0  2.153761  0  0  -0.319755  -0.556199  0  2.170815  0
O  O60  1  0.92706810  0.69750672  0.73567620  1  0  -0.656642  0  2.015711  0  0  -0.604591  0  2.278318  0  0  -0.6316  0  2.267104  0  0  -0.337411  -0.585113  0  2.285404  0
O  O61  1  0.07291946  0.30249502  0.26431896  1  0  -0.65662  0  2.015754  0  0  -0.604547  0  2.278417  0  0  -0.63154  0  2.267174  0  0  -0.337358  -0.585063  0  2.285493  0
O  O62  1  0.68436781  0.99951470  0.81390724  1  0  -0.857108  0  1.856557  0  0  -0.793562  0  2.052221  0  0  -0.817507  0  2.01583  0  0  -0.590611  -0.776491  0  2.077895  0
O  O63  1  0.31563135  0.00048598  0.18609416  1  0  -0.857223  0  1.85638  0  0  -0.793642  0  2.052131  0  0  -0.817588  0  2.01574  0  0  -0.590646  -0.776571  0  2.077809  0
