# generated using pymatgen
data_MnH3C3N3ClO
_symmetry_space_group_name_H-M   'P 1'
_cell_length_a   8.27666725
_cell_length_b   14.28549098
_cell_length_c   14.28049077
_cell_angle_alpha   116.54252367
_cell_angle_beta   101.47218795
_cell_angle_gamma   101.46259750
_symmetry_Int_Tables_number   1
_chemical_formula_structural   MnH3C3N3ClO
_chemical_formula_sum   'Mn6 H18 C18 N18 Cl6 O6'
_cell_volume   1398.41606800
_cell_formula_units_Z   6
loop_
 _symmetry_equiv_pos_site_id
 _symmetry_equiv_pos_as_xyz
  1  'x, y, z'
loop_
 _atom_site_type_symbol
 _atom_site_label
 _atom_site_symmetry_multiplicity
 _atom_site_fract_x
 _atom_site_fract_y
 _atom_site_fract_z
 _atom_site_occupancy
 _atom_site_hle17_bader_charge
 _atom_site_hle17_bader_spin_density
 _atom_site_hle17_ddec_charge
 _atom_site_hle17_ddec_spin_density
 _atom_site_hle17_ddec_sum_bond_order
 _atom_site_hle17_magmom
 _atom_site_hse06_10hf_ddec_charge
 _atom_site_hse06_10hf_ddec_spin_density
 _atom_site_hse06_10hf_ddec_sum_bond_order
 _atom_site_hse06_10hf_magmom
 _atom_site_hse06_ddec_charge
 _atom_site_hse06_ddec_spin_density
 _atom_site_hse06_ddec_sum_bond_order
 _atom_site_hse06_magmom
 _atom_site_pbe_cm5_charge
 _atom_site_pbe_ddec_charge
 _atom_site_pbe_ddec_spin_density
 _atom_site_pbe_ddec_sum_bond_order
 _atom_site_pbe_magmom
Mn  Mn0  1  0.71369227  0.70767889  0.43354799  1  1.484038  4.639509  0.897297  4.729187  2.125017  4.6  0.73224  4.619087  2.650597  4.444  0.793984  4.70378  2.579825  4.532  0.552076  0.679872  4.530111  2.70823  4.343
Mn  Mn1  1  0.99413633  0.70499502  0.28247188  1  1.280892  1.292517  0.545051  1.308257  3.069328  1.295  0.484105  1.194418  3.605865  1.163  0.520871  1.115947  3.553443  1.089  0.589685  0.455736  1.238669  3.640824  1.202
Mn  Mn2  1  0.28081120  0.56652339  0.27790683  1  1.282114  1.351743  0.542805  1.369919  3.069103  1.353  0.484587  1.244914  3.602962  1.21  0.520617  1.155989  3.551683  1.125  0.58382  0.43736  1.200636  3.652564  1.164
Mn  Mn3  1  0.28070212  0.27764782  0.56650141  1  1.281045  1.35154  0.54313  1.369987  3.068566  1.353  0.485377  1.245086  3.602105  1.21  0.521566  1.156069  3.550783  1.125  0.584132  0.438265  1.201251  3.651635  1.164
Mn  Mn4  1  0.99410717  0.28230701  0.70507528  1  1.282951  1.292052  0.544613  1.308149  3.069217  1.294  0.483282  1.194356  3.606181  1.163  0.519974  1.115859  3.553769  1.088  0.589065  0.454859  1.238711  3.641239  1.201
Mn  Mn5  1  0.71360927  0.43320063  0.70769307  1  1.48594  4.63894  0.897447  4.730675  2.126139  4.6  0.732687  4.620781  2.652002  4.444  0.794372  4.705587  2.581195  4.532  0.552391  0.680417  4.531536  2.709591  4.343
H  H6  1  0.75618230  0.87537117  0.64737918  1  0.625148  0.000646  0.428609  -0.00013  0.808628  0.0  0.409142  0.001237  0.869188  0.001  0.418542  0.000604  0.857877  0.001  0.329022  0.40137  0.002153  0.878955  0.001
H  H7  1  0.93352462  0.85485976  0.24494783  1  0.622797  0.000473  0.418728  3.9e-05  0.822959  0.0  0.397867  0.000158  0.887626  0.0  0.407346  7.5e-05  0.876558  0.0  0.314186  0.390634  0.000416  0.896005  0.0
H  H8  1  0.09744657  0.35845827  0.20440951  1  0.638387  0.000193  0.416988  2e-05  0.81489  0.0  0.402479  5.7e-05  0.867863  0.0  0.408903  0.000117  0.861504  0.0  0.329507  0.397033  0.000114  0.872979  0.0
H  H9  1  0.10829167  0.85200245  0.22175942  1  0.644203  1.9e-05  0.421178  -0.000181  0.810339  0.0  0.406768  -9.6e-05  0.862866  0.0  0.413145  -1e-05  0.856668  0.0  0.332596  0.401892  -1e-05  0.867315  0.0
H  H10  1  0.94001551  0.87163800  0.64132776  1  0.645728  0.000527  0.430926  -0.000202  0.802476  0.0  0.413093  0.001054  0.859241  0.001  0.423244  0.00041  0.847035  0.001  0.331882  0.404592  0.001971  0.870059  0.001
H  H11  1  0.29733813  0.37837877  0.23194175  1  0.629189  0.000561  0.41234  7.3e-05  0.835764  0.0  0.388733  0.000332  0.906996  0.0  0.398713  0.000147  0.894737  0.0  0.307163  0.380785  0.00081  0.916784  0.0
H  H12  1  0.29715648  0.23151366  0.37831299  1  0.631583  0.000566  0.412379  7.7e-05  0.836138  0.0  0.388737  0.000339  0.907364  0.0  0.398994  0.000153  0.895444  0.0  0.307319  0.380769  0.000816  0.917148  0.0
H  H13  1  0.10824306  0.22173212  0.85229634  1  0.641784  1.9e-05  0.421269  -0.000181  0.810096  0.0  0.407011  -9.5e-05  0.862397  0.0  0.413381  -9e-06  0.85621  0.0  0.3325  0.402162  -6e-06  0.866823  0.0
H  H14  1  0.93935977  0.64276441  0.86993324  1  0.612762  0.000594  0.430627  -0.000177  0.802877  0.0  0.412964  0.001112  0.859323  0.001  0.423076  0.000445  0.847181  0.001  0.332031  0.404455  0.002064  0.870145  0.001
H  H15  1  0.93347149  0.24494402  0.85506637  1  0.620928  0.000473  0.417803  3.8e-05  0.823481  0.0  0.396925  0.00016  0.888271  0.0  0.406409  7.6e-05  0.877203  0.0  0.313604  0.389705  0.000424  0.896639  0.0
H  H16  1  0.09724429  0.20394932  0.35832409  1  0.600531  0.000196  0.415859  2e-05  0.815742  0.0  0.401331  5.9e-05  0.868824  0.0  0.407821  0.000118  0.862354  0.0  0.329083  0.395881  0.000116  0.873942  0.0
H  H17  1  0.75498631  0.64783219  0.87342089  1  0.633445  0.00067  0.430944  -0.00011  0.808069  0.001  0.4114  0.001283  0.868645  0.001  0.420828  0.000628  0.8573  0.001  0.330739  0.403567  0.002228  0.878508  0.001
H  H18  1  0.79910440  0.99190149  0.56293478  1  0.062797  0.000787  0.118967  -0.000172  0.983986  0.001  0.12687  -0.00072  1.051709  0.0  0.131899  -0.000693  1.047176  0.0  0.09588  0.123829  -0.00071  1.054383  0.0
H  H19  1  0.79897113  0.56318206  0.99195032  1  0.020975  0.000698  0.11934  -0.000162  0.98334  0.001  0.127362  -0.000705  1.050816  0.0  0.132312  -0.000681  1.046397  0.0  0.095936  0.12435  -0.000692  1.053453  0.0
H  H20  1  0.23442325  0.41434244  0.41441493  1  0.042051  0.001241  0.102229  0.000969  1.038587  0.0  0.104632  0.001781  1.117846  0.001  0.112277  0.001363  1.107901  0.0  0.079625  0.100522  0.002309  1.122906  0.001
H  H21  1  0.17981856  0.99203097  0.42600355  1  0.033973  0.000679  0.121185  0.000343  0.995016  0.0  0.128328  0.00058  1.063163  0.0  0.13476  0.00037  1.055784  0.0  0.092864  0.124157  0.000882  1.067461  0.0
H  H22  1  0.78840963  0.57361430  0.57381281  1  0.06195  0.002516  0.13436  0.001284  0.944052  0.002  0.14491  0.000506  1.003376  0.0  0.148911  0.000383  0.999873  0.0  0.109107  0.143473  0.000597  1.004049  0.0
H  H23  1  0.17992413  0.42592634  0.99219313  1  0.03354  0.000679  0.121398  0.000343  0.995019  0.0  0.128462  0.000581  1.063148  0.0  0.134939  0.000371  1.055724  0.0  0.092933  0.124286  0.000885  1.067457  0.0
C  C24  1  0.52408339  0.89398736  0.46829801  1  0.309805  0.018605  0.142212  0.014356  3.856559  0.016  0.135639  0.008888  4.111963  0.011  0.136013  0.00775  4.134144  0.009  0.090662  0.134095  0.009703  4.097054  0.011
C  C25  1  0.62640215  0.56305004  0.08910610  1  0.367253  0.007657  0.140604  0.00461  3.800934  0.006  0.134442  -0.000667  4.056806  0.001  0.137968  -0.001796  4.074463  0.0  0.09315  0.132781  0.003337  4.044259  0.005
C  C26  1  0.06894465  0.51672158  0.41901208  1  0.334726  -0.009206  0.14104  -0.010122  3.797735  -0.007  0.135526  -0.005758  4.054825  -0.003  0.140431  -0.002255  4.073717  0.0  0.087401  0.130522  -0.007836  4.037829  -0.006
C  C27  1  0.35030185  0.89271590  0.42625323  1  0.341143  0.00495  0.133493  0.003776  3.809822  0.004  0.12915  0.003282  4.06605  0.004  0.131503  0.004272  4.086107  0.005  0.088617  0.125133  0.001322  4.050895  0.001
C  C28  1  0.94600874  0.56231758  0.46592577  1  0.369848  0.024046  0.14564  0.018394  3.858562  0.021  0.138035  0.007818  4.114157  0.01  0.138122  0.005998  4.134446  0.008  0.092188  0.139637  0.014443  4.096566  0.016
C  C29  1  0.45215738  0.52349990  0.08819799  1  0.325677  -0.00402  0.138846  -0.006173  3.79571  -0.004  0.133567  -0.004366  4.051482  -0.001  0.137342  -0.002381  4.06964  0.0  0.091693  0.130706  -0.003826  4.036348  -0.002
C  C30  1  0.45206315  0.08801881  0.52358328  1  0.311524  -0.004004  0.137625  -0.006174  3.797173  -0.004  0.132991  -0.004377  4.051938  -0.001  0.136727  -0.002385  4.070148  0.0  0.091245  0.130139  -0.003827  4.036747  -0.002
C  C31  1  0.35032220  0.42619449  0.89281818  1  0.343468  0.004931  0.133731  0.003755  3.811514  0.004  0.129541  0.00326  4.067301  0.004  0.131888  0.004246  4.087374  0.005  0.088874  0.125525  0.001306  4.052141  0.001
C  C32  1  0.94596857  0.46572770  0.56237726  1  0.37877  0.024022  0.145896  0.018397  3.857025  0.021  0.137866  0.007808  4.113514  0.01  0.138011  0.005984  4.13376  0.008  0.091718  0.139456  0.01444  4.095925  0.016
C  C33  1  0.62636078  0.08895607  0.56308813  1  0.370595  0.00766  0.139844  0.004603  3.802734  0.006  0.13422  -0.000685  4.057313  0.001  0.137777  -0.001818  4.074979  0.0  0.092997  0.132557  0.00332  4.04475  0.005
C  C34  1  0.06888871  0.41883064  0.51674117  1  0.320683  -0.009225  0.14076  -0.010147  3.798011  -0.007  0.135202  -0.005775  4.055513  -0.003  0.140037  -0.002281  4.074452  0.0  0.08703  0.130215  -0.007847  4.038519  -0.006
C  C35  1  0.52404287  0.46828656  0.89407208  1  0.309896  0.018545  0.141068  0.014303  3.857867  0.016  0.134694  0.00886  4.113029  0.011  0.135043  0.00772  4.135196  0.009  0.090177  0.133174  0.009702  4.09812  0.011
C  C36  1  0.66615056  0.99138422  0.53671024  1  0.175492  -0.041206  -0.236882  -0.0425  3.733969  -0.027  -0.267795  -0.023619  3.996868  -0.014  -0.263473  -0.012934  4.005541  -0.007  -0.112263  -0.268081  -0.026638  3.988167  -0.016
C  C37  1  0.66611187  0.53675311  0.99148863  1  0.220051  -0.040997  -0.236673  -0.042377  3.733373  -0.027  -0.26753  -0.023513  3.996288  -0.014  -0.263153  -0.012881  4.005097  -0.007  -0.112267  -0.267815  -0.026548  3.987475  -0.016
C  C38  1  0.13238231  0.44315143  0.44323054  1  0.114768  0.002112  -0.266432  0.001426  3.766072  0.002  -0.298617  -0.004156  4.036947  -0.001  -0.296257  -0.004831  4.042636  -0.002  -0.124577  -0.291448  0.007467  4.023369  0.007
C  C39  1  0.31064136  0.99023625  0.45327957  1  0.207329  -0.012335  -0.229407  -0.012835  3.733504  -0.008  -0.262876  -0.012794  3.997162  -0.007  -0.258082  -0.010836  4.002681  -0.006  -0.109567  -0.25901  0.002491  3.986684  0.003
C  C40  1  0.88193042  0.53866061  0.53880879  1  0.166118  -0.070501  -0.218646  -0.072671  3.712249  -0.047  -0.248595  -0.037174  3.972469  -0.022  -0.242603  -0.024421  3.982345  -0.014  -0.102744  -0.247793  -0.039758  3.957844  -0.024
C  C41  1  0.31072435  0.45321184  0.99038924  1  0.192443  -0.012218  -0.229782  -0.012725  3.734191  -0.008  -0.262926  -0.012703  3.997963  -0.007  -0.258211  -0.010763  4.003436  -0.006  -0.109538  -0.259037  0.002582  3.987487  0.003
N  N42  1  0.51867293  0.78624265  0.42792060  1  -0.729965  -0.017831  -0.317824  -0.026117  3.143322  -0.032  -0.269789  -0.004623  3.439195  -0.016  -0.281808  0.005266  3.445215  -0.009  -0.253781  -0.258527  -0.004597  3.430913  -0.015
N  N43  1  0.73060611  0.62614003  0.19830195  1  -0.708375  -0.015996  -0.216399  -0.021158  3.196686  -0.021  -0.181612  -0.005351  3.487213  -0.008  -0.195537  -6e-06  3.50093  -0.003  -0.243087  -0.174491  -0.00946  3.47925  -0.012
N  N44  1  0.10384622  0.56073114  0.35345115  1  -0.716104  -0.024808  -0.258145  -0.028224  3.160936  -0.026  -0.22387  -0.018735  3.46066  -0.018  -0.238105  -0.019478  3.470874  -0.018  -0.268107  -0.206437  -0.001918  3.44878  -0.003
N  N45  1  0.24705189  0.78282388  0.35978945  1  -0.706187  -0.041179  -0.250841  -0.044862  3.191515  -0.041  -0.21726  -0.031761  3.492553  -0.029  -0.230986  -0.034259  3.503772  -0.031  -0.274642  -0.202485  -0.008262  3.479384  -0.009
N  N46  1  0.91026265  0.63049858  0.42757945  1  -0.747331  -0.017248  -0.304236  -0.026447  3.143595  -0.033  -0.255515  -0.00282  3.440473  -0.016  -0.266498  0.007639  3.445179  -0.009  -0.251497  -0.245131  -0.005279  3.433349  -0.018
N  N47  1  0.45974135  0.56649102  0.19705697  1  -0.69674  -0.013039  -0.217117  -0.018216  3.204963  -0.018  -0.182651  -0.006567  3.495214  -0.009  -0.196749  -0.001391  3.5087  -0.004  -0.244327  -0.170484  -0.002124  3.486221  -0.005
N  N48  1  0.45960461  0.19683425  0.56656883  1  -0.693756  -0.013063  -0.215749  -0.018221  3.205283  -0.018  -0.181804  -0.006565  3.495666  -0.009  -0.195921  -0.001375  3.50917  -0.004  -0.243641  -0.169559  -0.002157  3.486561  -0.005
N  N49  1  0.24704619  0.35966953  0.78289985  1  -0.704832  -0.041131  -0.250449  -0.044785  3.191968  -0.041  -0.216838  -0.031712  3.492742  -0.029  -0.230494  -0.034173  3.503922  -0.031  -0.274172  -0.202094  -0.008217  3.479622  -0.009
N  N50  1  0.91015890  0.42729888  0.63049799  1  -0.746562  -0.01719  -0.303381  -0.026389  3.143149  -0.033  -0.25462  -0.002766  3.440343  -0.016  -0.265606  0.007685  3.445067  -0.008  -0.251363  -0.244223  -0.00526  3.43319  -0.018
N  N51  1  0.73053851  0.19810475  0.62616979  1  -0.712175  -0.016002  -0.21567  -0.021168  3.19583  -0.021  -0.18078  -0.00538  3.485795  -0.008  -0.194701  -2e-06  3.49949  -0.003  -0.242608  -0.173652  -0.009502  3.477848  -0.012
N  N52  1  0.10371862  0.35319896  0.56067139  1  -0.714926  -0.024778  -0.258123  -0.028146  3.160546  -0.026  -0.223879  -0.01866  3.460524  -0.018  -0.23805  -0.019336  3.470686  -0.018  -0.267805  -0.206491  -0.001894  3.448671  -0.003
N  N53  1  0.51857693  0.42787673  0.78626891  1  -0.730589  -0.017767  -0.317274  -0.026119  3.142479  -0.032  -0.269655  -0.004604  3.438645  -0.016  -0.281624  0.005286  3.44462  -0.009  -0.253905  -0.258436  -0.004642  3.430415  -0.015
N  N54  1  0.35431782  0.72139139  0.36141336  1  -0.234555  -0.085025  0.009901  -0.089339  3.319315  -0.07  0.033429  -0.051623  3.63863  -0.037  0.042328  -0.021169  3.642397  -0.013  -0.176529  0.035169  -0.057263  3.622823  -0.046
N  N55  1  0.62636479  0.62607012  0.25876193  1  -0.237423  -0.016366  -0.082144  -0.024729  3.222817  -0.026  -0.042836  -0.00207  3.525112  -0.008  -0.03848  0.003842  3.530803  -0.004  -0.128377  -0.040838  0.003175  3.519834  -0.003
N  N56  1  0.00224825  0.62699631  0.35914526  1  -0.211568  -0.090028  0.00641  -0.094805  3.31047  -0.076  0.029848  -0.053318  3.629298  -0.04  0.038602  -0.029897  3.632744  -0.021  -0.173063  0.029652  -0.056614  3.613863  -0.045
N  N57  1  0.62624015  0.25852634  0.62612094  1  -0.237637  -0.016244  -0.083419  -0.02488  3.22317  -0.026  -0.044232  -0.002176  3.525812  -0.008  -0.039809  0.003776  3.53144  -0.004  -0.129399  -0.042291  0.003052  3.520581  -0.003
N  N58  1  0.35425099  0.36128745  0.72141685  1  -0.234263  -0.084765  0.009173  -0.089095  3.319766  -0.07  0.032808  -0.05143  3.639085  -0.037  0.041627  -0.021036  3.642851  -0.013  -0.176982  0.03454  -0.057116  3.623311  -0.046
N  N59  1  0.00212436  0.35886623  0.62695389  1  -0.215032  -0.089976  0.005716  -0.094748  3.31122  -0.076  0.028951  -0.053289  3.630526  -0.04  0.037693  -0.029922  3.633968  -0.022  -0.173271  0.028772  -0.056577  3.615105  -0.045
Cl  Cl60  1  0.47962138  0.54624734  0.40318031  1  -0.665547  0.041198  -0.440204  0.027068  1.236436  0.009  -0.408927  0.062915  1.549086  0.031  -0.44462  0.055137  1.525957  0.026  -0.193692  -0.390964  0.06949  1.57357  0.037
Cl  Cl61  1  0.92726099  0.84870303  0.41447754  1  -0.677308  0.038126  -0.471993  0.025907  1.231308  0.012  -0.445819  0.059385  1.542847  0.033  -0.47873  0.052288  1.51973  0.028  -0.201459  -0.426035  0.065317  1.562085  0.038
Cl  Cl62  1  0.07234764  0.57454617  0.15357013  1  -0.526801  -0.024021  -0.283507  -0.030983  1.439864  -0.03  -0.287778  0.009525  1.773871  0.003  -0.333714  0.004945  1.75649  0.0  -0.144064  -0.263817  0.016771  1.794548  0.011
Cl  Cl63  1  0.47942816  0.40258906  0.54590874  1  -0.659989  0.040909  -0.440636  0.026898  1.235917  0.009  -0.409422  0.06279  1.548224  0.031  -0.445162  0.055042  1.525236  0.026  -0.194018  -0.391494  0.069341  1.572671  0.037
Cl  Cl64  1  0.07237012  0.15343266  0.57466472  1  -0.527321  -0.023846  -0.283884  -0.030827  1.440329  -0.03  -0.288059  0.009585  1.774307  0.003  -0.333944  0.005002  1.756863  0.0  -0.144232  -0.264098  0.016824  1.795014  0.011
Cl  Cl65  1  0.92718219  0.41434944  0.84878166  1  -0.677294  0.038362  -0.47144  0.026072  1.230864  0.012  -0.445333  0.059608  1.542633  0.033  -0.478245  0.052477  1.519502  0.028  -0.20147  -0.425511  0.065565  1.561875  0.038
O  O66  1  0.82337974  0.82491886  0.62565899  1  -1.248931  0.032792  -0.757654  0.022025  1.824714  0.011  -0.711215  0.034705  2.008434  0.019  -0.729183  0.031036  1.97746  0.018  -0.541573  -0.698291  0.037936  2.034188  0.02
O  O67  1  0.98683161  0.80623290  0.19689651  1  -1.224695  -0.00499  -0.712744  -0.006427  1.867649  -0.007  -0.670886  -0.002516  2.041654  -0.004  -0.692296  -0.002985  2.021783  -0.003  -0.533065  -0.65374  -0.00089  2.054608  -0.003
O  O68  1  0.19658158  0.37792201  0.18164200  1  -1.231821  -0.005274  -0.708459  -0.006931  1.86808  -0.007  -0.666246  -0.002684  2.041839  -0.003  -0.687239  -0.00299  2.021853  -0.003  -0.53422  -0.649118  -0.000944  2.056302  -0.003
O  O69  1  0.19639471  0.18120608  0.37781966  1  -1.19641  -0.005271  -0.707538  -0.006933  1.868847  -0.007  -0.665348  -0.002688  2.042655  -0.003  -0.686905  -0.002995  2.022606  -0.003  -0.534208  -0.648198  -0.000951  2.057139  -0.003
O  O70  1  0.98681529  0.19690573  0.80645941  1  -1.220154  -0.004986  -0.711745  -0.006424  1.868122  -0.007  -0.670018  -0.002505  2.042006  -0.004  -0.691424  -0.002972  2.022163  -0.003  -0.53215  -0.652862  -0.000875  2.054902  -0.003
O  O71  1  0.82198064  0.62539977  0.82294851  1  -1.224052  0.032784  -0.759035  0.022039  1.827901  0.011  -0.712468  0.03473  2.01249  0.019  -0.730385  0.031073  1.981408  0.018  -0.541237  -0.699596  0.037953  2.038411  0.02
