# generated using pymatgen
data_Cd2H10C16N8O5
_symmetry_space_group_name_H-M   'P 1'
_cell_length_a   12.49399798
_cell_length_b   16.32635276
_cell_length_c   21.04906013
_cell_angle_alpha   89.99997869
_cell_angle_beta   90.70306644
_cell_angle_gamma   89.99988939
_symmetry_Int_Tables_number   1
_chemical_formula_structural   Cd2H10C16N8O5
_chemical_formula_sum   'Cd16 H80 C128 N64 O40'
_cell_volume   4293.29389447
_cell_formula_units_Z   8
loop_
 _symmetry_equiv_pos_site_id
 _symmetry_equiv_pos_as_xyz
  1  'x, y, z'
loop_
 _atom_site_type_symbol
 _atom_site_label
 _atom_site_symmetry_multiplicity
 _atom_site_fract_x
 _atom_site_fract_y
 _atom_site_fract_z
 _atom_site_occupancy
 _atom_site_pbe_bader_charge
 _atom_site_pbe_bader_spin_density
 _atom_site_pbe_cm5_charge
 _atom_site_pbe_ddec_charge
 _atom_site_pbe_ddec_spin_density
 _atom_site_pbe_ddec_sum_bond_order
 _atom_site_pbe_magmom
Cd  Cd0  1  0.53411038  0.04847944  0.27250755  1  1.289506  0  0.798449  0.890189  0  2.138165  0
Cd  Cd1  1  0.96589074  0.54847752  0.22749241  1  1.289509  0  0.798459  0.890247  0  2.138096  0
Cd  Cd2  1  0.46588983  0.95152125  0.72749284  1  1.289492  0  0.798442  0.890216  0  2.138129  0
Cd  Cd3  1  0.03411106  0.45152072  0.77250703  1  1.289464  0  0.798437  0.890198  0  2.138142  0
Cd  Cd4  1  0.77197623  0.17280280  0.31638875  1  1.312066  0  0.82028  0.878245  0  2.268398  0
Cd  Cd5  1  0.72802381  0.67280308  0.18361402  1  1.312077  0  0.820267  0.878227  0  2.268368  0
Cd  Cd6  1  0.22802560  0.82719667  0.68361307  1  1.312136  0  0.820254  0.878212  0  2.268412  0
Cd  Cd7  1  0.27197640  0.32719516  0.81638636  1  1.31205  0  0.820297  0.878299  0  2.268323  0
Cd  Cd8  1  0.27060414  0.20195605  0.26086574  1  1.280968  0  0.814859  0.833188  0  2.227508  0
Cd  Cd9  1  0.22939785  0.70195753  0.23913369  1  1.280895  0  0.814854  0.833178  0  2.227512  0
Cd  Cd10  1  0.72940006  0.79804525  0.73913323  1  1.280861  0  0.814851  0.833141  0  2.227562  0
Cd  Cd11  1  0.77060077  0.29804377  0.76086717  1  1.280868  0  0.814842  0.833121  0  2.227577  0
Cd  Cd12  1  0.51407815  0.17840425  0.78791395  1  1.313895  0  0.802733  0.916408  0  2.166554  0
Cd  Cd13  1  0.98592218  0.67840291  0.71208602  1  1.313894  0  0.802758  0.91645  0  2.166507  0
Cd  Cd14  1  0.48592206  0.82159705  0.21208596  1  1.313893  0  0.802757  0.916453  0  2.166473  0
Cd  Cd15  1  0.01407802  0.32159655  0.28791247  1  1.313809  0  0.802777  0.916472  0  2.166547  0
H  H16  1  0.25977684  0.59363016  0.37554830  1  0.118747  0  0.105388  0.116965  0  1.013711  0
H  H17  1  0.24022464  0.09362940  0.12445259  1  0.11876  0  0.105399  0.116927  0  1.013754  0
H  H18  1  0.74022181  0.40636930  0.62445494  1  0.118777  0  0.105384  0.116935  0  1.0138  0
H  H19  1  0.75978118  0.90636945  0.87554830  1  0.118775  0  0.105392  0.117009  0  1.013698  0
H  H20  1  0.42485460  0.55397695  0.43636147  1  0.080737  0  0.103132  0.101789  0  1.003969  0
H  H21  1  0.07514857  0.05397708  0.06363848  1  0.080461  0  0.103133  0.101799  0  1.003963  0
H  H22  1  0.57514643  0.44602374  0.56364035  1  0.080538  0  0.103083  0.101694  0  1.004027  0
H  H23  1  0.92485725  0.94602361  0.93636145  1  0.080716  0  0.103112  0.101765  0  1.003971  0
H  H24  1  0.52539030  0.42865496  0.40686739  1  0.108808  0  0.107994  0.109823  0  0.996596  0
H  H25  1  0.97461307  0.92865553  0.09313199  1  0.108845  0  0.107992  0.109836  0  0.996622  0
H  H26  1  0.47461152  0.57134696  0.59313252  1  0.108798  0  0.107994  0.109848  0  0.996588  0
H  H27  1  0.02539035  0.07134577  0.90686841  1  0.108763  0  0.107975  0.109805  0  0.996601  0
H  H28  1  0.29032225  0.37776138  0.26029714  1  0.097326  0  0.10389  0.107361  0  1.035175  0
H  H29  1  0.20967770  0.87776044  0.23970176  1  0.097328  0  0.103896  0.107346  0  1.035181  0
H  H30  1  0.70967558  0.62223809  0.73970419  1  0.097302  0  0.103868  0.107337  0  1.035289  0
H  H31  1  0.79032331  0.12223841  0.76029768  1  0.097356  0  0.103872  0.107347  0  1.035309  0
H  H32  1  0.62327854  0.11181262  0.04823496  1  0.092817  0  0.107631  0.113586  0  1.002737  0
H  H33  1  0.87671844  0.61180766  0.45176687  1  0.092821  0  0.107645  0.1136  0  1.002739  0
H  H34  1  0.37672009  0.88819174  0.95176732  1  0.092813  0  0.107645  0.113611  0  1.002703  0
H  H35  1  0.12327856  0.38819058  0.54823208  1  0.092401  0  0.107629  0.113601  0  1.002688  0
H  H36  1  0.92933623  0.21140698  0.99606234  1  0.115769  0  0.102705  0.101139  0  1.044239  0
H  H37  1  0.57066242  0.71140391  0.50393809  1  0.115765  0  0.102701  0.101176  0  1.044233  0
H  H38  1  0.07066319  0.78859616  0.00393852  1  0.115762  0  0.102707  0.101127  0  1.044219  0
H  H39  1  0.42933376  0.28859801  0.49605896  1  0.115716  0  0.10273  0.101114  0  1.044329  0
H  H40  1  0.00000984  0.18313028  0.10478246  1  0.075513  0  0.099266  0.096764  0  1.024289  0
H  H41  1  0.49998740  0.68313006  0.39521791  1  0.075477  0  0.099256  0.096753  0  1.024265  0
H  H42  1  0.99998717  0.81686857  0.89521745  1  0.075536  0  0.099258  0.096778  0  1.024251  0
H  H43  1  0.50001357  0.31686879  0.60477820  1  0.075514  0  0.099258  0.096778  0  1.024305  0
H  H44  1  0.88064619  0.12172827  0.18584260  1  0.113095  0  0.0999  0.09998  0  1.041421  0
H  H45  1  0.61935396  0.62172988  0.31415829  1  0.113122  0  0.099898  0.09995  0  1.041484  0
H  H46  1  0.11935483  0.87826936  0.81415874  1  0.113124  0  0.099891  0.099952  0  1.041517  0
H  H47  1  0.38064783  0.37826775  0.68583878  1  0.113232  0  0.099916  0.100008  0  1.04139  0
H  H48  1  0.79268354  0.99554319  0.26494532  1  0.122794  0  0.101354  0.107891  0  1.066306  0
H  H49  1  0.70731409  0.49554182  0.23505782  1  0.12285  0  0.101326  0.107805  0  1.066382  0
H  H50  1  0.20731666  0.00445872  0.73505364  1  0.122826  0  0.101325  0.107825  0  1.066341  0
H  H51  1  0.29268294  0.50446010  0.76494446  1  0.122832  0  0.10132  0.107838  0  1.066324  0
H  H52  1  0.07774052  0.91505420  0.36405072  1  0.100677  0  0.111498  0.114805  0  0.985663  0
H  H53  1  0.42226095  0.41505439  0.13595007  1  0.100703  0  0.1115  0.11481  0  0.985707  0
H  H54  1  0.92225811  0.08494772  0.63595157  1  0.100693  0  0.11149  0.114797  0  0.985674  0
H  H55  1  0.57773845  0.58494569  0.86404889  1  0.100726  0  0.111506  0.114801  0  0.985672  0
H  H56  1  0.99955380  0.77566721  0.37464781  1  0.093183  0  0.106741  0.111943  0  0.984793  0
H  H57  1  0.50044598  0.27566741  0.12535493  1  0.093167  0  0.106714  0.111933  0  0.984692  0
H  H58  1  0.00044483  0.22433471  0.62535448  1  0.093141  0  0.106745  0.111936  0  0.984749  0
H  H59  1  0.49955506  0.72433450  0.87464783  1  0.093161  0  0.106727  0.111909  0  0.9847  0
H  H60  1  0.81712956  0.74693650  0.32950398  1  0.095587  0  0.098594  0.095219  0  1.058677  0
H  H61  1  0.68286948  0.24693764  0.17049829  1  0.095202  0  0.098562  0.095133  0  1.058633  0
H  H62  1  0.18286904  0.25306357  0.67049546  1  0.095587  0  0.098594  0.095213  0  1.058668  0
H  H63  1  0.31712756  0.75306243  0.82950541  1  0.095601  0  0.098584  0.095222  0  1.058645  0
H  H64  1  0.30063332  0.75389432  0.46861798  1  0.062667  0  0.103738  0.105158  0  1.007389  0
H  H65  1  0.19936933  0.25389489  0.03138049  1  0.06263  0  0.103741  0.105161  0  1.007426  0
H  H66  1  0.69936688  0.24610515  0.53138099  1  0.062623  0  0.103732  0.105161  0  1.007415  0
H  H67  1  0.80063485  0.74610580  0.96861659  1  0.062684  0  0.103716  0.105136  0  1.007359  0
H  H68  1  0.41757769  0.80755040  0.55593559  1  0.088607  0  0.100394  0.099845  0  1.016625  0
H  H69  1  0.08242835  0.30755279  0.94406197  1  0.08863  0  0.100364  0.099772  0  1.016639  0
H  H70  1  0.58242651  0.19244722  0.44406291  1  0.088619  0  0.100374  0.099783  0  1.016619  0
H  H71  1  0.91757345  0.69244545  0.05593605  1  0.088703  0  0.100383  0.099773  0  1.016616  0
H  H72  1  0.56286995  0.90734173  0.53184038  1  0.102778  0  0.108091  0.110558  0  1.000372  0
H  H73  1  0.93713300  0.40734174  0.96815858  1  0.102758  0  0.108079  0.110517  0  1.000453  0
H  H74  1  0.43713106  0.09265835  0.46815859  1  0.102739  0  0.108091  0.110568  0  1.000429  0
H  H75  1  0.06286721  0.59265466  0.03184086  1  0.10274  0  0.108063  0.110556  0  1.000417  0
H  H76  1  0.47039644  0.90143912  0.33435252  1  0.085384  0  0.094474  0.093153  0  1.08857  0
H  H77  1  0.02959625  0.40143252  0.16564777  1  0.085425  0  0.094482  0.09312  0  1.088524  0
H  H78  1  0.52959498  0.09856708  0.66564879  1  0.085393  0  0.094508  0.093183  0  1.088526  0
H  H79  1  0.97040635  0.59856388  0.83435120  1  0.085359  0  0.094502  0.093168  0  1.08852  0
H  H80  1  0.86022479  0.30416334  0.40349465  1  0.642625  0  0.291253  0.404243  0  0.921372  0
H  H81  1  0.63977330  0.80416503  0.09650618  1  0.642818  0  0.291293  0.404401  0  0.921185  0
H  H82  1  0.13977464  0.69583490  0.59650669  1  0.642825  0  0.291276  0.404362  0  0.921227  0
H  H83  1  0.36022691  0.19583505  0.90349374  1  0.642815  0  0.291281  0.404338  0  0.92126  0
H  H84  1  0.42443788  0.05405625  0.87628688  1  0.657257  0  0.295396  0.40499  0  0.917262  0
H  H85  1  0.07556161  0.55405496  0.62371263  1  0.657243  0  0.29541  0.404987  0  0.917255  0
H  H86  1  0.57556153  0.94594444  0.12371351  1  0.657251  0  0.295402  0.404993  0  0.917252  0
H  H87  1  0.92443700  0.44594328  0.37628727  1  0.657261  0  0.295367  0.404961  0  0.917298  0
H  H88  1  0.86094258  0.21830521  0.43932994  1  0.627056  0  0.329078  0.40816  0  0.869815  0
H  H89  1  0.63905654  0.71830630  0.06067186  1  0.627091  0  0.329095  0.408233  0  0.869759  0
H  H90  1  0.13905925  0.78169364  0.56067187  1  0.627107  0  0.329096  0.408246  0  0.869761  0
H  H91  1  0.36094127  0.28169500  0.93932805  1  0.627141  0  0.329106  0.408246  0  0.869756  0
H  H92  1  0.50736403  0.11413145  0.91253941  1  0.637581  0  0.292246  0.35454  0  0.993573  0
H  H93  1  0.99263566  0.61413016  0.58746105  1  0.637586  0  0.292227  0.354491  0  0.993629  0
H  H94  1  0.49263459  0.88586924  0.08746145  1  0.637584  0  0.292205  0.354486  0  0.993632  0
H  H95  1  0.00736534  0.38586807  0.41253839  1  0.637583  0  0.292241  0.354562  0  0.993549  0
C  C96  1  0.16576267  0.50882993  0.27987418  1  1.529106  0  0.22387  0.612478  0  4.09892  0
C  C97  1  0.33423663  0.00882837  0.22012767  1  1.529215  0  0.223859  0.612495  0  4.098941  0
C  C98  1  0.83423516  0.49116709  0.72012762  1  1.529056  0  0.223789  0.612399  0  4.098875  0
C  C99  1  0.66576441  0.99116926  0.77987462  1  1.529072  0  0.223896  0.612515  0  4.098871  0
C  C100  1  0.26512229  0.48657197  0.31523935  1  0.00713  0  -0.01685  -0.033368  0  3.999076  0
C  C101  1  0.23487900  0.98656918  0.18476189  1  0.007281  0  -0.01678  -0.033374  0  3.999034  0
C  C102  1  0.73487716  0.51342995  0.68476436  1  0.007135  0  -0.016868  -0.033527  0  3.999451  0
C  C103  1  0.76512282  0.01342906  0.81523850  1  0.007154  0  -0.016832  -0.033358  0  3.999128  0
C  C104  1  0.30305684  0.53764763  0.36399969  1  -0.096972  0  -0.082471  -0.097164  0  3.945164  0
C  C105  1  0.19694477  0.03764632  0.13600026  1  -0.097017  0  -0.082518  -0.097088  0  3.945195  0
C  C106  1  0.69694101  0.46235122  0.63600402  1  -0.097573  0  -0.082422  -0.097011  0  3.945146  0
C  C107  1  0.80306102  0.96235131  0.86399729  1  -0.097536  0  -0.08246  -0.097192  0  3.945235  0
C  C108  1  0.39585920  0.51573145  0.39740370  1  -0.021122  0  -0.089326  -0.075727  0  4.0175  0
C  C109  1  0.10414486  0.01573213  0.10259579  1  -0.020944  0  -0.08933  -0.075779  0  4.017589  0
C  C110  1  0.60414182  0.48426740  0.60259764  1  -0.020281  0  -0.089305  -0.075666  0  4.017409  0
C  C111  1  0.89586095  0.98426794  0.89740415  1  -0.020596  0  -0.089306  -0.075702  0  4.017563  0
C  C112  1  0.45229994  0.44537829  0.38121359  1  -0.011353  0  -0.075259  -0.093628  0  3.928055  0
C  C113  1  0.04770303  0.94537765  0.11878434  1  -0.011357  0  -0.075264  -0.093655  0  3.928043  0
C  C114  1  0.54770107  0.55462179  0.61878585  1  -0.011292  0  -0.075289  -0.093705  0  3.928047  0
C  C115  1  0.95230038  0.05462243  0.88121511  1  -0.01124  0  -0.07527  -0.093648  0  3.92819  0
C  C116  1  0.41514606  0.39419237  0.33186460  1  -0.073218  0  -0.002532  0.026213  0  3.999796  0
C  C117  1  0.08485544  0.89419288  0.16813430  1  -0.073263  0  -0.002551  0.026174  0  3.999776  0
C  C118  1  0.58485496  0.60580832  0.66813627  1  -0.073188  0  -0.002524  0.02618  0  3.999825  0
C  C119  1  0.91514798  0.10580659  0.83186610  1  -0.073269  0  -0.002521  0.026213  0  3.999746  0
C  C120  1  0.47602173  0.31975500  0.31774483  1  0.952065  0  0.224779  0.248982  0  4.017235  0
C  C121  1  0.02397995  0.81975437  0.18225362  1  0.951926  0  0.224825  0.249023  0  4.017221  0
C  C122  1  0.52398087  0.68024568  0.68225462  1  0.951985  0  0.224802  0.249028  0  4.017257  0
C  C123  1  0.97602105  0.18024571  0.81774535  1  0.951943  0  0.224803  0.249015  0  4.01717  0
C  C124  1  0.32055232  0.41500604  0.29945273  1  0.046661  0  -0.077496  -0.119921  0  3.923886  0
C  C125  1  0.17944914  0.91500577  0.20054663  1  0.04665  0  -0.077527  -0.119903  0  3.923921  0
C  C126  1  0.67944792  0.58499343  0.70055003  1  0.046606  0  -0.077436  -0.119749  0  3.924128  0
C  C127  1  0.82055268  0.08499491  0.79945329  1  0.046682  0  -0.077499  -0.119909  0  3.923961  0
C  C128  1  0.67111382  0.08139425  0.17053559  1  1.508642  0  0.210893  0.587164  0  4.155775  0
C  C129  1  0.82888403  0.58139248  0.32946530  1  1.508768  0  0.210835  0.587228  0  4.155699  0
C  C130  1  0.32888401  0.91860644  0.82946574  1  1.508738  0  0.21083  0.587164  0  4.155878  0
C  C131  1  0.17111617  0.41860515  0.67053366  1  1.508716  0  0.210802  0.587152  0  4.15591  0
C  C132  1  0.74555526  0.11194604  0.12139426  1  0.011305  0  -0.022933  -0.049376  0  4.013486  0
C  C133  1  0.75444091  0.61194374  0.37860567  1  0.011092  0  -0.023007  -0.04961  0  4.013726  0
C  C134  1  0.25444094  0.88805526  0.87860469  1  0.011055  0  -0.022936  -0.049424  0  4.01375  0
C  C135  1  0.24555689  0.38805511  0.62139329  1  0.011028  0  -0.022923  -0.049444  0  4.013797  0
C  C136  1  0.70632207  0.12658132  0.05982934  1  -0.020205  0  -0.075483  -0.122223  0  3.921078  0
C  C137  1  0.79367567  0.62657771  0.44017201  1  -0.020155  0  -0.075401  -0.122083  0  3.920981  0
C  C138  1  0.29367496  0.87342305  0.94017246  1  -0.020079  0  -0.075465  -0.122189  0  3.920973  0
C  C139  1  0.20632371  0.37342114  0.55982553  1  -0.019628  0  -0.075427  -0.122174  0  3.921041  0
C  C140  1  0.77239166  0.16340150  0.01495300  1  -0.031986  0  -0.002244  0.030084  0  4.020081  0
C  C141  1  0.72760679  0.66339797  0.48504882  1  -0.032402  0  -0.002194  0.030204  0  4.020108  0
C  C142  1  0.22760537  0.83659918  0.98504880  1  -0.032064  0  -0.002283  0.030057  0  4.020145  0
C  C143  1  0.27239260  0.33660149  0.51494919  1  -0.032416  0  -0.002245  0.03011  0  4.020198  0
C  C144  1  0.73290511  0.18569227  0.95185315  1  0.936067  0  0.217547  0.247905  0  4.038819  0
C  C145  1  0.76709201  0.68568827  0.54814823  1  0.936167  0  0.217554  0.247861  0  4.038917  0
C  C146  1  0.26709192  0.81431149  0.04814865  1  0.93574  0  0.217612  0.247969  0  4.03889  0
C  C147  1  0.23290659  0.31431119  0.45185073  1  0.936181  0  0.217575  0.247944  0  4.038952  0
C  C148  1  0.87879750  0.18268252  0.03142131  1  -0.04925  0  -0.074634  -0.093716  0  3.928975  0
C  C149  1  0.62120090  0.68267854  0.46858002  1  -0.049295  0  -0.074702  -0.093909  0  3.929156  0
C  C150  1  0.12120113  0.81732062  0.96858049  1  -0.049254  0  -0.074685  -0.093748  0  3.929115  0
C  C151  1  0.37879927  0.31732092  0.53141609  1  -0.049353  0  -0.074752  -0.093789  0  3.929071  0
C  C152  1  0.91783873  0.16699924  0.09238359  1  -0.073717  0  -0.089227  -0.076227  0  4.009889  0
C  C153  1  0.58215811  0.66699719  0.40761822  1  -0.073709  0  -0.089169  -0.076098  0  4.009805  0
C  C154  1  0.08215830  0.83300328  0.90761821  1  -0.073728  0  -0.089198  -0.076184  0  4.009794  0
C  C155  1  0.41784048  0.33300228  0.59237979  1  -0.073696  0  -0.089132  -0.076126  0  4.009721  0
C  C156  1  0.85141035  0.13236815  0.13770142  1  -0.027594  0  -0.081444  -0.077554  0  3.945522  0
C  C157  1  0.64858897  0.63236970  0.36229851  1  -0.027437  0  -0.081444  -0.077526  0  3.945624  0
C  C158  1  0.14859146  0.86762947  0.86229802  1  -0.027445  0  -0.081369  -0.077516  0  3.945692  0
C  C159  1  0.35140961  0.36762977  0.63769808  1  -0.027437  0  -0.081484  -0.077605  0  3.945572  0
C  C160  1  0.68831553  0.85101130  0.26554820  1  1.529368  0  0.215511  0.60241  0  4.114156  0
C  C161  1  0.81168485  0.35100915  0.23445405  1  1.529357  0  0.215491  0.602342  0  4.114275  0
C  C162  1  0.31168548  0.14898939  0.73445220  1  1.529342  0  0.215514  0.602399  0  4.114115  0
C  C163  1  0.18831617  0.64899031  0.76554682  1  1.529318  0  0.215504  0.602396  0  4.114103  0
C  C164  1  0.79388603  0.86970492  0.29527942  1  -0.071843  0  -0.019322  -0.03281  0  3.980673  0
C  C165  1  0.70611430  0.36970417  0.20472235  1  -0.07189  0  -0.019261  -0.032633  0  3.980474  0
C  C166  1  0.20611418  0.13029639  0.70472050  1  -0.071799  0  -0.019255  -0.032685  0  3.980614  0
C  C167  1  0.29388512  0.63029713  0.79527899  1  -0.071754  0  -0.019304  -0.032731  0  3.980659  0
C  C168  1  0.83732831  0.94835564  0.29034510  1  0.031773  0  -0.080225  -0.120031  0  3.909524  0
C  C169  1  0.66267104  0.44835434  0.20965759  1  0.031717  0  -0.08023  -0.119981  0  3.909437  0
C  C170  1  0.16267190  0.05164566  0.70965482  1  0.031592  0  -0.080182  -0.119955  0  3.909423  0
C  C171  1  0.33732760  0.55164512  0.79034469  1  0.031573  0  -0.080222  -0.120092  0  3.909555  0
C  C172  1  0.93967087  0.96460107  0.31484958  1  0.014863  0  -0.004142  0.024204  0  4.019025  0
C  C173  1  0.56032922  0.46460055  0.18515121  1  0.014544  0  -0.004158  0.024108  0  4.018819  0
C  C174  1  0.06032934  0.03540084  0.68514986  1  0.014882  0  -0.004221  0.024112  0  4.018921  0
C  C175  1  0.43966780  0.53540014  0.81484965  1  0.014931  0  -0.004157  0.02426  0  4.01889  0
C  C176  1  0.99038041  0.04422585  0.30506586  1  0.885596  0  0.225184  0.256895  0  4.013245  0
C  C177  1  0.50961992  0.54422768  0.19493362  1  0.885969  0  0.225218  0.256987  0  4.013108  0
C  C178  1  0.00962139  0.95577423  0.69493263  1  0.885889  0  0.225206  0.256943  0  4.013149  0
C  C179  1  0.49037869  0.45577362  0.80506629  1  0.885934  0  0.225212  0.256883  0  4.013119  0
C  C180  1  0.99781559  0.90196854  0.34536695  1  -0.051008  0  -0.070257  -0.086917  0  3.921148  0
C  C181  1  0.50218466  0.40196751  0.15463386  1  -0.05101  0  -0.070234  -0.086886  0  3.921259  0
C  C182  1  0.00218384  0.09803460  0.65463439  1  -0.051023  0  -0.070193  -0.086893  0  3.921226  0
C  C183  1  0.49781396  0.59803318  0.84536700  1  -0.05109  0  -0.070182  -0.086843  0  3.921072  0
C  C184  1  0.95357784  0.82399647  0.35123669  1  -0.03869  0  -0.08612  -0.073956  0  3.992144  0
C  C185  1  0.54642100  0.32399599  0.14876461  1  -0.038732  0  -0.086135  -0.074009  0  3.992197  0
C  C186  1  0.04641999  0.17600483  0.64876512  1  -0.038779  0  -0.086104  -0.073877  0  3.992166  0
C  C187  1  0.45357762  0.67600409  0.85123672  1  -0.038703  0  -0.086105  -0.073918  0  3.992108  0
C  C188  1  0.85221552  0.80761445  0.32593856  1  0.012142  0  -0.080903  -0.079853  0  3.942396  0
C  C189  1  0.64778175  0.30761503  0.17406179  1  0.012635  0  -0.080881  -0.079791  0  3.942165  0
C  C190  1  0.14778387  0.19238563  0.67405945  1  0.012353  0  -0.080979  -0.079968  0  3.942422  0
C  C191  1  0.35221529  0.69238382  0.82594096  1  0.01221  0  -0.080951  -0.079919  0  3.942506  0
C  C192  1  0.31826232  0.78492025  0.34304907  1  1.496666  0  0.200781  0.573522  0  4.177079  0
C  C193  1  0.18173546  0.28491711  0.15695032  1  1.496986  0  0.20069  0.573392  0  4.177422  0
C  C194  1  0.68173309  0.21508351  0.65695130  1  1.497003  0  0.200729  0.573484  0  4.177277  0
C  C195  1  0.81826795  0.71508052  0.84304913  1  1.4968  0  0.200752  0.573495  0  4.177131  0
C  C196  1  0.37973918  0.82396014  0.39605782  1  -0.034675  0  -0.020349  -0.036151  0  3.996013  0
C  C197  1  0.12026091  0.32395467  0.10394251  1  -0.034911  0  -0.020367  -0.036023  0  3.995891  0
C  C198  1  0.62025863  0.17604545  0.60394303  1  -0.034917  0  -0.020383  -0.036049  0  3.995906  0
C  C199  1  0.87974328  0.67604174  0.89605504  1  -0.034803  0  -0.020372  -0.036013  0  3.995928  0
C  C200  1  0.36330501  0.79847006  0.45881470  1  -0.073904  0  -0.076998  -0.084505  0  3.941401  0
C  C201  1  0.13669513  0.29846949  0.04118374  1  -0.073938  0  -0.077026  -0.084646  0  3.941579  0
C  C202  1  0.63669279  0.20153124  0.54118425  1  -0.073891  0  -0.077023  -0.08464  0  3.941559  0
C  C203  1  0.86330986  0.70152997  0.95881381  1  -0.073796  0  -0.076965  -0.084577  0  3.941377  0
C  C204  1  0.42922293  0.82859246  0.50740077  1  0.029298  0  -0.087178  -0.069658  0  3.987835  0
C  C205  1  0.07077989  0.32859361  0.99259962  1  0.029345  0  -0.087161  -0.069531  0  3.987937  0
C  C206  1  0.57077730  0.17140700  0.49260057  1  0.029315  0  -0.087118  -0.069462  0  3.987899  0
C  C207  1  0.92922032  0.67140340  0.00739934  1  0.029104  0  -0.087091  -0.069416  0  3.98771  0
C  C208  1  0.50981186  0.88496017  0.49424264  1  -0.045762  0  -0.070422  -0.083905  0  3.90726  0
C  C209  1  0.99018840  0.38496032  0.00575627  1  -0.045717  0  -0.070428  -0.083919  0  3.907278  0
C  C210  1  0.49018674  0.11503991  0.50575632  1  -0.04565  0  -0.070443  -0.084  0  3.90729  0
C  C211  1  0.00981261  0.61503608  0.99424413  1  -0.045492  0  -0.070478  -0.08403  0  3.907116  0
C  C212  1  0.52414588  0.91352258  0.43187914  1  0.010536  0  -0.001478  0.034026  0  3.995143  0
C  C213  1  0.97584872  0.41352150  0.06811974  1  0.010456  0  -0.001477  0.034056  0  3.994995  0
C  C214  1  0.47584873  0.08647933  0.56812028  1  0.01046  0  -0.001479  0.034084  0  3.995018  0
C  C215  1  0.02415066  0.58647796  0.93187732  1  0.01017  0  -0.001418  0.034076  0  3.995078  0
C  C216  1  0.60817132  0.97379808  0.41929833  1  0.927766  0  0.214425  0.244955  0  4.043297  0
C  C217  1  0.89182473  0.47379589  0.08070196  1  0.927757  0  0.214472  0.245023  0  4.043354  0
C  C218  1  0.39182569  0.02620322  0.58070204  1  0.927758  0  0.214457  0.245012  0  4.04338  0
C  C219  1  0.10817548  0.52620112  0.91929795  1  0.927784  0  0.214475  0.244985  0  4.043497  0
C  C220  1  0.45895257  0.88208819  0.38316267  1  0.013191  0  -0.084504  -0.127922  0  3.919467  0
C  C221  1  0.04104336  0.38208344  0.11683621  1  0.013255  0  -0.084425  -0.127838  0  3.919174  0
C  C222  1  0.54104204  0.11791740  0.61683675  1  0.013234  0  -0.084444  -0.127937  0  3.919342  0
C  C223  1  0.95895924  0.61791173  0.88316324  1  0.013462  0  -0.084543  -0.128015  0  3.919488  0
N  N224  1  0.43846023  0.24965549  0.29092026  1  -0.681812  0  -0.224503  -0.237803  0  3.411839  0
N  N225  1  0.06154163  0.74965478  0.20907821  1  -0.681713  0  -0.224504  -0.237769  0  3.411864  0
N  N226  1  0.56154238  0.75034581  0.70907967  1  -0.681785  0  -0.224545  -0.237866  0  3.41189  0
N  N227  1  0.93845937  0.25034591  0.79092076  1  -0.681745  0  -0.224499  -0.237752  0  3.411783  0
N  N228  1  0.52069677  0.19739513  0.29117609  1  -0.173047  0  -0.111099  -0.084488  0  3.420243  0
N  N229  1  0.97930397  0.69739565  0.20882288  1  -0.172984  0  -0.111143  -0.0846  0  3.420174  0
N  N230  1  0.47930425  0.80260494  0.70882478  1  -0.173014  0  -0.111068  -0.084456  0  3.420239  0
N  N231  1  0.02069703  0.30260443  0.79117514  1  -0.173013  0  -0.111112  -0.084581  0  3.420242  0
N  N232  1  0.60468521  0.23485230  0.31659045  1  -0.191712  0  -0.113413  -0.059843  0  3.535225  0
N  N233  1  0.89531544  0.73485417  0.18340898  1  -0.19166  0  -0.113355  -0.059749  0  3.534921  0
N  N234  1  0.39531662  0.76514655  0.68341137  1  -0.191628  0  -0.11338  -0.059755  0  3.535107  0
N  N235  1  0.10468555  0.26514652  0.81658856  1  -0.191692  0  -0.113392  -0.059741  0  3.535155  0
N  N236  1  0.58023661  0.31086868  0.33372157  1  -0.627735  0  -0.209992  -0.248622  0  3.162761  0
N  N237  1  0.91976465  0.81087052  0.16627783  1  -0.627782  0  -0.210025  -0.248642  0  3.162678  0
N  N238  1  0.41976601  0.68913017  0.66627930  1  -0.627758  0  -0.21003  -0.248691  0  3.162698  0
N  N239  1  0.08023634  0.18913078  0.83372018  1  -0.627722  0  -0.210022  -0.248681  0  3.162842  0
N  N240  1  0.63983889  0.16120494  0.92439535  1  -0.689531  0  -0.214739  -0.266724  0  3.239864  0
N  N241  1  0.86015909  0.66120263  0.57560603  1  -0.689279  0  -0.214691  -0.266727  0  3.239923  0
N  N242  1  0.36015894  0.83879820  0.07560693  1  -0.689267  0  -0.214714  -0.266752  0  3.239953  0
N  N243  1  0.13984029  0.33879684  0.42439150  1  -0.689188  0  -0.214745  -0.266782  0  3.239874  0
N  N244  1  0.63917069  0.19765032  0.86761924  1  -0.211493  0  -0.133502  -0.093551  0  3.541726  0
N  N245  1  0.86082958  0.69765044  0.63238024  1  -0.211468  0  -0.133548  -0.093579  0  3.54177  0
N  N246  1  0.36082952  0.80234975  0.13238067  1  -0.211494  0  -0.133525  -0.09356  0  3.541773  0
N  N247  1  0.13916980  0.30234842  0.36761634  1  -0.211573  0  -0.133496  -0.093523  0  3.541746  0
N  N248  1  0.72706398  0.24199819  0.86114641  1  -0.186339  0  -0.117315  -0.073992  0  3.540592  0
N  N249  1  0.77293618  0.74199843  0.63885306  1  -0.186326  0  -0.11728  -0.073965  0  3.540608  0
N  N250  1  0.27293703  0.75800127  0.13885350  1  -0.186366  0  -0.117269  -0.073931  0  3.540567  0
N  N251  1  0.22706321  0.25800103  0.36114448  1  -0.186531  0  -0.117317  -0.073972  0  3.540799  0
N  N252  1  0.78766921  0.23602681  0.91291821  1  -0.590661  0  -0.209754  -0.246203  0  3.190037  0
N  N253  1  0.71232938  0.73602410  0.58708268  1  -0.590626  0  -0.209809  -0.246199  0  3.190173  0
N  N254  1  0.21233020  0.76397633  0.08708217  1  -0.590622  0  -0.209854  -0.246284  0  3.190202  0
N  N255  1  0.28766841  0.26397536  0.41291485  1  -0.59053  0  -0.209776  -0.246245  0  3.190224  0
N  N256  1  0.94156122  0.11828836  0.30064614  1  -0.685774  0  -0.230476  -0.256043  0  3.409001  0
N  N257  1  0.55843973  0.61828827  0.19935380  1  -0.685828  0  -0.230488  -0.256057  0  3.408941  0
N  N258  1  0.05844138  0.88171294  0.69935331  1  -0.685943  0  -0.230498  -0.256055  0  3.40895  0
N  N259  1  0.44155888  0.38171241  0.80064563  1  -0.685885  0  -0.230534  -0.256085  0  3.409029  0
N  N260  1  0.01947946  0.17189685  0.28761991  1  -0.173891  0  -0.116154  -0.088832  0  3.441925  0
N  N261  1  0.48051861  0.67189798  0.21237951  1  -0.173898  0  -0.116166  -0.088857  0  3.441832  0
N  N262  1  0.98051993  0.82810384  0.71237763  1  -0.173827  0  -0.116186  -0.088887  0  3.441869  0
N  N263  1  0.51948002  0.32810333  0.78762182  1  -0.173877  0  -0.11614  -0.088828  0  3.442064  0
N  N264  1  0.11083086  0.13160181  0.28432941  1  -0.19197  0  -0.109385  -0.053876  0  3.512799  0
N  N265  1  0.38916810  0.63160245  0.21566956  1  -0.191863  0  -0.109366  -0.053841  0  3.51304  0
N  N266  1  0.88916852  0.86839888  0.71566765  1  -0.191955  0  -0.109333  -0.053722  0  3.512968  0
N  N267  1  0.61083134  0.36839762  0.78433273  1  -0.191888  0  -0.109355  -0.053771  0  3.513074  0
N  N268  1  0.09623763  0.05233243  0.29544453  1  -0.607062  0  -0.204411  -0.241676  0  3.180376  0
N  N269  1  0.40376153  0.55233428  0.20455493  1  -0.60706  0  -0.204408  -0.241688  0  3.180447  0
N  N270  1  0.90376336  0.94766704  0.70455396  1  -0.60726  0  -0.204428  -0.241752  0  3.180346  0
N  N271  1  0.59623709  0.44766702  0.79544640  1  -0.607311  0  -0.204435  -0.241731  0  3.180377  0
N  N272  1  0.61149448  0.02650078  0.36976815  1  -0.744224  0  -0.248173  -0.280268  0  3.44336  0
N  N273  1  0.88850430  0.52649902  0.13023228  1  -0.74421  0  -0.248222  -0.280399  0  3.443537  0
N  N274  1  0.38850494  0.97350052  0.63023223  1  -0.744225  0  -0.248193  -0.280336  0  3.443482  0
N  N275  1  0.11149671  0.47349922  0.86976763  1  -0.74422  0  -0.248243  -0.280343  0  3.44355  0
N  N276  1  0.70280015  0.06941171  0.37886686  1  -0.224748  0  -0.136955  -0.11211  0  3.554936  0
N  N277  1  0.79719934  0.56941008  0.12113452  1  -0.224744  0  -0.136917  -0.112058  0  3.554909  0
N  N278  1  0.29720167  0.93058776  0.62113401  1  -0.224722  0  -0.13699  -0.112138  0  3.554983  0
N  N279  1  0.20280167  0.43058693  0.87886540  1  -0.224906  0  -0.136999  -0.112184  0  3.55506  0
N  N280  1  0.75196490  0.04455981  0.43129326  1  -0.107932  0  -0.10656  -0.081242  0  3.269115  0
N  N281  1  0.74803385  0.54455829  0.06870812  1  -0.107863  0  -0.106648  -0.081297  0  3.269133  0
N  N282  1  0.24803691  0.95543843  0.56870713  1  -0.107908  0  -0.106547  -0.081239  0  3.269169  0
N  N283  1  0.25196637  0.45543689  0.93129275  1  -0.107904  0  -0.106511  -0.081158  0  3.269142  0
N  N284  1  0.69453353  0.98493951  0.45761807  1  -0.607287  0  -0.21928  -0.260939  0  3.176586  0
N  N285  1  0.80546409  0.48493808  0.04238175  1  -0.607395  0  -0.219245  -0.260916  0  3.176572  0
N  N286  1  0.30546587  0.01505935  0.54238089  1  -0.607357  0  -0.219289  -0.260953  0  3.176643  0
N  N287  1  0.19453532  0.51505649  0.95761816  1  -0.607274  0  -0.219292  -0.260962  0  3.176834  0
O  O288  1  0.09759032  0.45423236  0.26394190  1  -1.153514  0  -0.314523  -0.535005  0  2.354101  0
O  O289  1  0.40241025  0.95423175  0.23605840  1  -1.153576  0  -0.314525  -0.535008  0  2.354182  0
O  O290  1  0.90240751  0.54576465  0.73605991  1  -1.153419  0  -0.314486  -0.53493  0  2.353952  0
O  O291  1  0.59759396  0.04576710  0.76394153  1  -1.153491  0  -0.314487  -0.534986  0  2.354113  0
O  O292  1  0.14481481  0.58372971  0.26597230  1  -1.165273  0  -0.326333  -0.546397  0  2.362541  0
O  O293  1  0.35518431  0.08372812  0.23403001  1  -1.165309  0  -0.326304  -0.54637  0  2.362511  0
O  O294  1  0.85518622  0.41626791  0.73402999  1  -1.16536  0  -0.326262  -0.54631  0  2.362495  0
O  O295  1  0.64481513  0.91626890  0.76597276  1  -1.165271  0  -0.326362  -0.5464  0  2.362481  0
O  O296  1  0.58468299  0.04517802  0.15524415  1  -1.179585  0  -0.31633  -0.540592  0  2.173929  0
O  O297  1  0.91531494  0.54517673  0.34475580  1  -1.179637  0  -0.316271  -0.540584  0  2.173938  0
O  O298  1  0.41531402  0.95482267  0.84475623  1  -1.179643  0  -0.316297  -0.540581  0  2.173982  0
O  O299  1  0.08468447  0.45481967  0.65524364  1  -1.179611  0  -0.316297  -0.540568  0  2.173964  0
O  O300  1  0.69461341  0.09552352  0.22947379  1  -1.171411  0  -0.335836  -0.583671  0  2.411592  0
O  O301  1  0.80538681  0.59552365  0.27052758  1  -1.171405  0  -0.335845  -0.583681  0  2.41155  0
O  O302  1  0.30538602  0.90447778  0.77052802  1  -1.171382  0  -0.335837  -0.583707  0  2.411643  0
O  O303  1  0.19461579  0.40447643  0.72947092  1  -1.171362  0  -0.335806  -0.583691  0  2.411578  0
O  O304  1  0.61938224  0.90753898  0.25596271  1  -1.163422  0  -0.319255  -0.542165  0  2.326586  0
O  O305  1  0.88061877  0.40753795  0.24403619  1  -1.16341  0  -0.319267  -0.54218  0  2.326734  0
O  O306  1  0.38061797  0.09246049  0.74403720  1  -1.16343  0  -0.319245  -0.54216  0  2.326585  0
O  O307  1  0.11938144  0.59246273  0.75596372  1  -1.163376  0  -0.319272  -0.542157  0  2.326607  0
O  O308  1  0.66450572  0.77714301  0.24965390  1  -1.179263  0  -0.332091  -0.573508  0  2.34823  0
O  O309  1  0.83549246  0.27714144  0.25034978  1  -1.179263  0  -0.332079  -0.573539  0  2.348315  0
O  O310  1  0.33549609  0.22285767  0.75034602  1  -1.179258  0  -0.332108  -0.573536  0  2.348221  0
O  O311  1  0.16450535  0.72285802  0.74965060  1  -1.179291  0  -0.332081  -0.573545  0  2.348239  0
O  O312  1  0.35182185  0.79461193  0.28544761  1  -1.174776  0  -0.345413  -0.586709  0  2.420808  0
O  O313  1  0.14817671  0.29461065  0.21455178  1  -1.174765  0  -0.345387  -0.586671  0  2.420871  0
O  O314  1  0.64817357  0.20538937  0.71455324  1  -1.17484  0  -0.3454  -0.586768  0  2.420981  0
O  O315  1  0.85182588  0.70538882  0.78544624  1  -1.174836  0  -0.345361  -0.586699  0  2.420931  0
O  O316  1  0.23674244  0.74127492  0.35343120  1  -1.147688  0  -0.321538  -0.533275  0  2.128406  0
O  O317  1  0.26325546  0.24127472  0.14656963  1  -1.147778  0  -0.321491  -0.53323  0  2.128609  0
O  O318  1  0.76325378  0.25872516  0.64657013  1  -1.147705  0  -0.321517  -0.533232  0  2.12854  0
O  O319  1  0.73674795  0.75872658  0.85342982  1  -1.147637  0  -0.321569  -0.533307  0  2.128366  0
O  O320  1  0.82269183  0.25040550  0.40742843  1  -1.232528  0  -0.575401  -0.749058  0  2.028762  0
O  O321  1  0.67730641  0.75040713  0.09257383  1  -1.232745  0  -0.575459  -0.749299  0  2.028504  0
O  O322  1  0.17730761  0.74959274  0.59257385  1  -1.232769  0  -0.575444  -0.749264  0  2.028547  0
O  O323  1  0.32269220  0.24959173  0.90742655  1  -1.232788  0  -0.575461  -0.749262  0  2.028573  0
O  O324  1  0.43958643  0.11236565  0.88708585  1  -1.273681  0  -0.56787  -0.753611  0  2.081789  0
O  O325  1  0.06041453  0.61236499  0.61291413  1  -1.273672  0  -0.567871  -0.753579  0  2.08182  0
O  O326  1  0.56041459  0.88763443  0.11291455  1  -1.273676  0  -0.567847  -0.753583  0  2.081806  0
O  O327  1  0.93958568  0.38763325  0.38708579  1  -1.273686  0  -0.567849  -0.753617  0  2.081765  0
