# generated using pymatgen
data_KCaErH6C16N2O13
_symmetry_space_group_name_H-M   'P 1'
_cell_length_a   7.84723566
_cell_length_b   10.99105685
_cell_length_c   11.85083884
_cell_angle_alpha   75.74980761
_cell_angle_beta   72.23604952
_cell_angle_gamma   76.19597336
_symmetry_Int_Tables_number   1
_chemical_formula_structural   KCaErH6C16N2O13
_chemical_formula_sum   'K2 Ca2 Er2 H12 C32 N4 O26'
_cell_volume   928.52381930
_cell_formula_units_Z   2
loop_
 _symmetry_equiv_pos_site_id
 _symmetry_equiv_pos_as_xyz
  1  'x, y, z'
loop_
 _atom_site_type_symbol
 _atom_site_label
 _atom_site_symmetry_multiplicity
 _atom_site_fract_x
 _atom_site_fract_y
 _atom_site_fract_z
 _atom_site_occupancy
 _atom_site_hle17_bader_spin_density
 _atom_site_hle17_ddec_charge
 _atom_site_hle17_ddec_spin_density
 _atom_site_hle17_ddec_sum_bond_order
 _atom_site_hle17_magmom
 _atom_site_hse06_10hf_bader_spin_density
 _atom_site_hse06_10hf_ddec_charge
 _atom_site_hse06_10hf_ddec_spin_density
 _atom_site_hse06_10hf_ddec_sum_bond_order
 _atom_site_hse06_10hf_magmom
 _atom_site_hse06_bader_spin_density
 _atom_site_hse06_ddec_charge
 _atom_site_hse06_ddec_spin_density
 _atom_site_hse06_ddec_sum_bond_order
 _atom_site_hse06_magmom
 _atom_site_pbe_bader_spin_density
 _atom_site_pbe_cm5_charge
 _atom_site_pbe_ddec_charge
 _atom_site_pbe_ddec_spin_density
 _atom_site_pbe_ddec_sum_bond_order
 _atom_site_pbe_magmom
K  K0  1  0.78201839  0.09271221  0.39577720  1  0  0.93434  0  0.419325  0  0  0.883973  0  0.590805  0  0  0.900479  0  0.56862  0  0  0.758895  0.87145  0  0.606908  0
K  K1  1  0.21797440  0.90727668  0.60424282  1  0  0.934346  0  0.419325  0  0  0.884006  0  0.590772  0  0  0.900512  0  0.56859  0  0  0.75891  0.871487  0  0.606878  0
Ca  Ca2  1  0.54958657  0.42201582  0.15955987  1  0  1.597514  0  1.024675  0  0  1.470038  0  1.3697  0  0  1.514372  0  1.322048  0  0  0.887827  1.436321  0  1.404174  0
Ca  Ca3  1  0.45043814  0.57798958  0.84043238  1  0  1.59749  0  1.024734  0  0  1.470113  0  1.369616  0  0  1.514438  0  1.321965  0  0  0.887821  1.436377  0  1.404103  0
Er  Er4  1  0.67807688  0.74539069  0.28449359  1  0  2.18297  0  1.735107  0  0  2.01004  0  2.245944  0  0  2.062902  0  2.203662  0  0  1.538522  1.969886  0  2.279189  0
Er  Er5  1  0.32192633  0.25460980  0.71550996  1  0  2.182945  0  1.735102  0  0  2.009936  0  2.24609  0  0  2.062876  0  2.203683  0  0  1.538491  1.969741  0  2.279379  0
H  H6  1  0.87921075  0.27919476  0.07282706  1  0  0.426741  0  0.875165  0  0  0.398182  0  0.9362  0  0  0.408252  0  0.921363  0  0  0.301346  0.390976  0  0.946826  0
H  H7  1  0.12079424  0.72081437  0.92717001  1  0  0.426761  0  0.87514  0  0  0.398174  0  0.936232  0  0  0.408245  0  0.921392  0  0  0.301326  0.390968  0  0.946856  0
H  H8  1  0.66470299  0.83269832  0.80865496  1  0  0.131763  0  0.96134  0  0  0.137277  0  1.028891  0  0  0.142377  0  1.025183  0  0  0.123578  0.133585  0  1.031681  0
H  H9  1  0.33531658  0.16729083  0.19134107  1  0  0.131782  0  0.961324  0  0  0.137327  0  1.028813  0  0  0.142403  0  1.025139  0  0  0.123618  0.133634  0  1.031616  0
H  H10  1  0.79555234  0.14697783  0.90902198  1  0  0.129326  0  0.922536  0  0  0.138702  0  0.981475  0  0  0.142961  0  0.979093  0  0  0.122515  0.135587  0  0.983403  0
H  H11  1  0.20441039  0.85302931  0.09097556  1  0  0.129406  0  0.922478  0  0  0.138839  0  0.981354  0  0  0.143045  0  0.979039  0  0  0.122503  0.135715  0  0.983287  0
H  H12  1  0.33227163  0.54748960  0.39332410  1  0  0.128782  0  0.949698  0  0  0.133411  0  1.017693  0  0  0.138613  0  1.013135  0  0  0.130333  0.129671  0  1.020996  0
H  H13  1  0.66773467  0.45250429  0.60667186  1  0  0.128767  0  0.949792  0  0  0.133375  0  1.017776  0  0  0.138578  0  1.013217  0  0  0.130288  0.129632  0  1.021083  0
H  H14  1  0.91706657  0.68634795  0.69075314  1  0  0.130285  0  0.926215  0  0  0.138589  0  0.987473  0  0  0.142942  0  0.98448  0  0  0.129557  0.135413  0  0.989831  0
H  H15  1  0.08294907  0.31364591  0.30924854  1  0  0.130233  0  0.926226  0  0  0.138516  0  0.98752  0  0  0.142877  0  0.984517  0  0  0.129563  0.135347  0  0.989884  0
H  H16  1  0.91439780  0.38989175  0.96336011  1  0  0.441613  0  0.847606  0  0  0.413579  0  0.905226  0  0  0.424692  0  0.888865  0  0  0.304061  0.405568  0  0.917029  0
H  H17  1  0.08561989  0.61010985  0.03662848  1  0  0.441662  0  0.847557  0  0  0.413621  0  0.905193  0  0  0.424733  0  0.888831  0  0  0.30407  0.405611  0  0.916996  0
C  C18  1  0.62091033  0.68373350  0.04062947  1  0  0.673337  0  3.883988  0  0  0.625707  0  4.168206  0  0  0.660409  0  4.15788  0  0  0.241817  0.602094  0  4.17442  0
C  C19  1  0.37909679  0.31626224  0.95937435  1  0  0.673533  0  3.88397  0  0  0.625966  0  4.168096  0  0  0.660661  0  4.157764  0  0  0.2419  0.602347  0  4.174347  0
C  C20  1  0.68083560  0.81078639  0.99158647  1  0  0.124981  0  3.748373  0  0  0.130746  0  3.991033  0  0  0.132375  0  4.006718  0  0  0.127769  0.129303  0  3.980688  0
C  C21  1  0.31916543  0.18921222  0.00841456  1  0  0.125005  0  3.748331  0  0  0.130683  0  3.991075  0  0  0.13235  0  4.006708  0  0  0.127817  0.129234  0  3.980754  0
C  C22  1  0.69305471  0.87568782  0.87334439  1  0  -0.111139  0  3.615104  0  0  -0.145179  0  3.861626  0  0  -0.147514  0  3.876716  0  0  -0.055441  -0.143482  0  3.851849  0
C  C23  1  0.30694549  0.12430888  0.12665639  1  0  -0.111184  0  3.615263  0  0  -0.145263  0  3.861729  0  0  -0.147602  0  3.876817  0  0  -0.055501  -0.143566  0  3.851967  0
C  C24  1  0.73542197  0.99862967  0.84125661  1  0  0.017214  0  3.652075  0  0  0.033873  0  3.895586  0  0  0.034244  0  3.910659  0  0  0.021478  0.033107  0  3.885822  0
C  C25  1  0.26457423  0.00136707  0.15873820  1  0  0.017229  0  3.652027  0  0  0.034085  0  3.895359  0  0  0.034481  0  3.910383  0  0  0.021557  0.033316  0  3.885595  0
C  C26  1  0.76597841  0.05080207  0.92864921  1  0  -0.096302  0  3.609305  0  0  -0.132143  0  3.863541  0  0  -0.134387  0  3.879551  0  0  -0.058635  -0.130567  0  3.85315  0
C  C27  1  0.23399199  0.94920127  0.07134847  1  0  -0.096278  0  3.609334  0  0  -0.132273  0  3.863481  0  0  -0.134475  0  3.87949  0  0  -0.058598  -0.13068  0  3.85307  0
C  C28  1  0.75720382  0.97691573  0.04376378  1  0  0.113862  0  3.74437  0  0  0.117735  0  3.994597  0  0  0.118965  0  4.012137  0  0  0.118971  0.116621  0  3.982971  0
C  C29  1  0.24277945  0.02308953  0.95623512  1  0  0.113531  0  3.744784  0  0  0.117575  0  3.994841  0  0  0.118802  0  4.012377  0  0  0.118887  0.116462  0  3.983204  0
C  C30  1  0.78443750  0.02078634  0.14766914  1  0  0.646623  0  3.935663  0  0  0.597135  0  4.238253  0  0  0.629617  0  4.229586  0  0  0.210056  0.5752  0  4.243277  0
C  C31  1  0.21554328  0.97922839  0.85233492  1  0  0.646696  0  3.936  0  0  0.597106  0  4.238623  0  0  0.629594  0  4.229951  0  0  0.210035  0.575167  0  4.243647  0
C  C32  1  0.73972835  0.07256798  0.71490203  1  0  0.709589  0  3.892636  0  0  0.663712  0  4.187076  0  0  0.697784  0  4.175772  0  0  0.23066  0.640492  0  4.19383  0
C  C33  1  0.26027702  0.92741927  0.28509136  1  0  0.709299  0  3.892801  0  0  0.66327  0  4.187439  0  0  0.69733  0  4.176158  0  0  0.230481  0.640043  0  4.194202  0
C  C34  1  0.10703172  0.60799045  0.23946874  1  0  0.653482  0  3.915377  0  0  0.604525  0  4.210043  0  0  0.638243  0  4.200788  0  0  0.230674  0.581661  0  4.21554  0
C  C35  1  0.89296383  0.39201392  0.76052621  1  0  0.653532  0  3.915122  0  0  0.604759  0  4.20952  0  0  0.638448  0  4.200307  0  0  0.230784  0.581892  0  4.214989  0
C  C36  1  0.06857283  0.63600477  0.36355472  1  0  0.107845  0  3.767772  0  0  0.112828  0  4.013213  0  0  0.112608  0  4.031159  0  0  0.120989  0.112559  0  4.001384  0
C  C37  1  0.93141726  0.36399475  0.63644830  1  0  0.108077  0  3.767721  0  0  0.112908  0  4.013196  0  0  0.112697  0  4.031155  0  0  0.121056  0.112654  0  4.001337  0
C  C38  1  0.19509890  0.59465070  0.43114422  1  0  -0.072651  0  3.63095  0  0  -0.110189  0  3.886387  0  0  -0.109957  0  3.900767  0  0  -0.04625  -0.110261  0  3.876983  0
C  C39  1  0.80490397  0.40534605  0.56885264  1  0  -0.072756  0  3.63142  0  0  -0.110182  0  3.886725  0  0  -0.109957  0  3.901108  0  0  -0.046213  -0.11025  0  3.877314  0
C  C40  1  0.14255341  0.61412509  0.54975360  1  0  -0.007732  0  3.696806  0  0  0.008178  0  3.941302  0  0  0.006004  0  3.956843  0  0  0.016225  0.009283  0  3.931012  0
C  C41  1  0.85745090  0.38587641  0.45024445  1  0  -0.007893  0  3.697158  0  0  0.007987  0  3.941497  0  0  0.005805  0  3.957034  0  0  0.01614  0.009096  0  3.931244  0
C  C42  1  0.96473584  0.67336135  0.59722702  1  0  -0.110448  0  3.649916  0  0  -0.147228  0  3.904233  0  0  -0.147966  0  3.919689  0  0  -0.052996  -0.146624  0  3.89408  0
C  C43  1  0.03526921  0.32663729  0.40277151  1  0  -0.110296  0  3.649783  0  0  -0.147022  0  3.904122  0  0  -0.147782  0  3.919567  0  0  -0.052924  -0.146427  0  3.893995  0
C  C44  1  0.84544342  0.70965401  0.52343314  1  0  0.116731  0  3.748334  0  0  0.123165  0  3.993249  0  0  0.123908  0  4.009705  0  0  0.12856  0.122232  0  3.982388  0
C  C45  1  0.15455251  0.29034359  0.47657251  1  0  0.116725  0  3.747877  0  0  0.123011  0  3.993  0  0  0.123798  0  4.009409  0  0  0.128411  0.122074  0  3.982142  0
C  C46  1  0.64506607  0.76007545  0.56724591  1  0  0.645739  0  3.932465  0  0  0.597973  0  4.229004  0  0  0.632296  0  4.2183  0  0  0.220967  0.5747  0  4.235575  0
C  C47  1  0.35495004  0.23991639  0.43276794  1  0  0.645512  0  3.932399  0  0  0.597742  0  4.229021  0  0  0.632057  0  4.218316  0  0  0.220868  0.574479  0  4.235583  0
C  C48  1  0.27622474  0.56337730  0.62462444  1  0  0.707449  0  3.87864  0  0  0.658371  0  4.170477  0  0  0.693958  0  4.158239  0  0  0.23993  0.634111  0  4.177809  0
C  C49  1  0.72378785  0.43662331  0.37536792  1  0  0.707587  0  3.878854  0  0  0.65868  0  4.17037  0  0  0.694313  0  4.158041  0  0  0.240134  0.634375  0  4.177812  0
N  N50  1  0.71513597  0.85981183  0.07377478  1  0  -0.435989  0  3.332368  0  0  -0.392141  0  3.58645  0  0  -0.403352  0  3.60481  0  0  -0.387343  -0.384249  0  3.574168  0
N  N51  1  0.28485898  0.14018961  0.92622769  1  0  -0.435801  0  3.332313  0  0  -0.391979  0  3.586376  0  0  -0.403213  0  3.604731  0  0  -0.387336  -0.384082  0  3.574105  0
N  N52  1  0.89827891  0.69352772  0.40842567  1  0  -0.432789  0  3.330813  0  0  -0.388599  0  3.582682  0  0  -0.399732  0  3.602115  0  0  -0.380904  -0.380608  0  3.569676  0
N  N53  1  0.10171696  0.30648039  0.59157767  1  0  -0.43273  0  3.330437  0  0  -0.388465  0  3.582386  0  0  -0.399627  0  3.601815  0  0  -0.380771  -0.380467  0  3.569359  0
O  O54  1  0.62552087  0.63339416  0.14935255  1  0  -0.739779  0  2.083704  0  0  -0.682505  0  2.337487  0  0  -0.709442  0  2.328137  0  0  -0.377847  -0.663275  0  2.343202  0
O  O55  1  0.37447580  0.36660057  0.85065443  1  0  -0.739813  0  2.083884  0  0  -0.682551  0  2.337626  0  0  -0.709498  0  2.328278  0  0  -0.377798  -0.663301  0  2.343355  0
O  O56  1  0.56672047  0.63261239  0.97667351  1  0  -0.704784  0  2.003919  0  0  -0.646996  0  2.252677  0  0  -0.674296  0  2.240788  0  0  -0.355753  -0.627495  0  2.260326  0
O  O57  1  0.43329274  0.36738048  0.02333225  1  0  -0.704944  0  2.003765  0  0  -0.647184  0  2.25252  0  0  -0.674483  0  2.240624  0  0  -0.355837  -0.62768  0  2.26018  0
O  O58  1  0.76426260  0.93967427  0.24790286  1  0  -0.777941  0  2.066298  0  0  -0.728421  0  2.327973  0  0  -0.754252  0  2.318987  0  0  -0.463778  -0.709911  0  2.333438  0
O  O59  1  0.23573444  0.06032439  0.75209137  1  0  -0.777914  0  2.06635  0  0  -0.728389  0  2.328106  0  0  -0.754238  0  2.31912  0  0  -0.463781  -0.709874  0  2.333565  0
O  O60  1  0.82182543  0.12879699  0.13365211  1  0  -0.629789  0  1.979026  0  0  -0.582519  0  2.207095  0  0  -0.605639  0  2.198533  0  0  -0.323447  -0.566521  0  2.212882  0
O  O61  1  0.17812314  0.87122346  0.86634617  1  0  -0.629891  0  1.979192  0  0  -0.582597  0  2.207355  0  0  -0.605703  0  2.198751  0  0  -0.323509  -0.566593  0  2.213139  0
O  O62  1  0.61198727  0.16923014  0.70752897  1  0  -0.759185  0  2.046201  0  0  -0.704056  0  2.312434  0  0  -0.733214  0  2.303156  0  0  -0.420796  -0.682754  0  2.317811  0
O  O63  1  0.38801008  0.83075708  0.29246603  1  0  -0.758927  0  2.046364  0  0  -0.703772  0  2.312614  0  0  -0.732911  0  2.303356  0  0  -0.420626  -0.682471  0  2.31799  0
O  O64  1  0.86214754  0.03437099  0.62858986  1  0  -0.662282  0  1.879243  0  0  -0.621683  0  2.100229  0  0  -0.646125  0  2.091874  0  0  -0.400089  -0.604046  0  2.105339  0
O  O65  1  0.13784253  0.96561336  0.37140554  1  0  -0.662246  0  1.879119  0  0  -0.621613  0  2.100175  0  0  -0.64606  0  2.091832  0  0  -0.400069  -0.603968  0  2.105288  0
O  O66  1  0.97566441  0.64859800  0.18855137  1  0  -0.71389  0  2.028667  0  0  -0.657882  0  2.270701  0  0  -0.684276  0  2.261401  0  0  -0.363372  -0.639099  0  2.27649  0
O  O67  1  0.02431821  0.35141489  0.81144598  1  0  -0.713808  0  2.028791  0  0  -0.657846  0  2.270722  0  0  -0.684238  0  2.261427  0  0  -0.363378  -0.639075  0  2.276525  0
O  O68  1  0.25840342  0.54471430  0.19591729  1  0  -0.664054  0  2.011502  0  0  -0.612419  0  2.263102  0  0  -0.638684  0  2.253147  0  0  -0.345643  -0.593712  0  2.26939  0
O  O69  1  0.74159116  0.45530904  0.80408633  1  0  -0.664288  0  2.011198  0  0  -0.612741  0  2.262759  0  0  -0.638976  0  2.252762  0  0  -0.345855  -0.594036  0  2.269042  0
O  O70  1  0.56026458  0.80164495  0.48482729  1  0  -0.738  0  2.015782  0  0  -0.68846  0  2.262749  0  0  -0.712309  0  2.251718  0  0  -0.419793  -0.671608  0  2.269941  0
O  O71  1  0.43974718  0.19834308  0.51518574  1  0  -0.737976  0  2.015755  0  0  -0.688385  0  2.262694  0  0  -0.712245  0  2.251667  0  0  -0.419835  -0.671508  0  2.269849  0
O  O72  1  0.57634300  0.75489339  0.67939720  1  0  -0.674046  0  1.944546  0  0  -0.624955  0  2.183847  0  0  -0.650337  0  2.173245  0  0  -0.344979  -0.606874  0  2.190559  0
O  O73  1  0.42366563  0.24511179  0.32061605  1  0  -0.673893  0  1.944672  0  0  -0.624787  0  2.183978  0  0  -0.650152  0  2.173352  0  0  -0.344886  -0.606722  0  2.190707  0
O  O74  1  0.36629793  0.45136708  0.61451892  1  0  -0.735501  0  2.062025  0  0  -0.681574  0  2.325867  0  0  -0.708914  0  2.315369  0  0  -0.404031  -0.661695  0  2.332217  0
O  O75  1  0.63371197  0.54863349  0.38547737  1  0  -0.735578  0  2.062207  0  0  -0.681735  0  2.325948  0  0  -0.709075  0  2.315427  0  0  -0.404176  -0.661844  0  2.332338  0
O  O76  1  0.29094871  0.63306707  0.68939873  1  0  -0.674334  0  1.991853  0  0  -0.621732  0  2.23509  0  0  -0.648498  0  2.224563  0  0  -0.373008  -0.602586  0  2.241874  0
O  O77  1  0.70908077  0.36693555  0.31058559  1  0  -0.674366  0  1.991932  0  0  -0.62179  0  2.235029  0  0  -0.648575  0  2.224477  0  0  -0.373038  -0.602625  0  2.241848  0
O  O78  1  0.86023693  0.37309635  0.05144164  1  0  -0.879522  0  1.758037  0  0  -0.829057  0  1.92234  0  0  -0.849148  0  1.890698  0  0  -0.630587  -0.814443  0  1.944814  0
O  O79  1  0.13976348  0.62690999  0.94854683  1  0  -0.879564  0  1.757837  0  0  -0.829105  0  1.922125  0  0  -0.849194  0  1.890484  0  0  -0.630565  -0.814491  0  1.944597  0
