# generated using pymatgen
data_CdH22C22(N4O3)2
_symmetry_space_group_name_H-M   'P 1'
_cell_length_a   8.62222238
_cell_length_b   9.65510251
_cell_length_c   16.16750000
_cell_angle_alpha   87.88970166
_cell_angle_beta   85.26951558
_cell_angle_gamma   63.47993209
_symmetry_Int_Tables_number   1
_chemical_formula_structural   CdH22C22(N4O3)2
_chemical_formula_sum   'Cd2 H44 C44 N16 O12'
_cell_volume   1200.19663227
_cell_formula_units_Z   2
loop_
 _symmetry_equiv_pos_site_id
 _symmetry_equiv_pos_as_xyz
  1  'x, y, z'
loop_
 _atom_site_type_symbol
 _atom_site_label
 _atom_site_symmetry_multiplicity
 _atom_site_fract_x
 _atom_site_fract_y
 _atom_site_fract_z
 _atom_site_occupancy
 _atom_site_hle17_bader_spin_density
 _atom_site_hle17_ddec_charge
 _atom_site_hle17_ddec_spin_density
 _atom_site_hle17_ddec_sum_bond_order
 _atom_site_hle17_magmom
 _atom_site_hse06_10hf_bader_spin_density
 _atom_site_hse06_10hf_ddec_charge
 _atom_site_hse06_10hf_ddec_spin_density
 _atom_site_hse06_10hf_ddec_sum_bond_order
 _atom_site_hse06_10hf_magmom
 _atom_site_hse06_bader_spin_density
 _atom_site_hse06_ddec_charge
 _atom_site_hse06_ddec_spin_density
 _atom_site_hse06_ddec_sum_bond_order
 _atom_site_hse06_magmom
 _atom_site_pbe_bader_charge
 _atom_site_pbe_bader_spin_density
 _atom_site_pbe_cm5_charge
 _atom_site_pbe_ddec_charge
 _atom_site_pbe_ddec_spin_density
 _atom_site_pbe_ddec_sum_bond_order
 _atom_site_pbe_magmom
Cd  Cd0  1  0.13332423  0.73338728  0.75001111  1  0  1.056098  0  1.741669  0  0  0.844189  0  2.197538  0  0  0.897867  0  2.153726  0  1.244284  0  0.800422  0.806185  0  2.227177  0
Cd  Cd1  1  0.86667613  0.26661231  0.24998907  1  0  1.05611  0  1.741668  0  0  0.844213  0  2.197533  0  0  0.897889  0  2.153723  0  1.244277  0  0.800433  0.80621  0  2.227172  0
H  H2  1  0.07401675  0.16580174  0.50324734  1  0  0.071365  0  0.925226  0  0  0.087238  0  0.990236  0  0  0.08715  0  0.991094  0  0.060306  0  0.107315  0.087247  0  0.989624  0
H  H3  1  0.76026041  0.16581331  0.99677155  1  0  0.07222  0  0.925643  0  0  0.087955  0  0.990804  0  0  0.087859  0  0.991646  0  0.063167  0  0.107784  0.088081  0  0.990057  0
H  H4  1  0.92598362  0.83419785  0.49675284  1  0  0.071383  0  0.925231  0  0  0.087265  0  0.990251  0  0  0.087179  0  0.991111  0  0.060297  0  0.107311  0.087274  0  0.989639  0
H  H5  1  0.23973995  0.83418627  0.00322863  1  0  0.072167  0  0.925738  0  0  0.087926  0  0.990863  0  0  0.087829  0  0.991706  0  0.063142  0  0.107767  0.088054  0  0.990115  0
H  H6  1  0.28583343  0.06776227  0.53536121  1  0  0.098802  0  0.908122  0  0  0.117254  0  0.96568  0  0  0.117942  0  0.965428  0  0.111337  0  0.121181  0.116726  0  0.965965  0
H  H7  1  0.64652330  0.06774722  0.96465095  1  0  0.098974  0  0.907979  0  0  0.117596  0  0.965491  0  0  0.118252  0  0.965253  0  0.125292  0  0.121427  0.117051  0  0.965738  0
H  H8  1  0.71416519  0.93223848  0.46463963  1  0  0.098782  0  0.908115  0  0  0.117249  0  0.965681  0  0  0.117938  0  0.965429  0  0.111334  0  0.121179  0.116722  0  0.965965  0
H  H9  1  0.35347649  0.93225352  0.03534923  1  0  0.098951  0  0.908014  0  0  0.117566  0  0.965535  0  0  0.118221  0  0.965298  0  0.125285  0  0.121407  0.117022  0  0.965781  0
H  H10  1  0.20600161  0.37160152  0.49189504  1  0  0.114987  0  0.986511  0  0  0.117227  0  1.057856  0  0  0.121539  0  1.05543  0  0.13785  0  0.104247  0.114078  0  1.059733  0
H  H11  1  0.42242794  0.37157605  0.00812613  1  0  0.114335  0  0.986197  0  0  0.116617  0  1.057541  0  0  0.120835  0  1.055219  0  0.139421  0  0.104181  0.113609  0  1.05936  0
H  H12  1  0.79399817  0.62839691  0.50810519  1  0  0.115017  0  0.986491  0  0  0.117257  0  1.057832  0  0  0.121567  0  1.055409  0  0.137839  0  0.104258  0.114108  0  1.059709  0
H  H13  1  0.57757244  0.62842585  0.99187462  1  0  0.114353  0  0.986222  0  0  0.116636  0  1.057558  0  0  0.120854  0  1.055235  0  0.139391  0  0.104181  0.113628  0  1.059378  0
H  H14  1  0.21445569  0.60020903  0.93336101  1  0  0.078605  0  0.950499  0  0  0.083918  0  1.021995  0  0  0.086818  0  1.018783  0  0.114357  0  0.111058  0.081802  0  1.024342  0
H  H15  1  0.18533627  0.60025996  0.56664492  1  0  0.077967  0  0.950872  0  0  0.0838  0  1.021866  0  0  0.086674  0  1.018687  0  0.113788  0  0.111076  0.08166  0  1.024157  0
H  H16  1  0.78554410  0.39978940  0.06663922  1  0  0.078607  0  0.95048  0  0  0.083918  0  1.021971  0  0  0.086819  0  1.018759  0  0.114349  0  0.111053  0.081801  0  1.024319  0
H  H17  1  0.81466061  0.39973963  0.43335479  1  0  0.077968  0  0.950852  0  0  0.083778  0  1.021868  0  0  0.086651  0  1.018693  0  0.113736  0  0.11108  0.081638  0  1.024159  0
H  H18  1  0.02810241  0.45767572  0.78954313  1  0  0.076889  0  0.98853  0  0  0.079274  0  1.063877  0  0  0.082035  0  1.060993  0  0.124679  0  0.109034  0.077189  0  1.066095  0
H  H19  1  0.51427388  0.45765489  0.71046649  1  0  0.076747  0  0.989678  0  0  0.079432  0  1.064729  0  0  0.082156  0  1.061942  0  0.159261  0  0.108937  0.077373  0  1.066745  0
H  H20  1  0.97189854  0.54232502  0.21045762  1  0  0.076905  0  0.988552  0  0  0.079292  0  1.063892  0  0  0.082052  0  1.061008  0  0.124702  0  0.109035  0.077209  0  1.066103  0
H  H21  1  0.48572706  0.54234354  0.28953369  1  0  0.076759  0  0.989653  0  0  0.079446  0  1.064705  0  0  0.082169  0  1.061918  0  0.159261  0  0.108941  0.077387  0  1.066719  0
H  H22  1  0.04815593  0.22006503  0.72445571  1  0  0.105275  0  0.977306  0  0  0.110986  0  1.044313  0  0  0.113315  0  1.045732  0  0.086885  0  0.102192  0.109422  0  1.043207  0
H  H23  1  0.73182115  0.22002683  0.77555228  1  0  0.104557  0  0.977352  0  0  0.110625  0  1.043983  0  0  0.112874  0  1.045489  0  0.085648  0  0.102313  0.109017  0  1.043132  0
H  H24  1  0.95184502  0.77993340  0.27554447  1  0  0.1053  0  0.977274  0  0  0.111011  0  1.044283  0  0  0.11334  0  1.045701  0  0.086914  0  0.10221  0.109444  0  1.043184  0
H  H25  1  0.26818096  0.77997160  0.22444723  1  0  0.10453  0  0.977368  0  0  0.110601  0  1.044001  0  0  0.112852  0  1.045499  0  0.085535  0  0.102299  0.108994  0  1.043148  0
H  H26  1  0.80906818  0.26546405  0.56521042  1  0  0.119967  0  0.964221  0  0  0.130914  0  1.023886  0  0  0.134226  0  1.02297  0  0.088073  0  0.107078  0.128685  0  1.024492  0
H  H27  1  0.92563883  0.26543511  0.93475495  1  0  0.119681  0  0.96366  0  0  0.130404  0  1.02367  0  0  0.133823  0  1.022593  0  0.087876  0  0.106831  0.127994  0  1.024591  0
H  H28  1  0.19093335  0.73453554  0.43478970  1  0  0.119927  0  0.964287  0  0  0.130919  0  1.0239  0  0  0.134231  0  1.022985  0  0.088078  0  0.107069  0.128687  0  1.02451  0
H  H29  1  0.07436270  0.73456448  0.06524518  1  0  0.119706  0  0.963586  0  0  0.130425  0  1.023605  0  0  0.133844  0  1.022529  0  0.087865  0  0.106851  0.128014  0  1.024526  0
H  H30  1  0.52049331  0.26908361  0.58595317  1  0  0.093565  0  0.944955  0  0  0.105274  0  1.003362  0  0  0.107173  0  1.002376  0  0.095651  0  0.105926  0.103651  0  1.004429  0
H  H31  1  0.21055543  0.26906740  0.91403305  1  0  0.093175  0  0.944516  0  0  0.104611  0  1.00355  0  0  0.106519  0  1.002525  0  0.102126  0  0.105816  0.103379  0  1.004056  0
H  H32  1  0.47950822  0.73091598  0.41404696  1  0  0.093541  0  0.944928  0  0  0.105248  0  1.003345  0  0  0.107151  0  1.00235  0  0.095645  0  0.105907  0.103625  0  1.004411  0
H  H33  1  0.78944494  0.73093218  0.08596713  1  0  0.093187  0  0.944488  0  0  0.104628  0  1.003524  0  0  0.106535  0  1.002498  0  0.102123  0  0.105824  0.103393  0  1.004028  0
H  H34  1  0.49219141  0.04524970  0.66074425  1  0  0.107511  0  0.963138  0  0  0.115868  0  1.02612  0  0  0.119021  0  1.026054  0  0.084936  0  0.101829  0.11351  0  1.026506  0
H  H35  1  0.46275523  0.04521729  0.83922283  1  0  0.107447  0  0.963103  0  0  0.115886  0  1.026102  0  0  0.118965  0  1.026163  0  0.094456  0  0.101644  0.113777  0  1.026138  0
H  H36  1  0.50780838  0.95475105  0.33925531  1  0  0.107554  0  0.963129  0  0  0.115917  0  1.026096  0  0  0.119071  0  1.02603  0  0.084921  0  0.101853  0.113553  0  1.026501  0
H  H37  1  0.53724572  0.95478346  0.16077667  1  0  0.107443  0  0.963124  0  0  0.115884  0  1.026118  0  0  0.118963  0  1.02618  0  0.094423  0  0.10164  0.113777  0  1.026152  0
H  H38  1  0.75757601  0.83412840  0.71484304  1  0  0.071636  0  0.933645  0  0  0.082041  0  0.995386  0  0  0.084209  0  0.99296  0  0.077755  0  0.111516  0.080498  0  0.996944  0
H  H39  1  0.40841590  0.83407747  0.78510952  1  0  0.07177  0  0.934123  0  0  0.081846  0  0.996198  0  0  0.084046  0  0.993784  0  0.083955  0  0.111399  0.080379  0  0.997753  0
H  H40  1  0.24242378  0.16587235  0.28515652  1  0  0.071621  0  0.933638  0  0  0.082025  0  0.995383  0  0  0.084192  0  0.992956  0  0.077752  0  0.11151  0.080481  0  0.996941  0
H  H41  1  0.59158331  0.16592444  0.21488943  1  0  0.071762  0  0.934115  0  0  0.081834  0  0.996194  0  0  0.084033  0  0.993778  0  0.083956  0  0.111389  0.080366  0  0.99775  0
H  H42  1  0.20632073  0.91939813  0.62111188  1  0  0.274648  0  0.979407  0  0  0.252121  0  1.056055  0  0  0.260493  0  1.048847  0  0.524698  0  0.291685  0.245864  0  1.061693  0
H  H43  1  0.87436087  0.91940507  0.87889498  1  0  0.274916  0  0.978737  0  0  0.252393  0  1.056033  0  0  0.260853  0  1.048757  0  0.525771  0  0.291943  0.246394  0  1.061311  0
H  H44  1  0.79367848  0.08060146  0.37888835  1  0  0.27466  0  0.979379  0  0  0.252139  0  1.056015  0  0  0.260512  0  1.048806  0  0.524698  0  0.291696  0.245883  0  1.061655  0
H  H45  1  0.12563833  0.08059451  0.12110463  1  0  0.274918  0  0.978726  0  0  0.252393  0  1.056031  0  0  0.260853  0  1.048755  0  0.525774  0  0.291947  0.246393  0  1.061308  0
C  C46  1  0.94239509  0.04152018  0.62529055  1  0  0.414325  0  3.819775  0  0  0.386637  0  4.077949  0  0  0.406884  0  4.091853  0  0.94635  0  0.221396  0.373173  0  4.067993  0
C  C47  1  0.01620614  0.04153522  0.87469116  1  0  0.414222  0  3.819614  0  0  0.386058  0  4.079388  0  0  0.40639  0  4.093251  0  0.968685  0  0.220968  0.372439  0  4.069531  0
C  C48  1  0.05760353  0.95848057  0.37471030  1  0  0.414375  0  3.819737  0  0  0.386689  0  4.077911  0  0  0.406938  0  4.091815  0  0.94635  0  0.221405  0.373226  0  4.067954  0
C  C49  1  0.98379365  0.95846552  0.12530840  1  0  0.414197  0  3.819624  0  0  0.386064  0  4.079362  0  0  0.406395  0  4.093226  0  0.968687  0  0.220947  0.372441  0  4.069501  0
C  C50  1  0.14905352  0.13190151  0.55887045  1  0  0.006921  0  3.688466  0  0  -0.056862  0  3.943446  0  0  -0.052258  0  3.954197  0  0.333968  0  -0.048551  -0.059823  0  3.935753  0
C  C51  1  0.71916400  0.13190266  0.94114381  1  0  0.004066  0  3.689087  0  0  -0.059597  0  3.945706  0  0  -0.054898  0  3.956335  0  0.307105  0  -0.049502  -0.062484  0  3.937787  0
C  C52  1  0.85094801  0.86809808  0.44112967  1  0  0.006953  0  3.688384  0  0  -0.056901  0  3.943486  0  0  -0.052304  0  3.95425  0  0.333984  0  -0.048559  -0.059861  0  3.935791  0
C  C53  1  0.28083462  0.86809808  0.05885703  1  0  0.004089  0  3.689189  0  0  -0.059572  0  3.945796  0  0  -0.054873  0  3.956428  0  0.30709  0  -0.049468  -0.062459  0  3.937873  0
C  C54  1  0.12729162  0.27625328  0.60230774  1  0  0.128553  0  3.696323  0  0  0.14478  0  3.931873  0  0  0.149245  0  3.953453  0  0.019491  0  0.013561  0.141994  0  3.916961  0
C  C55  1  0.59652920  0.27621161  0.89771252  1  0  0.129471  0  3.694444  0  0  0.145595  0  3.93032  0  0  0.150045  0  3.951861  0  -0.058416  0  0.013498  0.142688  0  3.91554  0
C  C56  1  0.87270758  0.72374631  0.39769249  1  0  0.12855  0  3.696236  0  0  0.144796  0  3.931805  0  0  0.149264  0  3.953385  0  0.019496  0  0.013622  0.142011  0  3.91689  0
C  C57  1  0.40347234  0.72378798  0.10228699  1  0  0.129459  0  3.694497  0  0  0.145563  0  3.930401  0  0  0.150012  0  3.951945  0  -0.058362  0  0.013485  0.142652  0  3.915627  0
C  C58  1  0.16332431  0.38694210  0.55766107  1  0  -0.172092  0  3.715775  0  0  -0.187607  0  3.963512  0  0  -0.196679  0  3.985508  0  -0.051111  0  -0.086962  -0.181756  0  3.948805  0
C  C59  1  0.44977675  0.38687381  0.94236298  1  0  -0.170735  0  3.713676  0  0  -0.186147  0  3.961447  0  0  -0.195103  0  3.983517  0  0.03965  0  -0.086621  -0.180402  0  3.946689  0
C  C60  1  0.83667373  0.61305748  0.44233922  1  0  -0.17213  0  3.715727  0  0  -0.187651  0  3.963462  0  0  -0.196722  0  3.985457  0  -0.051105  0  -0.086996  -0.1818  0  3.948755  0
C  C61  1  0.55022304  0.61312693  0.05763658  1  0  -0.170793  0  3.713699  0  0  -0.186196  0  3.961457  0  0  -0.195151  0  3.983527  0  0.039664  0  -0.086632  -0.180448  0  3.9467  0
C  C62  1  0.15146692  0.51522752  0.59887410  1  0  0.132744  0  3.716095  0  0  0.099975  0  3.972073  0  0  0.107387  0  3.990567  0  0.449006  0  0.040318  0.09534  0  3.958914  0
C  C63  1  0.33335858  0.51514881  0.90114046  1  0  0.130806  0  3.715185  0  0  0.098473  0  3.971236  0  0  0.105894  0  3.989704  0  0.43424  0  0.039718  0.093844  0  3.958431  0
C  C64  1  0.84853229  0.48477206  0.40112552  1  0  0.132743  0  3.715992  0  0  0.099999  0  3.97197  0  0  0.10741  0  3.990463  0  0.449008  0  0.040308  0.095363  0  3.958814  0
C  C65  1  0.66664179  0.48485078  0.09885910  1  0  0.130829  0  3.715104  0  0  0.098509  0  3.971149  0  0  0.105929  0  3.989616  0  0.434243  0  0.039732  0.093879  0  3.958346  0
C  C66  1  0.06669531  0.43470709  0.72357091  1  0  0.130344  0  3.711595  0  0  0.101526  0  3.958176  0  0  0.108904  0  3.97708  0  0.502669  0  0.039395  0.096942  0  3.945191  0
C  C67  1  0.49865368  0.43468047  0.77643681  1  0  0.129857  0  3.711388  0  0  0.100996  0  3.957819  0  0  0.108342  0  3.976793  0  0.386014  0  0.03941  0.096194  0  3.944837  0
C  C68  1  0.93330564  0.56529134  0.27642927  1  0  0.130321  0  3.711673  0  0  0.10151  0  3.958239  0  0  0.108888  0  3.977142  0  0.502657  0  0.039407  0.096926  0  3.945253  0
C  C69  1  0.50134727  0.56531796  0.22356275  1  0  0.12983  0  3.711348  0  0  0.100971  0  3.957783  0  0  0.108316  0  3.976758  0  0.386031  0  0.039426  0.096169  0  3.944801  0
C  C70  1  0.07682136  0.30265511  0.68673396  1  0  -0.162496  0  3.713224  0  0  -0.177967  0  3.955425  0  0  -0.186147  0  3.977932  0  -0.084854  0  -0.087914  -0.172582  0  3.939905  0
C  C71  1  0.62055751  0.30262385  0.81328165  1  0  -0.161498  0  3.710952  0  0  -0.177003  0  3.953041  0  0  -0.185136  0  3.975637  0  0.013636  0  -0.08799  -0.171784  0  3.93801  0
C  C72  1  0.92317900  0.69734217  0.31326689  1  0  -0.162519  0  3.713244  0  0  -0.177996  0  3.955449  0  0  -0.186175  0  3.977953  0  -0.084838  0  -0.087963  -0.172611  0  3.939925  0
C  C73  1  0.37944403  0.69737573  0.18671786  1  0  -0.16144  0  3.710934  0  0  -0.176942  0  3.953023  0  0  -0.185073  0  3.975621  0  0.013783  0  -0.087976  -0.17172  0  3.937989  0
C  C74  1  0.79540739  0.16938773  0.59637677  1  0  -0.228721  0  3.682934  0  0  -0.244025  0  3.934021  0  0  -0.254916  0  3.952395  0  -0.021044  0  -0.101835  -0.237467  0  3.921639  0
C  C75  1  0.03537799  0.16937616  0.90356364  1  0  -0.228701  0  3.682586  0  0  -0.243407  0  3.933709  0  0  -0.254409  0  3.952008  0  -0.036706  0  -0.101732  -0.236482  0  3.921619  0
C  C76  1  0.20459240  0.83061302  0.40362340  1  0  -0.228686  0  3.682934  0  0  -0.244027  0  3.934003  0  0  -0.254922  0  3.95238  0  -0.021015  0  -0.101814  -0.237468  0  3.921623  0
C  C77  1  0.96462180  0.83062459  0.09643592  1  0  -0.228721  0  3.682446  0  0  -0.243432  0  3.933573  0  0  -0.254434  0  3.95187  0  -0.036698  0  -0.101755  -0.236503  0  3.921479  0
C  C78  1  0.63353751  0.17180694  0.60898477  1  0  0.023519  0  3.751276  0  0  0.004136  0  4.002527  0  0  0.012151  0  4.018366  0  -0.073151  0  -0.070325  -0.000653  0  3.991852  0
C  C79  1  0.19488502  0.17176643  0.89095752  1  0  0.02359  0  3.750836  0  0  0.004278  0  4.002255  0  0  0.012422  0  4.017981  0  -0.088418  0  -0.069964  -0.000665  0  3.991091  0
C  C80  1  0.36646403  0.82819496  0.39101531  1  0  0.02354  0  3.751303  0  0  0.004161  0  4.002556  0  0  0.012176  0  4.018399  0  -0.073257  0  -0.07031  -0.000628  0  3.991877  0
C  C81  1  0.80511535  0.82823316  0.10904204  1  0  0.023614  0  3.750747  0  0  0.004287  0  4.002187  0  0  0.012433  0  4.01791  0  -0.088407  0  -0.069954  -0.000653  0  3.991021  0
C  C82  1  0.61618288  0.04958345  0.65115732  1  0  -0.165196  0  3.772105  0  0  -0.180273  0  4.030621  0  0  -0.189775  0  4.051665  0  0.039185  0  -0.108455  -0.174504  0  4.016998  0
C  C83  1  0.33444161  0.04953715  0.84877801  1  0  -0.16476  0  3.771914  0  0  -0.180035  0  4.030421  0  0  -0.189458  0  4.051394  0  0.046981  0  -0.108288  -0.173915  0  4.015979  0
C  C84  1  0.38381865  0.95041614  0.34884281  1  0  -0.165244  0  3.772194  0  0  -0.180325  0  4.030706  0  0  -0.189828  0  4.05175  0  0.039265  0  -0.108476  -0.174558  0  4.017079  0
C  C85  1  0.66555818  0.95046360  0.15122217  1  0  -0.164758  0  3.771954  0  0  -0.180036  0  4.030468  0  0  -0.189459  0  4.051441  0  0.047027  0  -0.108272  -0.173915  0  4.016024  0
C  C86  1  0.76418595  0.93120018  0.68066940  1  0  0.140574  0  3.765256  0  0  0.107643  0  4.024096  0  0  0.118218  0  4.040823  0  0.432897  0  0.033553  0.100346  0  4.012571  0
C  C87  1  0.30474358  0.93118629  0.81927140  1  0  0.138721  0  3.766926  0  0  0.105673  0  4.02594  0  0  0.116222  0  4.042583  0  0.410346  0  0.033533  0.098979  0  4.014016  0
C  C88  1  0.23581442  0.06879940  0.31933078  1  0  0.140629  0  3.765155  0  0  0.107705  0  4.023988  0  0  0.118281  0  4.040715  0  0.432918  0  0.03357  0.10041  0  4.012461  0
C  C89  1  0.69525621  0.06881445  0.18072816  1  0  0.138718  0  3.766958  0  0  0.105672  0  4.025978  0  0  0.116222  0  4.042618  0  0.410339  0  0.033531  0.098979  0  4.014052  0
N  N90  1  0.92361375  0.92599830  0.66958890  1  0  -0.460906  0  3.190811  0  0  -0.384839  0  3.463166  0  0  -0.408812  0  3.478137  0  -1.244036  0  -0.349345  -0.368013  0  3.451938  0
N  N91  1  0.15050492  0.92600524  0.83038726  1  0  -0.460356  0  3.192  0  0  -0.383287  0  3.463577  0  0  -0.407289  0  3.478631  0  -1.227443  0  -0.349136  -0.366689  0  3.452532  0
N  N92  1  0.07638662  0.07400129  0.33041066  1  0  -0.460967  0  3.190799  0  0  -0.384911  0  3.463179  0  0  -0.408878  0  3.478134  0  -1.244024  0  -0.349353  -0.368085  0  3.451952  0
N  N93  1  0.84949487  0.07399550  0.16961230  1  0  -0.460387  0  3.192061  0  0  -0.383299  0  3.463574  0  0  -0.407307  0  3.478644  0  -1.227452  0  -0.349144  -0.3667  0  3.452529  0
N  N94  1  0.10625604  0.02708940  0.61067722  1  0  -0.434556  0  3.365944  0  0  -0.376158  0  3.618167  0  0  -0.397709  0  3.629291  0  -1.26696  0  -0.438665  -0.361502  0  3.610532  0
N  N95  1  0.86678000  0.02708708  0.88932881  1  0  -0.432994  0  3.363081  0  0  -0.376136  0  3.617593  0  0  -0.397588  0  3.628164  0  -1.277594  0  -0.438119  -0.36098  0  3.609662  0
N  N96  1  0.89374317  0.97291019  0.38932239  1  0  -0.434597  0  3.365935  0  0  -0.376198  0  3.618199  0  0  -0.397745  0  3.629324  0  -1.26698  0  -0.438689  -0.361542  0  3.610564  0
N  N97  1  0.13322153  0.97291251  0.11067131  1  0  -0.432935  0  3.363035  0  0  -0.3761  0  3.617537  0  0  -0.397549  0  3.628104  0  -1.277625  0  -0.4381  -0.360962  0  3.609654  0
N  N98  1  0.10420798  0.53944743  0.68068038  1  0  -0.354386  0  3.279522  0  0  -0.273973  0  3.543936  0  0  -0.29574  0  3.564881  0  -1.246887  0  -0.339516  -0.259022  0  3.528555  0
N  N99  1  0.35639305  0.53940345  0.81933236  1  0  -0.353395  0  3.2781  0  0  -0.273177  0  3.542227  0  0  -0.294989  0  3.563248  0  -1.258639  0  -0.33906  -0.25822  0  3.527401  0
N  N100  1  0.89579006  0.46055216  0.31931928  1  0  -0.354387  0  3.279508  0  0  -0.273969  0  3.543906  0  0  -0.295737  0  3.564851  0  -1.246888  0  -0.339521  -0.259019  0  3.528527  0
N  N101  1  0.64360616  0.46059614  0.18066725  1  0  -0.353374  0  3.278057  0  0  -0.27317  0  3.542195  0  0  -0.294982  0  3.563216  0  -1.258656  0  -0.339069  -0.258213  0  3.527369  0
N  N102  1  0.50157085  0.68561998  0.60566881  1  0  0.696935  0  4.143394  0  0  0.732164  0  4.434111  0  0  0.758176  0  4.439398  0  0.845287  0  0.102561  0.726157  0  4.411963  0
N  N103  1  0.81281723  0.68557947  0.89434166  1  0  0.699262  0  4.140867  0  0  0.729509  0  4.435057  0  0  0.757427  0  4.440033  0  0.844774  0  0.101772  0.712686  0  4.430825  0
N  N104  1  0.49842952  0.31437961  0.39433075  1  0  0.696871  0  4.14353  0  0  0.732126  0  4.434219  0  0  0.758149  0  4.439504  0  0.845318  0  0.102483  0.726058  0  4.412177  0
N  N105  1  0.18718198  0.31442012  0.10565857  1  0  0.699287  0  4.140762  0  0  0.729576  0  4.434892  0  0  0.757496  0  4.439866  0  0.844784  0  0.101767  0.712747  0  4.430661  0
O  O106  1  0.61110277  0.54665530  0.59795224  1  0  -0.435193  0  1.734877  0  0  -0.430756  0  1.938613  0  0  -0.442685  0  1.93323  0  -0.531582  0  -0.179712  -0.426161  0  1.936911  0
O  O107  1  0.84224303  0.54661710  0.90207211  1  0  -0.435792  0  1.734144  0  0  -0.429168  0  1.938542  0  0  -0.441955  0  1.933122  0  -0.533062  0  -0.17896  -0.421328  0  1.942356  0
O  O108  1  0.38889470  0.45334545  0.40204742  1  0  -0.435182  0  1.734878  0  0  -0.430759  0  1.938608  0  0  -0.442688  0  1.933225  0  -0.531592  0  -0.179693  -0.426145  0  1.936934  0
O  O109  1  0.15775617  0.45338249  0.09792874  1  0  -0.435808  0  1.734129  0  0  -0.429198  0  1.938516  0  0  -0.441987  0  1.9331  0  -0.533055  0  -0.178956  -0.421355  0  1.94233  0
O  O110  1  0.53761987  0.79567333  0.58650748  1  0  -0.447522  0  1.739671  0  0  -0.442582  0  1.948175  0  0  -0.454938  0  1.943633  0  -0.526259  0  -0.181428  -0.43746  0  1.945856  0
O  O111  1  0.66669854  0.79562587  0.91347910  1  0  -0.448251  0  1.73863  0  0  -0.441522  0  1.948091  0  0  -0.454747  0  1.943474  0  -0.519818  0  -0.18193  -0.433329  0  1.951254  0
O  O112  1  0.46238108  0.20432510  0.41349208  1  0  -0.447519  0  1.739656  0  0  -0.44259  0  1.94815  0  0  -0.454957  0  1.943616  0  -0.526269  0  -0.181422  -0.437445  0  1.945855  0
O  O113  1  0.33330125  0.20437256  0.08652113  1  0  -0.44825  0  1.738593  0  0  -0.441524  0  1.948025  0  0  -0.454748  0  1.943408  0  -0.519818  0  -0.181914  -0.433328  0  1.951189  0
O  O114  1  0.34313596  0.71810688  0.63358514  1  0  -0.553408  0  1.857314  0  0  -0.526042  0  2.106876  0  0  -0.544008  0  2.09571  0  -0.650746  0  -0.231485  -0.516833  0  2.109532  0
O  O115  1  0.93877336  0.71806869  0.86644410  1  0  -0.554094  0  1.856273  0  0  -0.524359  0  2.106194  0  0  -0.543121  0  2.09508  0  -0.65513  0  -0.231026  -0.512305  0  2.114062  0
O  O116  1  0.65686383  0.28189386  0.36641442  1  0  -0.553362  0  1.857449  0  0  -0.525999  0  2.106999  0  0  -0.54397  0  2.095833  0  -0.650742  0  -0.231442  -0.516762  0  2.109671  0
O  O117  1  0.06122410  0.28193206  0.13355556  1  0  -0.554091  0  1.856176  0  0  -0.524394  0  2.106106  0  0  -0.543157  0  2.094991  0  -0.655159  0  -0.231042  -0.512335  0  2.113975  0
