# generated using pymatgen
data_AgH2C3N4
_symmetry_space_group_name_H-M   'P 1'
_cell_length_a   3.62432335
_cell_length_b   12.70243782
_cell_length_c   19.82674716
_cell_angle_alpha   89.99953604
_cell_angle_beta   89.99967135
_cell_angle_gamma   89.99987699
_symmetry_Int_Tables_number   1
_chemical_formula_structural   AgH2C3N4
_chemical_formula_sum   'Ag8 H16 C24 N32'
_cell_volume   912.77867037
_cell_formula_units_Z   8
loop_
 _symmetry_equiv_pos_site_id
 _symmetry_equiv_pos_as_xyz
  1  'x, y, z'
loop_
 _atom_site_type_symbol
 _atom_site_label
 _atom_site_symmetry_multiplicity
 _atom_site_fract_x
 _atom_site_fract_y
 _atom_site_fract_z
 _atom_site_occupancy
 _atom_site_hle17_bader_spin_density
 _atom_site_hle17_ddec_charge
 _atom_site_hle17_ddec_spin_density
 _atom_site_hle17_ddec_sum_bond_order
 _atom_site_hle17_magmom
 _atom_site_hse06_10hf_bader_spin_density
 _atom_site_hse06_10hf_ddec_charge
 _atom_site_hse06_10hf_ddec_spin_density
 _atom_site_hse06_10hf_ddec_sum_bond_order
 _atom_site_hse06_10hf_magmom
 _atom_site_hse06_bader_spin_density
 _atom_site_hse06_ddec_charge
 _atom_site_hse06_ddec_spin_density
 _atom_site_hse06_ddec_sum_bond_order
 _atom_site_hse06_magmom
 _atom_site_pbe_bader_spin_density
 _atom_site_pbe_cm5_charge
 _atom_site_pbe_ddec_charge
 _atom_site_pbe_ddec_spin_density
 _atom_site_pbe_ddec_sum_bond_order
 _atom_site_pbe_magmom
Ag  Ag0  1  0.80568432  0.84847072  0.74463034  1  0  0.477628  0  1.602388  0  0  0.335106  0  2.102819  0  0  0.359026  0  2.051786  0  0  0.490389  0.319151  0  2.138181  0
Ag  Ag1  1  0.19428595  0.15153071  0.24463116  1  0  0.477629  0  1.602425  0  0  0.33511  0  2.102863  0  0  0.359034  0  2.051824  0  0  0.490435  0.319155  0  2.138224  0
Ag  Ag2  1  0.69430503  0.34846988  0.74463322  1  0  0.47766  0  1.602364  0  0  0.335144  0  2.102811  0  0  0.359066  0  2.051775  0  0  0.490445  0.319189  0  2.138178  0
Ag  Ag3  1  0.30571491  0.65153076  0.24462828  1  0  0.477676  0  1.602382  0  0  0.335152  0  2.102838  0  0  0.359076  0  2.051797  0  0  0.490423  0.319181  0  2.138202  0
Ag  Ag4  1  0.67228239  0.64127344  0.63362384  1  0  0.484406  0  1.481034  0  0  0.336924  0  1.951086  0  0  0.362343  0  1.905437  0  0  0.476308  0.319943  0  1.982565  0
Ag  Ag5  1  0.32773259  0.35872309  0.13362545  1  0  0.484279  0  1.481158  0  0  0.33682  0  1.95116  0  0  0.36221  0  1.905568  0  0  0.476272  0.319852  0  1.982632  0
Ag  Ag6  1  0.82770049  0.14127724  0.63362505  1  0  0.484367  0  1.481024  0  0  0.336896  0  1.951073  0  0  0.362303  0  1.905461  0  0  0.476283  0.31991  0  1.982549  0
Ag  Ag7  1  0.17229242  0.85872481  0.13362323  1  0  0.484354  0  1.48104  0  0  0.336883  0  1.951093  0  0  0.362297  0  1.905461  0  0  0.476275  0.319894  0  1.98257  0
H  H8  1  0.22288642  0.55628712  0.95241034  1  0  0.114198  0  0.948411  0  0  0.124123  0  1.011381  0  0  0.127076  0  1.010331  0  0  0.111355  0.121986  0  1.012336  0
H  H9  1  0.77711077  0.44371483  0.45241050  1  0  0.114216  0  0.948382  0  0  0.124112  0  1.011384  0  0  0.127067  0  1.010331  0  0  0.111353  0.121976  0  1.012335  0
H  H10  1  0.27711873  0.05628623  0.95241413  1  0  0.114212  0  0.948281  0  0  0.124045  0  1.011359  0  0  0.126998  0  1.010309  0  0  0.111328  0.12191  0  1.012305  0
H  H11  1  0.72288122  0.94371258  0.45241125  1  0  0.114193  0  0.948322  0  0  0.124075  0  1.011334  0  0  0.12703  0  1.010278  0  0  0.111337  0.12194  0  1.012287  0
H  H12  1  0.35282438  0.64757439  0.06130117  1  0  0.077865  0  0.976218  0  0  0.0878  0  1.039911  0  0  0.087851  0  1.041258  0  0  0.117347  0.087629  0  1.039146  0
H  H13  1  0.64717068  0.35242699  0.56130260  1  0  0.077847  0  0.976222  0  0  0.087784  0  1.039925  0  0  0.087836  0  1.041269  0  0  0.117315  0.087612  0  1.03915  0
H  H14  1  0.14719301  0.14757674  0.06130460  1  0  0.077918  0  0.976289  0  0  0.0879  0  1.039938  0  0  0.087953  0  1.041281  0  0  0.117368  0.087729  0  1.039176  0
H  H15  1  0.85281584  0.85242307  0.56130220  1  0  0.077914  0  0.97622  0  0  0.08792  0  1.039851  0  0  0.087976  0  1.041189  0  0  0.117366  0.087751  0  1.039084  0
H  H16  1  0.89018167  0.92540395  0.99311564  1  0  0.083743  0  0.955409  0  0  0.093302  0  1.020121  0  0  0.095408  0  1.018056  0  0  0.115039  0.091736  0  1.021688  0
H  H17  1  0.10980878  0.07459749  0.49311745  1  0  0.083777  0  0.955354  0  0  0.093332  0  1.020065  0  0  0.095426  0  1.018034  0  0  0.115056  0.091764  0  1.021639  0
H  H18  1  0.60982464  0.42540476  0.99311608  1  0  0.083728  0  0.955379  0  0  0.093288  0  1.020085  0  0  0.095398  0  1.01802  0  0  0.115047  0.09173  0  1.021644  0
H  H19  1  0.39018789  0.57459353  0.49311549  1  0  0.083775  0  0.955286  0  0  0.093335  0  1.020002  0  0  0.095428  0  1.017969  0  0  0.115046  0.091769  0  1.021563  0
H  H20  1  0.76480846  0.85022781  0.87989209  1  0  0.098527  0  0.997305  0  0  0.100456  0  1.081196  0  0  0.105166  0  1.076335  0  0  0.096329  0.097015  0  1.08482  0
H  H21  1  0.23518261  0.14977349  0.37989286  1  0  0.098558  0  0.997313  0  0  0.100438  0  1.08124  0  0  0.105148  0  1.076377  0  0  0.096331  0.097002  0  1.08486  0
H  H22  1  0.73518512  0.35022537  0.87989239  1  0  0.098568  0  0.997428  0  0  0.10044  0  1.081368  0  0  0.105149  0  1.076509  0  0  0.096325  0.096999  0  1.084998  0
H  H23  1  0.26481699  0.64977199  0.37989054  1  0  0.098533  0  0.99737  0  0  0.100421  0  1.081282  0  0  0.105131  0  1.076421  0  0  0.096343  0.096986  0  1.084899  0
C  C24  1  0.98155795  0.69521322  0.90682921  1  0  0.052998  0  3.789218  0  0  0.069538  0  4.014398  0  0  0.072978  0  4.035629  0  0  0.012081  0.067383  0  3.999962  0
C  C25  1  0.01844060  0.30478695  0.40682942  1  0  0.053071  0  3.789003  0  0  0.069536  0  4.014206  0  0  0.072974  0  4.035443  0  0  0.012044  0.06738  0  3.999784  0
C  C26  1  0.51844404  0.19520622  0.90683228  1  0  0.053072  0  3.789057  0  0  0.069636  0  4.01415  0  0  0.073078  0  4.035378  0  0  0.012047  0.067484  0  3.999722  0
C  C27  1  0.48155451  0.80479001  0.40682938  1  0  0.05291  0  3.789056  0  0  0.069403  0  4.014261  0  0  0.07284  0  4.0355  0  0  0.012026  0.067255  0  3.99983  0
C  C28  1  0.14949582  0.63866106  0.95924890  1  0  -0.138861  0  3.694676  0  0  -0.162071  0  3.945385  0  0  -0.168894  0  3.966018  0  0  -0.079356  -0.157706  0  3.931637  0
C  C29  1  0.85049841  0.36134160  0.45925093  1  0  -0.13885  0  3.694459  0  0  -0.162023  0  3.945198  0  0  -0.168846  0  3.965828  0  0  -0.079336  -0.157657  0  3.931447  0
C  C30  1  0.35051967  0.13866326  0.95925312  1  0  -0.13874  0  3.694832  0  0  -0.16184  0  3.945534  0  0  -0.168663  0  3.966171  0  0  -0.079249  -0.157469  0  3.931777  0
C  C31  1  0.64949111  0.86133782  0.45925277  1  0  -0.138695  0  3.694582  0  0  -0.161806  0  3.945277  0  0  -0.168627  0  3.965908  0  0  -0.079242  -0.15744  0  3.931529  0
C  C32  1  0.21976003  0.68886205  0.02002810  1  0  0.128823  0  3.702614  0  0  0.098406  0  3.94965  0  0  0.104763  0  3.971624  0  0  0.04248  0.094219  0  3.934713  0
C  C33  1  0.78023902  0.31113828  0.52002809  1  0  0.128812  0  3.702747  0  0  0.098366  0  3.949804  0  0  0.104727  0  3.971774  0  0  0.042448  0.09418  0  3.934858  0
C  C34  1  0.28025834  0.18885958  0.02003088  1  0  0.128438  0  3.702845  0  0  0.097925  0  3.949911  0  0  0.104276  0  3.97189  0  0  0.042273  0.093743  0  3.93497  0
C  C35  1  0.71974899  0.81113839  0.52002683  1  0  0.128565  0  3.702892  0  0  0.098064  0  3.949916  0  0  0.104419  0  3.971893  0  0  0.042315  0.093878  0  3.934978  0
C  C36  1  0.96989353  0.84485411  0.98104675  1  0  0.128841  0  3.686844  0  0  0.098614  0  3.92885  0  0  0.105427  0  3.94849  0  0  0.044661  0.094104  0  3.915496  0
C  C37  1  0.03010556  0.15514670  0.48104722  1  0  0.128842  0  3.686652  0  0  0.098625  0  3.928637  0  0  0.10544  0  3.948257  0  0  0.044605  0.094118  0  3.915282  0
C  C38  1  0.53011914  0.34485025  0.98104779  1  0  0.128734  0  3.687161  0  0  0.098508  0  3.92915  0  0  0.105329  0  3.948758  0  0  0.044632  0.094003  0  3.915795  0
C  C39  1  0.46988822  0.65514820  0.48104468  1  0  0.128771  0  3.687169  0  0  0.098529  0  3.929146  0  0  0.105346  0  3.948767  0  0  0.044609  0.094023  0  3.915783  0
C  C40  1  0.89752523  0.80149593  0.91810567  1  0  -0.146683  0  3.707517  0  0  -0.162378  0  3.949222  0  0  -0.170254  0  3.970683  0  0  -0.083054  -0.15719  0  3.934816  0
C  C41  1  0.10246471  0.19850567  0.41810785  1  0  -0.146737  0  3.707606  0  0  -0.162367  0  3.949335  0  0  -0.170241  0  3.970793  0  0  -0.083011  -0.157185  0  3.934936  0
C  C42  1  0.60248407  0.30149910  0.91810814  1  0  -0.146721  0  3.707422  0  0  -0.162352  0  3.949071  0  0  -0.170229  0  3.97054  0  0  -0.083012  -0.157161  0  3.934669  0
C  C43  1  0.39752794  0.69850014  0.41810790  1  0  -0.146623  0  3.707669  0  0  -0.162272  0  3.949423  0  0  -0.170144  0  3.970884  0  0  -0.083015  -0.157086  0  3.935015  0
C  C44  1  0.88770153  0.64121456  0.84417767  1  0  0.257259  0  3.785277  0  0  0.234721  0  4.049784  0  0  0.242257  0  4.067857  0  0  0.214005  0.229621  0  4.037525  0
C  C45  1  0.11229613  0.35878797  0.34417902  1  0  0.25706  0  3.785516  0  0  0.234663  0  4.049858  0  0  0.2422  0  4.067932  0  0  0.214023  0.229552  0  4.037618  0
C  C46  1  0.61229438  0.14121379  0.84417963  1  0  0.257095  0  3.785467  0  0  0.234573  0  4.049942  0  0  0.242109  0  4.068016  0  0  0.21396  0.229464  0  4.037695  0
C  C47  1  0.38770052  0.85878559  0.34417857  1  0  0.257174  0  3.785469  0  0  0.234702  0  4.049899  0  0  0.242238  0  4.067974  0  0  0.214017  0.229586  0  4.03766  0
N  N48  1  0.80584424  0.68705105  0.78461564  1  0  -0.279439  0  3.214494  0  0  -0.216894  0  3.513211  0  0  -0.230788  0  3.526852  0  0  -0.244083  -0.207643  0  3.504072  0
N  N49  1  0.19415244  0.31294987  0.28461713  1  0  -0.279369  0  3.214616  0  0  -0.216851  0  3.513308  0  0  -0.230746  0  3.526942  0  0  -0.244037  -0.207596  0  3.504168  0
N  N50  1  0.69415317  0.18704944  0.78461801  1  0  -0.279408  0  3.214602  0  0  -0.216848  0  3.513321  0  0  -0.230741  0  3.526959  0  0  -0.244062  -0.2076  0  3.504188  0
N  N51  1  0.30584903  0.81294991  0.28461577  1  0  -0.279431  0  3.214531  0  0  -0.216877  0  3.513228  0  0  -0.230773  0  3.526867  0  0  -0.244065  -0.207619  0  3.504085  0
N  N52  1  0.72999647  0.60803030  0.74205923  1  0  -0.072839  0  3.180304  0  0  -0.022642  0  3.481674  0  0  -0.029846  0  3.497487  0  0  -0.128338  -0.017899  0  3.4712  0
N  N53  1  0.27000699  0.39197038  0.24205972  1  0  -0.072781  0  3.180353  0  0  -0.022587  0  3.481757  0  0  -0.029783  0  3.497558  0  0  -0.12832  -0.017846  0  3.471277  0
N  N54  1  0.76999440  0.10802941  0.74206051  1  0  -0.07282  0  3.18039  0  0  -0.022596  0  3.48176  0  0  -0.029798  0  3.497568  0  0  -0.128315  -0.01785  0  3.471274  0
N  N55  1  0.22999802  0.89197126  0.24205895  1  0  -0.072903  0  3.180468  0  0  -0.022707  0  3.481872  0  0  -0.029907  0  3.49768  0  0  -0.128344  -0.017964  0  3.471387  0
N  N56  1  0.76254025  0.51713650  0.77550316  1  0  -0.067904  0  3.199028  0  0  -0.020372  0  3.514511  0  0  -0.025875  0  3.527758  0  0  -0.119215  -0.01667  0  3.505656  0
N  N57  1  0.23747601  0.48286297  0.27550321  1  0  -0.067921  0  3.199005  0  0  -0.020401  0  3.514509  0  0  -0.025905  0  3.527752  0  0  -0.119175  -0.016695  0  3.505642  0
N  N58  1  0.73745845  0.01713721  0.77550397  1  0  -0.06792  0  3.199047  0  0  -0.020409  0  3.514529  0  0  -0.025912  0  3.527776  0  0  -0.119214  -0.016701  0  3.505654  0
N  N59  1  0.26252746  0.98286304  0.27550241  1  0  -0.067819  0  3.199011  0  0  -0.020292  0  3.514499  0  0  -0.025797  0  3.527746  0  0  -0.119163  -0.016589  0  3.505632  0
N  N60  1  0.86146530  0.53567896  0.83905609  1  0  -0.278982  0  2.921638  0  0  -0.257182  0  3.19726  0  0  -0.265986  0  3.211688  0  0  -0.209146  -0.251095  0  3.187495  0
N  N61  1  0.13854631  0.46432285  0.33905686  1  0  -0.278925  0  2.921657  0  0  -0.257182  0  3.197243  0  0  -0.265985  0  3.211668  0  0  -0.209226  -0.251086  0  3.187472  0
N  N62  1  0.63853415  0.03567738  0.83905752  1  0  -0.278924  0  2.921518  0  0  -0.257157  0  3.197138  0  0  -0.26596  0  3.211565  0  0  -0.209135  -0.251065  0  3.187365  0
N  N63  1  0.36145262  0.96432128  0.33905645  1  0  -0.278979  0  2.921603  0  0  -0.257206  0  3.197208  0  0  -0.266008  0  3.211631  0  0  -0.209204  -0.251111  0  3.187439  0
N  N64  1  0.12663597  0.78991191  0.03165915  1  0  -0.285391  0  3.298892  0  0  -0.196095  0  3.568314  0  0  -0.215634  0  3.586636  0  0  -0.337091  -0.182846  0  3.555697  0
N  N65  1  0.87335722  0.21009143  0.53166057  1  0  -0.285468  0  3.298798  0  0  -0.196152  0  3.568233  0  0  -0.215685  0  3.58654  0  0  -0.337055  -0.182899  0  3.555609  0
N  N66  1  0.37338698  0.28991409  0.03166031  1  0  -0.285024  0  3.298807  0  0  -0.19575  0  3.568267  0  0  -0.215278  0  3.586585  0  0  -0.336952  -0.182506  0  3.555665  0
N  N67  1  0.62662829  0.71008688  0.53165890  1  0  -0.285274  0  3.298888  0  0  -0.195993  0  3.568311  0  0  -0.215527  0  3.586629  0  0  -0.337001  -0.182744  0  3.555702  0
N  N68  1  0.28983199  0.85213371  0.66351040  1  0  -0.537945  0  2.766038  0  0  -0.500895  0  3.111193  0  0  -0.516693  0  3.107406  0  0  -0.310072  -0.490203  0  3.114089  0
N  N69  1  0.71014347  0.14786796  0.16351117  1  0  -0.53788  0  2.766184  0  0  -0.500657  0  3.111306  0  0  -0.516449  0  3.107515  0  0  -0.309956  -0.489971  0  3.114195  0
N  N70  1  0.21016621  0.35213365  0.66351275  1  0  -0.538116  0  2.765898  0  0  -0.500755  0  3.110985  0  0  -0.516559  0  3.107205  0  0  -0.310014  -0.490051  0  3.113836  0
N  N71  1  0.78985892  0.64786093  0.16350983  1  0  -0.537958  0  2.766454  0  0  -0.500672  0  3.111581  0  0  -0.516464  0  3.107787  0  0  -0.309926  -0.48997  0  3.114435  0
N  N72  1  0.30595112  0.93087391  0.63058547  1  0  0.378903  0  4.233274  0  0  0.409546  0  4.499155  0  0  0.424349  0  4.531366  0  0  0.052464  0.399706  0  4.47736  0
N  N73  1  0.69403360  0.06913211  0.13058768  1  0  0.378639  0  4.233252  0  0  0.40928  0  4.499156  0  0  0.424081  0  4.531371  0  0  0.052317  0.399438  0  4.477365  0
N  N74  1  0.19404207  0.43087387  0.63058734  1  0  0.378804  0  4.233135  0  0  0.409458  0  4.499009  0  0  0.42426  0  4.531218  0  0  0.05239  0.399621  0  4.477221  0
N  N75  1  0.80597300  0.56912743  0.13058682  1  0  0.378761  0  4.233166  0  0  0.40941  0  4.499063  0  0  0.424215  0  4.531271  0  0  0.052405  0.399576  0  4.477269  0
N  N76  1  0.32278788  0.00770644  0.59694795  1  0  -0.475097  0  2.623874  0  0  -0.449981  0  2.925978  0  0  -0.462649  0  2.929206  0  0  -0.262104  -0.441234  0  2.924002  0
N  N77  1  0.67720888  0.99229528  0.09694740  1  0  -0.474885  0  2.623651  0  0  -0.44993  0  2.925759  0  0  -0.462603  0  2.928993  0  0  -0.262098  -0.441172  0  2.923778  0
N  N78  1  0.17720610  0.50770579  0.59694875  1  0  -0.474864  0  2.623907  0  0  -0.450051  0  2.926046  0  0  -0.462715  0  2.929272  0  0  -0.26212  -0.4413  0  2.924069  0
N  N79  1  0.82280446  0.49228727  0.09694509  1  0  -0.474969  0  2.623506  0  0  -0.450067  0  2.925595  0  0  -0.462741  0  2.928826  0  0  -0.262211  -0.44132  0  2.923617  0
