# generated using pymatgen
data_MnH14(C6N5)2
_symmetry_space_group_name_H-M   'P 1'
_cell_length_a   7.75220926
_cell_length_b   9.51405341
_cell_length_c   11.70739596
_cell_angle_alpha   103.34152047
_cell_angle_beta   106.45950841
_cell_angle_gamma   105.63433014
_symmetry_Int_Tables_number   1
_chemical_formula_structural   MnH14(C6N5)2
_chemical_formula_sum   'Mn2 H28 C24 N20'
_cell_volume   752.07074052
_cell_formula_units_Z   2
loop_
 _symmetry_equiv_pos_site_id
 _symmetry_equiv_pos_as_xyz
  1  'x, y, z'
loop_
 _atom_site_type_symbol
 _atom_site_label
 _atom_site_symmetry_multiplicity
 _atom_site_fract_x
 _atom_site_fract_y
 _atom_site_fract_z
 _atom_site_occupancy
 _atom_site_hle17_ddec_charge
 _atom_site_hle17_ddec_spin_density
 _atom_site_hle17_ddec_sum_bond_order
 _atom_site_hle17_magmom
 _atom_site_hse06_10hf_ddec_charge
 _atom_site_hse06_10hf_ddec_spin_density
 _atom_site_hse06_10hf_ddec_sum_bond_order
 _atom_site_hse06_10hf_magmom
 _atom_site_hse06_ddec_charge
 _atom_site_hse06_ddec_spin_density
 _atom_site_hse06_ddec_sum_bond_order
 _atom_site_hse06_magmom
 _atom_site_pbe_cm5_charge
 _atom_site_pbe_ddec_charge
 _atom_site_pbe_ddec_spin_density
 _atom_site_pbe_ddec_sum_bond_order
 _atom_site_pbe_magmom
Mn  Mn0  1  0.18890961  0.07647699  0.45655405  1  0.973307  -4.724181  2.149408  -4.568  0.809976  -4.591709  2.70359  -4.387  0.866905  -4.694407  2.637374  -4.495  0.661569  0.763166  -4.471237  2.754789  -4.26
Mn  Mn1  1  0.81109456  0.92355516  0.54345054  1  0.973228  4.724252  2.149226  4.568  0.809893  4.59181  2.703407  4.387  0.866832  4.694487  2.637183  4.495  0.661525  0.763045  4.471388  2.754621  4.26
H  H2  1  0.35648142  0.66384004  0.53381420  1  0.102252  -0.000392  0.991343  0.0  0.103565  -0.000619  1.069378  0.0  0.106222  -0.000615  1.068137  0.0  0.105235  0.101397  -0.000583  1.070833  0.0
H  H3  1  0.64351983  0.33614723  0.46619162  1  0.102286  0.000393  0.991384  0.0  0.103544  0.000619  1.069455  0.0  0.1062  0.000615  1.068216  0.0  0.105226  0.101388  0.000583  1.070892  0.0
H  H4  1  0.36668693  0.85969773  0.72058822  1  0.09593  -7.8e-05  0.952577  0.0  0.107203  -8.9e-05  1.010781  0.0  0.109465  -7e-05  1.011406  0.0  0.101564  0.105534  -0.000129  1.010272  0.0
H  H5  1  0.63331722  0.14029649  0.27940920  1  0.095842  7.7e-05  0.952748  0.0  0.107154  8.9e-05  1.010908  0.0  0.109417  7e-05  1.011534  0.0  0.10154  0.105484  0.000129  1.010398  0.0
H  H6  1  0.05733282  0.49372433  0.82597069  1  0.092254  -6.9e-05  0.959021  0.0  0.10822  -8.9e-05  1.013773  0.0  0.110302  -8.2e-05  1.014116  0.0  0.100667  0.106532  -7.8e-05  1.013764  0.0
H  H7  1  0.94266129  0.50627778  0.17403405  1  0.092192  6.9e-05  0.959151  0.0  0.108191  8.9e-05  1.01384  0.0  0.110276  8.2e-05  1.014178  0.0  0.100613  0.106504  7.8e-05  1.01383  0.0
H  H8  1  0.04697246  0.29927594  0.64014637  1  0.101167  -0.001096  0.998374  0.0  0.106943  -0.001559  1.070783  0.0  0.109516  -0.001475  1.069722  0.0  0.10689  0.105049  -0.001612  1.071262  0.0
H  H9  1  0.95302155  0.70072272  0.35986112  1  0.101218  0.001096  0.998382  0.0  0.106983  0.001559  1.070794  0.0  0.109558  0.001475  1.069731  0.0  0.106897  0.10509  0.001612  1.071267  0.0
H  H10  1  0.27787317  0.92540877  0.89890953  1  0.109487  -1.9e-05  0.976753  0.0  0.127877  3.4e-05  1.042172  0.0  0.129134  4e-06  1.042455  0.0  0.087888  0.1265  2.4e-05  1.042745  0.0
H  H11  1  0.72213852  0.07459361  0.10109424  1  0.109483  2e-05  0.976795  0.0  0.12786  -3.3e-05  1.042219  0.0  0.129117  -4e-06  1.042503  0.0  0.087876  0.126486  -2.4e-05  1.04279  0.0
H  H12  1  0.35298312  0.81242640  0.99007570  1  0.112795  -7.4e-05  0.959114  0.0  0.132155  -2.9e-05  1.026102  0.0  0.133379  -3.9e-05  1.025449  0.0  0.090889  0.131141  -3.5e-05  1.027689  0.0
H  H13  1  0.64702893  0.18757368  0.00992771  1  0.112888  7.4e-05  0.959004  0.0  0.132139  2.9e-05  1.026074  0.0  0.133361  3.8e-05  1.025421  0.0  0.090849  0.131126  3.4e-05  1.027663  0.0
H  H14  1  0.10486638  0.78285851  0.92522099  1  0.101044  -8e-05  0.974746  0.0  0.118913  -6.9e-05  1.042829  0.0  0.12007  -7.4e-05  1.043711  0.0  0.085928  0.118097  -8.6e-05  1.042667  0.0
H  H15  1  0.89514174  0.21714496  0.07478404  1  0.101069  7.9e-05  0.974729  0.0  0.118904  6.9e-05  1.042848  0.0  0.120062  7.4e-05  1.04373  0.0  0.085933  0.11809  8.6e-05  1.042682  0.0
H  H16  1  0.27779267  0.14944111  0.02738336  1  0.118455  1.2e-05  0.976266  0.0  0.125281  0.000201  1.042732  0.0  0.127817  0.00013  1.041713  0.0  0.124303  0.123274  0.000264  1.04364  0.0
H  H17  1  0.72217756  0.85053650  0.97261575  1  0.118509  -1.3e-05  0.976255  0.0  0.12534  -0.000201  1.042708  0.0  0.127879  -0.00013  1.041681  0.0  0.124272  0.123331  -0.000264  1.043617  0.0
H  H18  1  0.16764713  0.93201725  0.14308287  1  0.104029  0.000272  0.947101  0.0  0.113933  0.000165  1.006213  0.0  0.116268  0.000226  1.005568  0.0  0.122414  0.11169  5.3e-05  1.008005  0.0
H  H19  1  0.83235164  0.06798608  0.85693919  1  0.103982  -0.000272  0.947133  0.0  0.113925  -0.000165  1.006196  0.0  0.116269  -0.000227  1.005546  0.0  0.122399  0.111631  -5.3e-05  1.008049  0.0
H  H20  1  0.35435893  0.54141339  0.25801048  1  0.081046  -0.000653  0.948287  0.0  0.087878  -0.000893  1.023077  0.0  0.089093  -0.000861  1.022069  0.0  0.110926  0.087012  -0.000851  1.023525  0.0
H  H21  1  0.64564028  0.45858191  0.74198367  1  0.080998  0.000653  0.948501  0.0  0.087809  0.000893  1.023277  0.0  0.089023  0.000861  1.02227  0.0  0.110915  0.086951  0.000851  1.023723  0.0
H  H22  1  0.51089576  0.47658194  0.19429629  1  0.068639  -8.5e-05  0.949786  0.0  0.085853  -0.000256  1.009915  0.0  0.084749  -0.000186  1.013373  0.0  0.107291  0.086378  -0.000359  1.007729  0.0
H  H23  1  0.48909495  0.52340287  0.80569345  1  0.068645  8.5e-05  0.949708  0.0  0.085877  0.000255  1.009801  0.0  0.084773  0.000185  1.013256  0.0  0.107336  0.086406  0.000358  1.007616  0.0
H  H24  1  0.31801778  0.57790494  0.04947947  1  0.112722  5.4e-05  0.955342  0.0  0.134875  9.1e-05  1.014737  0.0  0.13586  7.4e-05  1.015202  0.0  0.093378  0.134057  0.000106  1.014456  0.0
H  H25  1  0.68197981  0.42208343  0.95051136  1  0.112707  -5.4e-05  0.955306  0.0  0.134867  -9.1e-05  1.014674  0.0  0.13585  -7.4e-05  1.015137  0.0  0.093372  0.134045  -0.000107  1.014397  0.0
H  H26  1  0.09894658  0.43922805  0.03530480  1  0.090352  -4e-06  0.973563  0.0  0.109233  -1.1e-05  1.041419  0.0  0.110626  -8e-06  1.040965  0.0  0.084077  0.108229  -1.8e-05  1.041687  0.0
H  H27  1  0.90104515  0.56077173  0.96469308  1  0.090326  4e-06  0.97352  0.0  0.109168  1.1e-05  1.041422  0.0  0.110564  8e-06  1.040965  0.0  0.08402  0.10816  1.8e-05  1.041693  0.0
H  H28  1  0.26292694  0.37797279  0.97448603  1  0.105617  2.8e-05  0.970244  0.0  0.12147  3.4e-05  1.039527  0.0  0.122982  2.3e-05  1.039454  0.0  0.086586  0.120355  8.3e-05  1.039471  0.0
H  H29  1  0.73705198  0.62200955  0.02550618  1  0.105489  -2.7e-05  0.970399  0.0  0.121359  -3.4e-05  1.039668  0.0  0.122869  -2.3e-05  1.0396  0.0  0.086523  0.120243  -8.3e-05  1.039609  0.0
C  C30  1  0.20588566  0.46958339  0.57774089  1  0.152079  0.000299  3.810965  0.0  0.155278  -0.001071  4.062442  -0.001  0.151927  -0.000343  4.08794  0.0  0.089084  0.15812  -0.001697  4.045333  -0.001
C  C31  1  0.79411965  0.53041660  0.42226467  1  0.151813  -0.000302  3.811013  0.0  0.155049  0.001071  4.062439  0.001  0.151697  0.000342  4.087939  0.0  0.088988  0.157889  0.001696  4.045325  0.001
C  C32  1  0.29202608  0.62849290  0.59880797  1  -0.104542  -0.002384  3.697902  -0.002  -0.130915  -0.001885  3.956232  -0.002  -0.130878  -0.001901  3.977244  -0.002  -0.084352  -0.131846  -0.002558  3.94321  -0.002
C  C33  1  0.70798268  0.37150253  0.40119993  1  -0.104626  0.002385  3.697785  0.002  -0.130943  0.001881  3.95609  0.002  -0.130907  0.001899  3.977106  0.002  -0.084382  -0.131874  0.002553  3.943067  0.002
C  C34  1  0.29786740  0.73665261  0.70346836  1  -0.119692  0.000956  3.720896  0.001  -0.138473  -2.4e-05  3.970593  0.0  -0.143512  0.000229  3.993121  0.0  -0.09054  -0.134319  -5.7e-05  3.954488  0.0
C  C35  1  0.70214169  0.26334053  0.29653148  1  -0.119635  -0.000957  3.720875  -0.001  -0.138435  2.4e-05  3.970572  0.0  -0.143474  -0.000227  3.9931  0.0  -0.090532  -0.134279  5.8e-05  3.95446  0.0
C  C36  1  0.21964595  0.69100403  0.78970043  1  0.163062  -0.002427  3.719174  -0.002  0.186214  -0.001776  3.957091  -0.001  0.188606  -0.001798  3.981073  -0.001  -0.001572  0.184402  -0.002369  3.940219  -0.002
C  C37  1  0.78036032  0.30899827  0.21030233  1  0.163117  0.002426  3.71921  0.002  0.186239  0.001772  3.957145  0.001  0.188627  0.001792  3.98113  0.001  -0.001614  0.18443  0.002361  3.940271  0.002
C  C38  1  0.12623828  0.53218522  0.76373942  1  -0.128794  0.001267  3.730393  0.001  -0.149028  0.000439  3.979918  0.001  -0.153842  0.00058  4.001467  0.001  -0.09424  -0.145751  0.000469  3.965687  0.001
C  C39  1  0.87376293  0.46781470  0.23626024  1  -0.128691  -0.001268  3.730403  -0.001  -0.148929  -0.000439  3.979926  -0.001  -0.153742  -0.000578  4.001475  -0.001  -0.094148  -0.145653  -0.000468  3.965689  -0.001
C  C40  1  0.12049331  0.42217803  0.66002261  1  -0.108431  -0.002706  3.718613  -0.002  -0.135096  -0.002595  3.975211  -0.002  -0.13547  -0.002557  3.996024  -0.002  -0.079189  -0.13474  -0.00314  3.960975  -0.002
C  C41  1  0.87950879  0.57782076  0.33998213  1  -0.108455  0.002706  3.718637  0.002  -0.13513  0.002592  3.975217  0.002  -0.135507  0.002553  3.996031  0.002  -0.079154  -0.13477  0.003134  3.96097  0.002
C  C42  1  0.23920760  0.80934326  0.90678710  1  -0.346844  6.5e-05  3.718316  0.0  -0.426156  -1.9e-05  3.951394  0.0  -0.428795  -2.2e-05  3.961287  0.0  -0.246004  -0.424273  -4.6e-05  3.946056  0.0
C  C43  1  0.76080274  0.19065910  0.09321813  1  -0.346981  -6.5e-05  3.718344  0.0  -0.426164  2e-05  3.951456  0.0  -0.428805  2.3e-05  3.961354  0.0  -0.245961  -0.42428  4.5e-05  3.946115  0.0
C  C44  1  0.23994896  0.28065630  0.29655356  1  0.373183  -0.005559  3.820022  -0.006  0.331104  -0.007269  4.100848  -0.007  0.341832  -0.00681  4.118298  -0.006  0.321639  0.324537  -0.008137  4.088452  -0.007
C  C45  1  0.76006002  0.71935869  0.70345039  1  0.373154  0.005558  3.819923  0.006  0.331166  0.007265  4.100616  0.007  0.341896  0.006806  4.118065  0.006  0.321691  0.324597  0.008135  4.088219  0.007
C  C46  1  0.25377074  0.16231754  0.11556817  1  -0.035299  0.002334  3.631392  0.002  -0.077092  0.00145  3.891744  0.001  -0.077358  0.002157  3.913513  0.002  0.021863  -0.076887  0.001084  3.878713  0.001
C  C47  1  0.74621362  0.83766488  0.88443020  1  -0.03549  -0.00233  3.631386  -0.002  -0.077267  -0.001447  3.891731  -0.001  -0.077538  -0.002154  3.913509  -0.002  0.02187  -0.077054  -0.001081  3.878674  -0.001
C  C48  1  0.19889775  0.05574769  0.17399681  1  0.041077  -0.002577  3.721917  -0.004  0.006307  -0.005134  3.991565  -0.006  0.007469  -0.003924  4.013705  -0.005  0.022622  0.003711  -0.006811  3.979749  -0.007
C  C49  1  0.80110743  0.94424885  0.82600807  1  0.041054  0.002574  3.721939  0.004  0.006237  0.005129  3.991541  0.006  0.007389  0.003922  4.01369  0.005  0.022603  0.003688  0.006804  3.979735  0.007
C  C50  1  0.35849566  0.45465424  0.17990480  1  0.053668  -0.00073  3.621968  -0.001  -0.002628  -0.001098  3.878885  -0.001  0.001715  -0.0009  3.891053  -0.001  -0.055496  -0.005353  -0.001106  3.870412  -0.001
C  C51  1  0.64150244  0.54533529  0.82008891  1  0.053651  0.00073  3.622084  0.001  -0.002586  0.001096  3.878927  0.001  0.001758  0.000901  3.891096  0.001  -0.055558  -0.005317  0.001105  3.870464  0.001
C  C52  1  0.25204022  0.46155788  0.05183951  1  -0.31375  0.000105  3.697757  0.0  -0.38874  8.5e-05  3.940186  0.0  -0.391149  8.3e-05  3.949118  0.0  -0.246327  -0.386684  4.6e-05  3.933904  0.0
C  C53  1  0.74794891  0.53843267  0.94815444  1  -0.31353  -0.000106  3.6978  0.0  -0.388517  -8.5e-05  3.940175  0.0  -0.390928  -8.4e-05  3.949107  0.0  -0.246173  -0.386449  -4.7e-05  3.9339  0.0
N  N54  1  0.19883088  0.35243660  0.47701424  1  -0.135218  -0.023418  3.06195  -0.018  -0.092857  -0.030864  3.343418  -0.023  -0.092024  -0.028081  3.348774  -0.021  -0.130797  -0.09396  -0.035914  3.341286  -0.028
N  N55  1  0.80117222  0.64756450  0.52299283  1  -0.134614  0.023397  3.061949  0.018  -0.092224  0.030837  3.343309  0.023  -0.09139  0.028054  3.348664  0.021  -0.130479  -0.093322  0.035876  3.341167  0.028
N  N56  1  0.24821047  0.39842609  0.39243972  1  -0.189622  0.003943  3.027785  0.004  -0.168093  0.000115  3.315133  0.001  -0.167102  0.002063  3.321088  0.002  -0.148635  -0.170069  -0.002748  3.312319  -0.002
N  N57  1  0.75180204  0.60157515  0.60755716  1  -0.190052  -0.003941  3.02805  -0.004  -0.168571  -0.000114  3.315402  -0.001  -0.16758  -0.002057  3.321357  -0.002  -0.148881  -0.170543  0.002741  3.312582  0.002
N  N58  1  0.19056322  0.12998883  0.28570939  1  -0.426972  -0.025797  3.229678  -0.012  -0.363796  -0.027952  3.516036  -0.01  -0.385335  -0.024805  3.533272  -0.007  -0.340836  -0.348011  -0.031085  3.504195  -0.013
N  N59  1  0.80943949  0.87001456  0.71429462  1  -0.426853  0.025792  3.229767  0.012  -0.36367  0.02795  3.516066  0.01  -0.385206  0.024802  3.53331  0.007  -0.340821  -0.34788  0.031078  3.504208  0.013
N  N60  1  0.27947102  0.30390000  0.19407951  1  -0.116678  -0.001412  3.515192  -0.001  -0.021628  -0.003772  3.72388  -0.004  -0.035715  -0.002693  3.751107  -0.003  -0.226959  -0.01275  -0.005346  3.705218  -0.005
N  N61  1  0.72052315  0.69609292  0.80591496  1  -0.116484  0.001411  3.51534  0.001  -0.021539  0.003767  3.724046  0.004  -0.035628  0.002692  3.751276  0.003  -0.226926  -0.012657  0.005338  3.705386  0.005
N  N62  1  0.48212138  0.19781625  0.57385769  1  -0.484557  0.052245  2.686429  0.069  -0.47034  0.040217  2.990596  0.058  -0.491992  0.04835  2.994971  0.067  -0.252057  -0.452172  0.035547  2.986693  0.054
N  N63  1  0.51787714  0.80221238  0.42612724  1  -0.484609  -0.052221  2.686283  -0.069  -0.470481  -0.040197  2.990597  -0.058  -0.492141  -0.048323  2.994976  -0.067  -0.252054  -0.452282  -0.035535  2.986653  -0.054
N  N64  1  0.61785234  0.15915735  0.59733887  1  0.408334  -0.000624  4.195474  -0.001  0.448953  -0.000998  4.45942  -0.001  0.466943  -0.000624  4.492086  -0.001  0.101623  0.435772  -0.001463  4.434916  -0.001
N  N65  1  0.38212732  0.84085834  0.40265721  1  0.408435  0.000624  4.196067  0.001  0.449052  0.000995  4.459987  0.001  0.467044  0.00062  4.492651  0.001  0.101526  0.435873  0.001466  4.435482  0.001
N  N66  1  0.75816104  0.12696909  0.62322584  1  -0.474137  -0.053558  2.661021  -0.068  -0.452768  -0.041536  2.947914  -0.057  -0.473077  -0.049443  2.952347  -0.065  -0.242222  -0.43515  -0.036591  2.943725  -0.052
N  N67  1  0.24181602  0.87303391  0.37678446  1  -0.474267  0.053528  2.66149  0.068  -0.452851  0.04151  2.948292  0.057  -0.473151  0.049412  2.952726  0.065  -0.242162  -0.435257  0.036563  2.944102  0.052
N  N68  1  0.12663404  0.04635627  0.62073042  1  -0.591536  0.002198  2.838732  0.003  -0.551402  0.002764  3.182799  0.004  -0.584  0.002456  3.184819  0.004  -0.302392  -0.524852  0.003309  3.178473  0.005
N  N69  1  0.87337915  0.95366568  0.37925938  1  -0.591486  -0.002192  2.8388  -0.003  -0.551471  -0.002762  3.182865  -0.004  -0.584055  -0.002451  3.18491  -0.004  -0.302313  -0.524922  -0.003318  3.178537  -0.005
N  N70  1  0.23055942  0.10719973  0.73041227  1  0.419032  0.0001  4.199903  0.0  0.450913  0.000636  4.482108  0.0  0.468546  0.000309  4.512926  0.0  0.102438  0.438865  0.000887  4.457092  0.0
N  N71  1  0.76945695  0.89281078  0.26957511  1  0.418909  -0.000101  4.200174  0.0  0.450962  -0.000644  4.48219  0.0  0.468559  -0.000312  4.513056  0.0  0.102368  0.438911  -0.000895  4.457177  0.0
N  N72  1  0.33124163  0.16559633  0.83680361  1  -0.403356  -0.001517  2.406296  -0.002  -0.403004  0.000372  2.632313  0.0  -0.409051  -2.5e-05  2.640721  0.0  -0.187216  -0.396885  0.000878  2.625195  0.001
N  N73  1  0.66877931  0.83440275  0.16318587  1  -0.403323  0.001478  2.406458  0.002  -0.403069  -0.000406  2.632417  0.0  -0.409094  -1.2e-05  2.640838  0.0  -0.187222  -0.396947  -0.000914  2.625298  -0.001
