# generated using pymatgen
data_Zn2H29C24N13O6
_symmetry_space_group_name_H-M   'P 1'
_cell_length_a   14.88806028
_cell_length_b   15.06974886
_cell_length_c   15.05924653
_cell_angle_alpha   119.81826680
_cell_angle_beta   100.44183611
_cell_angle_gamma   107.60051864
_symmetry_Int_Tables_number   1
_chemical_formula_structural   Zn2H29C24N13O6
_chemical_formula_sum   'Zn4 H58 C48 N26 O12'
_cell_volume   2559.69753009
_cell_formula_units_Z   2
loop_
 _symmetry_equiv_pos_site_id
 _symmetry_equiv_pos_as_xyz
  1  'x, y, z'
loop_
 _atom_site_type_symbol
 _atom_site_label
 _atom_site_symmetry_multiplicity
 _atom_site_fract_x
 _atom_site_fract_y
 _atom_site_fract_z
 _atom_site_occupancy
 _atom_site_pbe_bader_charge
 _atom_site_pbe_bader_spin_density
 _atom_site_pbe_cm5_charge
 _atom_site_pbe_ddec_charge
 _atom_site_pbe_ddec_spin_density
 _atom_site_pbe_ddec_sum_bond_order
 _atom_site_pbe_magmom
Zn  Zn0  1  0.11530283  0.48389533  0.60000790  1  1.184051  0  0.746034  0.606593  0  2.516249  0
Zn  Zn1  1  0.86680549  0.50456158  0.39526419  1  1.191709  0  0.749829  0.633202  0  2.443916  0
Zn  Zn2  1  0.99104417  0.35461202  0.33280563  1  1.187596  0  0.736747  0.627959  0  2.46436  0
Zn  Zn3  1  0.00358210  0.65217199  0.66564111  1  1.20842  0  0.752392  0.698996  0  2.349582  0
H  H4  1  0.32062750  0.68177378  0.65279680  1  0.059669  0  0.110179  0.094491  0  1.027962  0
H  H5  1  0.90256628  0.24685818  0.90248950  1  0.034239  0  0.093238  0.04151  0  1.0143  0
H  H6  1  0.74162083  0.16497660  0.88851254  1  0.374553  0  0.280723  0.259056  0  0.981563  0
H  H7  1  0.47816243  0.74622277  0.03486005  1  0.596538  0  0.318032  0.353972  0  0.903362  0
H  H8  1  0.08192594  0.49669687  0.83410015  1  0.57208  0  0.291029  0.325132  0  0.977648  0
H  H9  1  0.02284328  0.28542170  0.12624440  1  0.600838  0  0.334624  0.3605  0  0.884359  0
H  H10  1  0.75343557  0.09913713  0.10396950  1  0.610319  0  0.293424  0.327947  0  0.987369  0
H  H11  1  0.20669188  0.94592373  0.98016670  1  0.648814  0  0.299449  0.354038  0  0.986908  0
H  H12  1  0.60251994  0.96726113  0.03937724  1  0.069556  0  0.108528  0.056096  0  1.000333  0
H  H13  1  0.81132619  0.56498163  0.67331210  1  0.613685  0  0.317399  0.347801  0  0.946166  0
H  H14  1  0.21737021  0.96634258  0.73222422  1  0.620972  0  0.339922  0.368839  0  0.873893  0
H  H15  1  0.81950078  0.82861532  0.80686696  1  0.61007  0  0.344238  0.376826  0  0.865743  0
H  H16  1  0.99543696  0.66566037  0.34338472  1  0.104786  0  0.11756  0.108162  0  1.010315  0
H  H17  1  0.67849177  0.57984684  0.40333940  1  0.06954  0  0.122275  0.111911  0  0.983483  0
H  H18  1  0.61185314  0.95637640  0.16867876  1  0.051572  0  0.101653  0.055026  0  0.993612  0
H  H19  1  0.03487065  0.43008464  0.00015811  1  0.070423  0  0.113553  0.083565  0  0.957686  0
H  H20  1  0.17884299  0.28707400  0.58851904  1  0.097085  0  0.116991  0.103118  0  0.998141  0
H  H21  1  0.19159171  0.11233658  0.54018369  1  0.026571  0  0.093766  0.091506  0  0.996733  0
H  H22  1  0.47943342  0.72910762  0.63249423  1  0.022636  0  0.090542  0.088737  0  1.004668  0
H  H23  1  0.05753495  0.84895656  0.35901189  1  0.050911  0  0.099642  0.10471  0  0.983958  0
H  H24  1  0.57112530  0.68665774  0.45427220  1  0.045556  0  0.098208  0.099281  0  0.986422  0
H  H25  1  0.03497455  0.96594344  0.29633584  1  0.059938  0  0.098648  0.101986  0  0.991956  0
H  H26  1  0.38596825  0.63983004  0.38661622  1  0.052655  0  0.09863  0.101112  0  0.990369  0
H  H27  1  0.20675924  0.99765092  0.60556659  1  0.024864  0  0.087168  0.071002  0  1.026257  0
H  H28  1  0.65258982  0.76025193  0.69560760  1  0.001304  0  0.087346  0.075905  0  1.022218  0
H  H29  1  0.78564202  0.47751426  0.15351491  1  0.125691  0  0.114327  0.113285  0  1.010328  0
H  H30  1  0.65896980  0.33489032  0.37361609  1  0.137637  0  0.109475  0.106902  0  1.037625  0
H  H31  1  0.33432732  0.66671760  0.83078257  1  0.10482  0  0.113225  0.108089  0  1.016346  0
H  H32  1  0.99125807  0.31671266  0.64905900  1  0.099766  0  0.116911  0.108388  0  0.999233  0
H  H33  1  0.17064400  0.50850998  0.29605442  1  0.057939  0  0.113051  0.10164  0  1.012702  0
H  H34  1  0.99683529  0.10565601  0.23713909  1  0.080967  0  0.116443  0.109108  0  0.998123  0
H  H35  1  0.34065430  0.99326644  0.14400990  1  0.053896  0  0.109419  0.063709  0  0.977644  0
H  H36  1  0.45989255  0.86891646  0.89241390  1  0.024039  0  0.10163  0.053617  0  0.977297  0
H  H37  1  0.80569534  0.50265954  0.84663582  1  0.072947  0  0.103319  0.05473  0  1.034466  0
H  H38  1  0.34743222  0.03319907  0.98021391  1  0.611458  0  0.286658  0.305935  0  1.024105  0
H  H39  1  0.68620318  0.35215612  0.69254085  1  0.595947  0  0.317176  0.348781  0  0.909256  0
H  H40  1  0.43786438  0.19342087  0.12387510  1  0.602055  0  0.307902  0.340324  0  0.948782  0
H  H41  1  0.68732523  0.29425452  0.88725519  1  0.62188  0  0.281251  0.319956  0  1.0144  0
H  H42  1  0.94546126  0.28072732  0.78541261  1  0.033402  0  0.105499  0.059976  0  0.969921  0
H  H43  1  0.43056728  0.19651593  0.29638563  1  0.36666  0  0.283132  0.274381  0  0.958644  0
H  H44  1  0.48727897  0.12702727  0.32080145  1  0.431067  0  0.27069  0.260592  0  1.03955  0
H  H45  1  0.76999377  0.57042247  0.02902228  1  0.383151  0  0.283421  0.280492  0  0.956062  0
H  H46  1  0.88255215  0.60924621  0.01988361  1  0.423389  0  0.270732  0.259986  0  1.027066  0
H  H47  1  0.31184832  0.76756096  0.06567540  1  0.391342  0  0.28611  0.291669  0  0.966642  0
H  H48  1  0.38878826  0.88240444  0.19797773  1  0.432313  0  0.288199  0.288047  0  0.982542  0
H  H49  1  0.00510741  0.62335459  0.89274780  1  0.407648  0  0.279294  0.270731  0  0.993675  0
H  H50  1  0.06342982  0.66704099  0.02331676  1  0.440944  0  0.282816  0.280666  0  0.976265  0
H  H51  1  0.61873306  0.09063518  0.35302818  1  0.403002  0  0.292064  0.28033  0  0.95431  0
H  H52  1  0.55391855  0.95514870  0.30356142  1  0.395222  0  0.292439  0.277011  0  0.950692  0
H  H53  1  0.99344023  0.61493864  0.14157983  1  0.406631  0  0.272271  0.257521  0  1.027602  0
H  H54  1  0.08062561  0.57800873  0.17334503  1  0.396798  0  0.2779  0.263091  0  0.985874  0
H  H55  1  0.47061616  0.06088221  0.91912400  1  0.401264  0  0.2935  0.269101  0  0.974433  0
H  H56  1  0.36597947  0.93436452  0.82950626  1  0.443905  0  0.295082  0.281973  0  0.964857  0
H  H57  1  0.79381850  0.10798617  0.64483503  1  0.385666  0  0.279656  0.262128  0  0.981835  0
H  H58  1  0.72652870  0.18154553  0.65244576  1  0.434823  0  0.277288  0.270647  0  1.007204  0
H  H59  1  0.62165139  0.07523056  0.95401436  1  0.377755  0  0.288248  0.268003  0  0.969317  0
H  H60  1  0.63685692  0.18541101  0.07597523  1  0.45095  0  0.295735  0.296384  0  0.953278  0
H  H61  1  0.71462081  0.12543657  0.75912780  1  0.395147  0  0.277702  0.24653  0  1.018227  0
C  C62  1  0.26923517  0.63049502  0.56549126  1  0.437074  0  0.004941  -0.050447  0  3.94798  0
C  C63  1  0.68035492  0.18427932  0.25577404  1  -0.001925  0  -0.050688  -0.153255  0  3.974881  0
C  C64  1  0.87906829  0.39454714  0.07758912  1  0.084013  0  -0.050276  -0.145453  0  4.016844  0
C  C65  1  0.28829984  0.80519537  0.92045820  1  0.005221  0  -0.063265  -0.192444  0  4.002624  0
C  C66  1  0.89775917  0.40787169  0.71214153  1  0.061929  0  -0.049403  -0.148036  0  3.997293  0
C  C67  1  0.38047751  0.01356093  0.09687836  1  0.404866  0  -0.008482  0.051425  0  3.777519  0
C  C68  1  0.79694420  0.42170759  0.83340104  1  0.418203  0  -0.010549  0.063935  0  3.762008  0
C  C69  1  0.13595892  0.25968288  0.50548734  1  0.379363  0  0.006807  -0.054496  0  3.976807  0
C  C70  1  0.48897980  0.12240283  0.18327945  1  0.807699  0  0.154986  0.385603  0  3.782198  0
C  C71  1  0.80116433  0.43783861  0.94685006  1  0.833957  0  0.156267  0.39353  0  3.764941  0
C  C72  1  0.44786990  0.87485113  0.08284918  1  0.814965  0  0.162357  0.389656  0  3.784483  0
C  C73  1  0.98987369  0.49495340  0.91233254  1  0.805123  0  0.157347  0.38644  0  3.793287  0
C  C74  1  0.45896664  0.94542704  0.95980016  1  0.304752  0  0.00019  0.093014  0  3.7784  0
C  C75  1  0.87070239  0.28062386  0.77954419  1  0.358888  0  0.004444  0.113647  0  3.803654  0
C  C76  1  0.39020567  0.90687112  0.01264516  1  0.024999  0  -0.012708  -0.047466  0  3.766759  0
C  C77  1  0.88566826  0.39850942  0.80460485  1  0.033673  0  -0.01091  -0.047168  0  3.754666  0
C  C78  1  0.57496774  0.08435164  0.17272984  1  0.030876  0  0.00275  -0.021952  0  3.709842  0
C  C79  1  0.87844588  0.39715943  0.97900320  1  0.024465  0  -0.012796  -0.052947  0  3.756459  0
C  C80  1  0.55153121  0.98300090  0.18337805  1  0.308145  0  0.002097  0.033776  0  3.803197  0
C  C81  1  0.99031406  0.47763367  0.00592425  1  0.33044  0  0.005739  0.060039  0  3.769301  0
C  C82  1  0.03315273  0.70257808  0.43110666  1  0.4092  0  0.012358  -0.023011  0  3.955616  0
C  C83  1  0.73432599  0.62371242  0.48722514  1  0.473967  0  0.015708  -0.023781  0  3.993411  0
C  C84  1  0.57053860  0.02714092  0.05015194  1  0.30883  0  0.00482  0.092375  0  3.778696  0
C  C85  1  0.11013474  0.81507336  0.52000923  1  0.018546  0  -0.058569  -0.132583  0  4.175914  0
C  C86  1  0.84997676  0.27516426  0.87601933  1  0.282033  0  -0.004393  0.078542  0  3.784265  0
C  C87  1  0.14993921  0.91751762  0.52440149  1  -0.079886  0  -0.110298  -0.12507  0  4.099492  0
C  C88  1  0.65378988  0.73225803  0.61331055  1  -0.059587  0  -0.115819  -0.137579  0  4.109824  0
C  C89  1  0.11476483  0.92679866  0.44093210  1  0.000204  0  -0.10718  -0.096408  0  4.084036  0
C  C90  1  0.57191457  0.71390435  0.53689048  1  -0.034886  0  -0.110489  -0.101095  0  4.095943  0
C  C91  1  0.73346227  0.70087433  0.59070401  1  0.03607  0  -0.062654  -0.137303  0  4.192536  0
C  C92  1  0.08774882  0.04442925  0.37985716  1  -0.068284  0  -0.102794  -0.137163  0  4.058895  0
C  C93  1  0.38716274  0.66253918  0.46823187  1  -0.028063  0  -0.099547  -0.128383  0  4.04061  0
C  C94  1  0.13740420  0.03412391  0.45681348  1  -0.018176  0  -0.111579  -0.110048  0  4.116119  0
C  C95  1  0.47879163  0.70926270  0.55171878  1  -0.034638  0  -0.11663  -0.116462  0  4.116731  0
C  C96  1  0.93570757  0.35562845  0.12154482  1  0.943155  0  0.165129  0.320367  0  4.14949  0
C  C97  1  0.77563814  0.18840633  0.25239192  1  1.041776  0  0.169704  0.341312  0  4.087774  0
C  C98  1  0.18785847  0.79403276  0.88494092  1  1.060176  0  0.172912  0.354613  0  4.145187  0
C  C99  1  0.87619899  0.47721788  0.68353486  1  0.93785  0  0.171064  0.33458  0  4.105065  0
C  C100  1  0.83504903  0.43760205  0.15440447  1  0.359597  0  0.002691  -0.040589  0  4.021855  0
C  C101  1  0.70846373  0.29796300  0.34379149  1  0.422653  0  0.000263  -0.032091  0  3.984784  0
C  C102  1  0.27669545  0.69699561  0.83634964  1  0.399357  0  -0.003845  -0.046003  0  4.054328  0
C  C103  1  0.95986870  0.37492517  0.65512826  1  0.368303  0  0.001459  -0.050036  0  4.016513  0
C  C104  1  0.12629120  0.80924890  0.61201268  1  1.003923  0  0.17986  0.345303  0  4.07821  0
C  C105  1  0.82264573  0.72453081  0.66833410  1  0.968553  0  0.175919  0.33133  0  4.135438  0
C  C106  1  0.19199228  0.54139812  0.38340433  1  0.409275  0  0.005094  -0.059756  0  3.95643  0
C  C107  1  0.04330979  0.16736922  0.32635508  1  0.440693  0  0.007553  -0.051103  0  3.974719  0
C  C108  1  0.28880891  0.62178841  0.47397165  1  0.005942  0  -0.043576  0.006374  0  4.127436  0
C  C109  1  0.09175228  0.15061796  0.40213023  1  -0.017836  0  -0.04379  0.00641  0  4.148926  0
N  N110  1  0.17028551  0.55892908  0.53036822  1  -0.783428  0  -0.281109  -0.172824  0  3.64858  0
N  N111  1  0.85290479  0.29362596  0.33437030  1  -0.839154  0  -0.298007  -0.279688  0  3.576332  0
N  N112  1  0.92592112  0.37248399  0.21456277  1  -0.836882  0  -0.300035  -0.327759  0  3.570326  0
N  N113  1  0.12442569  0.68923728  0.78835727  1  -0.827963  0  -0.295767  -0.304148  0  3.492092  0
N  N114  1  0.92640816  0.49043325  0.62139990  1  -0.782198  0  -0.307585  -0.340356  0  3.593293  0
N  N115  1  0.86218023  0.42421981  0.23581052  1  -0.795853  0  -0.283624  -0.188342  0  3.533758  0
N  N116  1  0.81159859  0.36267886  0.38990786  1  -0.795426  0  -0.299435  -0.192523  0  3.600433  0
N  N117  1  0.11590676  0.33415429  0.49169550  1  -0.788849  0  -0.274618  -0.173529  0  3.562764  0
N  N118  1  0.17992103  0.62799494  0.75899326  1  -0.840403  0  -0.29245  -0.197223  0  3.606132  0
N  N119  1  0.97730019  0.42499873  0.60224517  1  -0.801206  0  -0.300297  -0.186055  0  3.61458  0
N  N120  1  0.06345482  0.70475093  0.58142284  1  -0.811773  0  -0.289732  -0.287742  0  3.534535  0
N  N121  1  0.87091759  0.66575981  0.61651951  1  -0.827404  0  -0.279894  -0.303925  0  3.449401  0
N  N122  1  0.12270058  0.50366329  0.41873383  1  -0.782422  0  -0.277795  -0.181002  0  3.626149  0
N  N123  1  0.05839246  0.27682466  0.37998598  1  -0.785895  0  -0.275332  -0.18627  0  3.559747  0
N  N124  1  0.49281275  0.18083548  0.29691554  1  -1.099547  0  -0.636972  -0.688044  0  3.184899  0
N  N125  1  0.83478865  0.55946400  0.03641013  1  -1.114863  0  -0.637552  -0.690827  0  3.165193  0
N  N126  1  0.38618176  0.82249714  0.12300910  1  -1.145382  0  -0.638686  -0.715838  0  3.222027  0
N  N127  1  0.99902734  0.60758462  0.95056356  1  -1.182178  0  -0.627187  -0.671719  0  3.234192  0
N  N128  1  0.55195364  0.01661355  0.29316489  1  -1.109364  0  -0.622288  -0.611726  0  3.228877  0
N  N129  1  0.04554575  0.58810143  0.11680167  1  -1.123616  0  -0.64301  -0.632511  0  3.216412  0
N  N130  1  0.41428261  0.99566477  0.91180087  1  -1.137896  0  -0.612738  -0.59896  0  3.289146  0
N  N131  1  0.79751435  0.18484762  0.66556504  1  -1.156068  0  -0.642452  -0.642966  0  3.245532  0
N  N132  1  0.63914889  0.10843315  0.03631259  1  -1.136931  0  -0.614374  -0.62574  0  3.245236  0
N  N133  1  0.00638234  0.63854668  0.46858575  1  -0.783313  0  -0.28557  -0.185189  0  3.637688  0
N  N134  1  0.74230248  0.19451907  0.84049341  1  -1.103749  0  -0.619199  -0.608003  0  3.273101  0
N  N135  1  0.81488325  0.60296748  0.50244833  1  -0.792829  0  -0.273977  -0.170991  0  3.557453  0
O  O136  1  0.32006143  0.04501596  0.04247736  1  -1.144491  0  -0.391734  -0.487459  0  2.295348  0
O  O137  1  0.07754832  0.48236825  0.89026641  1  -1.100059  0  -0.419898  -0.565284  0  2.184697  0
O  O138  1  0.47394598  0.79087106  0.00593713  1  -1.111797  0  -0.397295  -0.543262  0  2.201609  0
O  O139  1  0.99619561  0.30721317  0.08014487  1  -1.140864  0  -0.354602  -0.464223  0  2.291293  0
O  O140  1  0.79434235  0.10860325  0.17161775  1  -1.185954  0  -0.385209  -0.499195  0  2.262992  0
O  O141  1  0.14689486  0.86559745  0.92861415  1  -1.190977  0  -0.37737  -0.488401  0  2.283747  0
O  O142  1  0.81214646  0.52541473  0.70902164  1  -1.154383  0  -0.355353  -0.458645  0  2.30601  0
O  O143  1  0.69887999  0.33059795  0.74297053  1  -1.102785  0  -0.40548  -0.484303  0  2.229308  0
O  O144  1  0.19358072  0.89234725  0.72101484  1  -1.152336  0  -0.345612  -0.454389  0  2.281201  0
O  O145  1  0.86276746  0.79260807  0.78177065  1  -1.124922  0  -0.345533  -0.446448  0  2.257153  0
O  O146  1  0.50632211  0.20197101  0.15504559  1  -1.12423  0  -0.400874  -0.526903  0  2.197308  0
O  O147  1  0.70264283  0.37660089  0.93723330  1  -1.149151  0  -0.41791  -0.540433  0  2.215602  0
