# generated using pymatgen
data_ZnH20C16N3O5
_symmetry_space_group_name_H-M   'P 1'
_cell_length_a   8.89838349
_cell_length_b   10.16287824
_cell_length_c   10.39190491
_cell_angle_alpha   69.82683958
_cell_angle_beta   75.75853638
_cell_angle_gamma   82.07586020
_symmetry_Int_Tables_number   1
_chemical_formula_structural   ZnH20C16N3O5
_chemical_formula_sum   'Zn2 H40 C32 N6 O10'
_cell_volume   853.55935208
_cell_formula_units_Z   2
loop_
 _symmetry_equiv_pos_site_id
 _symmetry_equiv_pos_as_xyz
  1  'x, y, z'
loop_
 _atom_site_type_symbol
 _atom_site_label
 _atom_site_symmetry_multiplicity
 _atom_site_fract_x
 _atom_site_fract_y
 _atom_site_fract_z
 _atom_site_occupancy
 _atom_site_hle17_bader_spin_density
 _atom_site_hle17_ddec_charge
 _atom_site_hle17_ddec_spin_density
 _atom_site_hle17_ddec_sum_bond_order
 _atom_site_hle17_magmom
 _atom_site_hse06_10hf_bader_spin_density
 _atom_site_hse06_10hf_ddec_charge
 _atom_site_hse06_10hf_ddec_spin_density
 _atom_site_hse06_10hf_ddec_sum_bond_order
 _atom_site_hse06_10hf_magmom
 _atom_site_hse06_bader_spin_density
 _atom_site_hse06_ddec_charge
 _atom_site_hse06_ddec_spin_density
 _atom_site_hse06_ddec_sum_bond_order
 _atom_site_hse06_magmom
 _atom_site_pbe_bader_spin_density
 _atom_site_pbe_cm5_charge
 _atom_site_pbe_ddec_charge
 _atom_site_pbe_ddec_spin_density
 _atom_site_pbe_ddec_sum_bond_order
 _atom_site_pbe_magmom
Zn  Zn0  1  0.25535307  0.19757320  0.70770357  1  0  1.002562  0  1.821848  0  0  0.806454  0  2.288244  0  0  0.85741  0  2.232079  0  0  0.685281  0.770977  0  2.327168  0
Zn  Zn1  1  0.74464554  0.80243311  0.29229591  1  0  1.002502  0  1.821892  0  0  0.806385  0  2.288299  0  0  0.857378  0  2.232149  0  0  0.68525  0.770913  0  2.327228  0
H  H2  1  0.60843488  0.52041149  0.75624115  1  0  0.101043  0  0.929292  0  0  0.117223  0  0.989096  0  0  0.118561  0  0.989657  0  0  0.102876  0.116657  0  0.988509  0
H  H3  1  0.39158448  0.47959002  0.24374738  1  0  0.100934  0  0.929535  0  0  0.117135  0  0.989297  0  0  0.118473  0  0.989859  0  0  0.10281  0.116571  0  0.98871  0
H  H4  1  0.66746732  0.36299150  0.87414894  1  0  0.114405  0  0.919198  0  0  0.133878  0  0.970855  0  0  0.135629  0  0.970321  0  0  0.112113  0.132872  0  0.970916  0
H  H5  1  0.33253353  0.63699726  0.12584301  1  0  0.114375  0  0.919166  0  0  0.133918  0  0.970773  0  0  0.135675  0  0.970228  0  0  0.112125  0.13291  0  0.970837  0
H  H6  1  0.08237911  0.77457434  0.70996976  1  0  0.049804  0  0.946824  0  0  0.070378  0  1.010529  0  0  0.070477  0  1.011989  0  0  0.080568  0.070087  0  1.009827  0
H  H7  1  0.91762180  0.22543292  0.29002889  1  0  0.049772  0  0.94672  0  0  0.070342  0  1.010453  0  0  0.070443  0  1.01191  0  0  0.08054  0.070052  0  1.00975  0
H  H8  1  0.15214386  0.61077956  0.81463663  1  0  0.047894  0  0.945394  0  0  0.067657  0  1.009884  0  0  0.068328  0  1.010161  0  0  0.079711  0.067304  0  1.009473  0
H  H9  1  0.84786167  0.38922962  0.18536037  1  0  0.04781  0  0.945448  0  0  0.067608  0  1.009923  0  0  0.068281  0  1.010199  0  0  0.079691  0.067253  0  1.009516  0
H  H10  1  0.09439026  0.06100335  0.54082975  1  0  0.086392  0  0.956012  0  0  0.094009  0  1.020736  0  0  0.096733  0  1.018413  0  0  0.119142  0.09186  0  1.022759  0
H  H11  1  0.90561228  0.93899408  0.45918317  1  0  0.086409  0  0.956059  0  0  0.094009  0  1.020809  0  0  0.096726  0  1.018484  0  0  0.119182  0.091864  0  1.022829  0
H  H12  1  0.87298515  0.78950625  0.91985413  1  0  0.076896  0  0.934379  0  0  0.095805  0  0.994145  0  0  0.097093  0  0.993829  0  0  0.091449  0.094856  0  0.994612  0
H  H13  1  0.12701474  0.21049368  0.08014801  1  0  0.076884  0  0.934362  0  0  0.095801  0  0.994136  0  0  0.097089  0  0.993818  0  0  0.091448  0.094853  0  0.994602  0
H  H14  1  0.95030866  0.63204065  0.02357075  1  0  0.066903  0  0.946922  0  0  0.085845  0  1.008177  0  0  0.086416  0  1.009157  0  0  0.087336  0.085355  0  1.007658  0
H  H15  1  0.04969699  0.36796014  0.97642885  1  0  0.066919  0  0.946891  0  0  0.085846  0  1.008179  0  0  0.086412  0  1.009157  0  0  0.087333  0.085357  0  1.007661  0
H  H16  1  0.88651795  0.53986631  0.60665530  1  0  0.099119  0  0.955884  0  0  0.114654  0  1.016745  0  0  0.116697  0  1.016352  0  0  0.096079  0.113254  0  1.016826  0
H  H17  1  0.11347511  0.46013582  0.39335349  1  0  0.099116  0  0.955892  0  0  0.114635  0  1.016771  0  0  0.11667  0  1.016387  0  0  0.096081  0.113233  0  1.016855  0
H  H18  1  0.01760335  0.67617303  0.54235354  1  0  0.092925  0  0.934889  0  0  0.109131  0  0.993869  0  0  0.110937  0  0.993357  0  0  0.092938  0.107805  0  0.994435  0
H  H19  1  0.98239074  0.32383022  0.45765082  1  0  0.09292  0  0.934766  0  0  0.109119  0  0.993765  0  0  0.110925  0  0.993253  0  0  0.092936  0.107796  0  0.994325  0
H  H20  1  0.40506829  0.36963805  0.04361114  1  0  0.06963  0  0.948131  0  0  0.086425  0  1.012492  0  0  0.087242  0  1.013316  0  0  0.091178  0.085726  0  1.012082  0
H  H21  1  0.59494317  0.63035426  0.95638497  1  0  0.069793  0  0.948011  0  0  0.086496  0  1.012476  0  0  0.087311  0  1.013306  0  0  0.091232  0.085799  0  1.012066  0
H  H22  1  0.35981906  0.53512368  0.92954066  1  0  0.058344  0  0.94329  0  0  0.076761  0  1.006771  0  0  0.077186  0  1.007417  0  0  0.087892  0.076787  0  1.006064  0
H  H23  1  0.64019575  0.46487172  0.07045083  1  0  0.058315  0  0.94331  0  0  0.076793  0  1.006728  0  0  0.077222  0  1.007366  0  0  0.08788  0.076817  0  1.006026  0
H  H24  1  0.05359664  0.81819229  0.06414052  1  0  0.122202  0  0.938323  0  0  0.136647  0  0.999088  0  0  0.139507  0  0.997652  0  0  0.103939  0.134614  0  1.000127  0
H  H25  1  0.94640670  0.18180652  0.93585926  1  0  0.122144  0  0.938293  0  0  0.136611  0  0.999039  0  0  0.139471  0  0.9976  0  0  0.103944  0.134577  0  1.000077  0
H  H26  1  0.20888403  0.75121491  0.96004462  1  0  0.072113  0  0.959113  0  0  0.087871  0  1.026139  0  0  0.089884  0  1.024701  0  0  0.086433  0.086689  0  1.026808  0
H  H27  1  0.79111567  0.24879039  0.03995203  1  0  0.072079  0  0.959092  0  0  0.087837  0  1.026131  0  0  0.089849  0  1.024695  0  0  0.086435  0.086652  0  1.0268  0
H  H28  1  0.44085118  0.06061897  0.16528326  1  0  0.117231  0  0.905596  0  0  0.131143  0  0.953974  0  0  0.134596  0  0.9514  0  0  0.121507  0.128243  0  0.956593  0
H  H29  1  0.55912463  0.93936821  0.83473128  1  0  0.117317  0  0.905422  0  0  0.131176  0  0.953852  0  0  0.13463  0  0.951274  0  0  0.121499  0.128276  0  0.956471  0
H  H30  1  0.61339965  0.17568766  0.24513333  1  0  0.113791  0  0.960551  0  0  0.122887  0  1.022366  0  0  0.125566  0  1.022506  0  0  0.111115  0.120742  0  1.022719  0
H  H31  1  0.38658959  0.82430053  0.75486049  1  0  0.113934  0  0.960744  0  0  0.123061  0  1.022501  0  0  0.125751  0  1.022613  0  0  0.111182  0.120909  0  1.022875  0
H  H32  1  0.17051549  0.00683864  0.31154355  1  0  0.132471  0  0.958992  0  0  0.139953  0  1.019082  0  0  0.144506  0  1.016176  0  0  0.113306  0.136096  0  1.022136  0
H  H33  1  0.82946513  0.99314611  0.68847546  1  0  0.132517  0  0.958932  0  0  0.13998  0  1.019036  0  0  0.144538  0  1.016129  0  0  0.113334  0.136125  0  1.02209  0
H  H34  1  0.82029753  0.67342962  0.76607407  1  0  0.050032  0  0.971002  0  0  0.069659  0  1.036741  0  0  0.069408  0  1.039317  0  0  0.082095  0.069944  0  1.03471  0
H  H35  1  0.17969908  0.32657334  0.23393654  1  0  0.050068  0  0.971059  0  0  0.069677  0  1.036802  0  0  0.069425  0  1.039377  0  0  0.082119  0.069961  0  1.034769  0
H  H36  1  0.90049525  0.50785051  0.85319482  1  0  0.06612  0  0.945267  0  0  0.086963  0  1.005393  0  0  0.087444  0  1.006385  0  0  0.090592  0.086406  0  1.004951  0
H  H37  1  0.09951515  0.49215205  0.14680795  1  0  0.066053  0  0.945284  0  0  0.086911  0  1.005394  0  0  0.087389  0  1.00639  0  0  0.090576  0.086352  0  1.004952  0
H  H38  1  0.65044639  0.28839066  0.41855793  1  0  0.106888  0  0.932253  0  0  0.114661  0  0.999258  0  0  0.118164  0  0.995605  0  0  0.126932  0.111768  0  1.002526  0
H  H39  1  0.34954988  0.71160132  0.58143790  1  0  0.106953  0  0.932189  0  0  0.114695  0  0.999219  0  0  0.1182  0  0.995563  0  0  0.126957  0.111804  0  1.002487  0
H  H40  1  0.65107518  0.38852749  0.59092526  1  0  0.315486  0  0.927511  0  0  0.293267  0  0.995543  0  0  0.302774  0  0.988124  0  0  0.315286  0.286547  0  1.000604  0
H  H41  1  0.34893382  0.61147021  0.40906780  1  0  0.315296  0  0.927769  0  0  0.293152  0  0.995733  0  0  0.302659  0  0.988316  0  0  0.315254  0.286429  0  1.000792  0
C  C42  1  0.11742441  0.46941347  0.62910680  1  0  0.703682  0  3.841803  0  0  0.658927  0  4.139406  0  0  0.6919  0  4.133124  0  0  0.209755  0.636546  0  4.142547  0
C  C43  1  0.88257527  0.53059186  0.37088890  1  0  0.703581  0  3.841946  0  0  0.658863  0  4.139494  0  0  0.691833  0  4.133215  0  0  0.209689  0.636483  0  4.142633  0
C  C44  1  0.56354483  0.42656421  0.84272109  1  0  -0.245168  0  3.671972  0  0  -0.284586  0  3.923675  0  0  -0.289146  0  3.932643  0  0  -0.152914  -0.281434  0  3.917009  0
C  C45  1  0.43646519  0.57343359  0.15726689  1  0  -0.245107  0  3.672016  0  0  -0.284596  0  3.92374  0  0  -0.289145  0  3.932705  0  0  -0.152903  -0.281446  0  3.917079  0
C  C46  1  0.11682272  0.95455752  0.85473834  1  0  0.682003  0  3.853071  0  0  0.638885  0  4.149675  0  0  0.671151  0  4.145083  0  0  0.197122  0.616639  0  4.151795  0
C  C47  1  0.88317367  0.04545391  0.14526678  1  0  0.681957  0  3.852679  0  0  0.638775  0  4.149394  0  0  0.671039  0  4.144806  0  0  0.197072  0.616529  0  4.151509  0
C  C48  1  0.04648369  0.68077814  0.80101971  1  0  -0.111431  0  3.708174  0  0  -0.152514  0  3.97405  0  0  -0.154009  0  3.98991  0  0  -0.173026  -0.151397  0  3.963253  0
C  C49  1  0.95352076  0.31922893  0.19898012  1  0  -0.111327  0  3.707944  0  0  -0.152465  0  3.973905  0  0  -0.153952  0  3.989749  0  0  -0.173013  -0.151348  0  3.963107  0
C  C50  1  0.20730495  0.08525456  0.47014915  1  0  0.142188  0  3.682479  0  0  0.110248  0  3.940009  0  0  0.116909  0  3.957666  0  0  0.056533  0.105512  0  3.928611  0
C  C51  1  0.79269033  0.91474655  0.52985561  1  0  0.142211  0  3.682305  0  0  0.110262  0  3.939854  0  0  0.116935  0  3.957503  0  0  0.056495  0.105525  0  3.928459  0
C  C52  1  0.98172050  0.72503614  0.93115233  1  0  -0.089913  0  3.701492  0  0  -0.131156  0  3.962639  0  0  -0.131328  0  3.976318  0  0  -0.172536  -0.131103  0  3.953498  0
C  C53  1  0.01828164  0.27496688  0.06884737  1  0  -0.089955  0  3.701355  0  0  -0.13122  0  3.96258  0  0  -0.131387  0  3.976251  0  0  -0.172517  -0.131172  0  3.953439  0
C  C54  1  0.98338532  0.57906552  0.62834810  1  0  -0.273758  0  3.691617  0  0  -0.312604  0  3.941767  0  0  -0.319016  0  3.951366  0  0  -0.174135  -0.307909  0  3.934923  0
C  C55  1  0.01661100  0.42093878  0.37165254  1  0  -0.273615  0  3.691501  0  0  -0.312435  0  3.941558  0  0  -0.318845  0  3.951172  0  0  -0.174044  -0.307743  0  3.93472  0
C  C56  1  0.45761789  0.46502801  0.96606017  1  0  -0.085089  0  3.694813  0  0  -0.12823  0  3.95992  0  0  -0.128699  0  3.974205  0  0  -0.164911  -0.127868  0  3.950211  0
C  C57  1  0.54239227  0.53496449  0.03393136  1  0  -0.085114  0  3.694676  0  0  -0.128282  0  3.959879  0  0  -0.128752  0  3.974166  0  0  -0.164929  -0.127927  0  3.950177  0
C  C58  1  0.48332514  0.34233827  0.78775553  1  0  0.571518  0  3.745288  0  0  0.527117  0  4.034361  0  0  0.555112  0  4.036428  0  0  0.25344  0.508199  0  4.032711  0
C  C59  1  0.51668250  0.65766382  0.21223165  1  0  0.571502  0  3.745222  0  0  0.527156  0  4.034344  0  0  0.555134  0  4.036447  0  0  0.253528  0.508234  0  4.032694  0
C  C60  1  0.44283064  0.18118235  0.43166755  1  0  0.18741  0  3.834035  0  0  0.189869  0  4.07814  0  0  0.194289  0  4.101055  0  0  0.110489  0.186603  0  4.062822  0
C  C61  1  0.55717395  0.81880910  0.56833329  1  0  0.18766  0  3.833919  0  0  0.19008  0  4.078061  0  0  0.194513  0  4.100957  0  0  0.110435  0.186818  0  4.062742  0
C  C62  1  0.09370634  0.80740099  0.95908733  1  0  -0.263762  0  3.685838  0  0  -0.303165  0  3.939892  0  0  -0.30917  0  3.94841  0  0  -0.169167  -0.298647  0  3.933534  0
C  C63  1  0.90629699  0.19260402  0.04091340  1  0  -0.263513  0  3.685704  0  0  -0.302915  0  3.939784  0  0  -0.308918  0  3.948305  0  0  -0.169066  -0.298387  0  3.933414  0
C  C64  1  0.39981415  0.08565939  0.26249868  1  0  0.013456  0  3.681996  0  0  -0.010157  0  3.944494  0  0  -0.005549  0  3.959246  0  0  -0.057075  -0.013272  0  3.935222  0
C  C65  1  0.60016623  0.91432665  0.73751228  1  0  0.013606  0  3.681806  0  0  -0.009934  0  3.944252  0  0  -0.005327  0  3.959008  0  0  -0.057012  -0.013051  0  3.934985  0
C  C66  1  0.49653222  0.15093555  0.30611208  1  0  -0.137482  0  3.687795  0  0  -0.160305  0  3.941932  0  0  -0.166653  0  3.963415  0  0  -0.076113  -0.156269  0  3.92824  0
C  C67  1  0.50346072  0.84905330  0.69388935  1  0  -0.137855  0  3.688335  0  0  -0.160711  0  3.942395  0  0  -0.167062  0  3.963875  0  0  -0.076123  -0.156675  0  3.928703  0
C  C68  1  0.25188393  0.05282888  0.34515349  1  0  -0.116942  0  3.674138  0  0  -0.134346  0  3.933629  0  0  -0.140287  0  3.952298  0  0  -0.076501  -0.130224  0  3.921767  0
C  C69  1  0.74809756  0.94716439  0.65485688  1  0  -0.117093  0  3.673963  0  0  -0.134491  0  3.933465  0  0  -0.140441  0  3.952132  0  0  -0.076548  -0.13037  0  3.921608  0
C  C70  1  0.92910466  0.60745201  0.76844861  1  0  -0.083863  0  3.698507  0  0  -0.126131  0  3.960797  0  0  -0.126506  0  3.975626  0  0  -0.167956  -0.125941  0  3.950653  0
C  C71  1  0.07089865  0.39255405  0.23155180  1  0  -0.083892  0  3.698503  0  0  -0.126159  0  3.960803  0  0  -0.126536  0  3.975631  0  0  -0.16802  -0.125967  0  3.950658  0
C  C72  1  0.53853873  0.24902770  0.48286096  1  0  0.02841  0  3.628902  0  0  -0.02089  0  3.897383  0  0  -0.012069  0  3.905459  0  0  0.065446  -0.026994  0  3.893108  0
C  C73  1  0.46145660  0.75096924  0.51714413  1  0  0.028217  0  3.628745  0  0  -0.021038  0  3.897282  0  0  -0.012222  0  3.90536  0  0  0.065341  -0.027145  0  3.893008  0
N  N74  1  0.48289006  0.26245709  0.60508712  1  0  -0.125645  0  3.384922  0  0  -0.068969  0  3.670797  0  0  -0.076322  0  3.684887  0  0  -0.208383  -0.065074  0  3.662348  0
N  N75  1  0.51710736  0.73754722  0.39491133  1  0  -0.125671  0  3.384571  0  0  -0.068972  0  3.670541  0  0  -0.076332  0  3.684644  0  0  -0.208344  -0.065076  0  3.662088  0
N  N76  1  0.29956377  0.14817420  0.51255233  1  0  -0.356891  0  3.234851  0  0  -0.287647  0  3.501983  0  0  -0.30539  0  3.518526  0  0  -0.312427  -0.275398  0  3.491114  0
N  N77  1  0.70043964  0.85182350  0.48744971  1  0  -0.356992  0  3.234682  0  0  -0.287701  0  3.501791  0  0  -0.305458  0  3.518338  0  0  -0.312439  -0.275454  0  3.490927  0
N  N78  1  0.55794591  0.32933611  0.65923126  1  0  -0.302196  0  3.337537  0  0  -0.250938  0  3.576363  0  0  -0.274289  0  3.591417  0  0  -0.281496  -0.235111  0  3.566271  0
N  N79  1  0.44206433  0.67066146  0.34076444  1  0  -0.301882  0  3.337282  0  0  -0.250819  0  3.576325  0  0  -0.274167  0  3.591386  0  0  -0.281501  -0.234987  0  3.566228  0
O  O80  1  0.23923449  0.01239279  0.85403650  1  0  -0.66409  0  2.001257  0  0  -0.590912  0  2.267346  0  0  -0.620887  0  2.253505  0  0  -0.347107  -0.569474  0  2.276713  0
O  O81  1  0.76077227  0.98761109  0.14596187  1  0  -0.664073  0  2.001087  0  0  -0.590852  0  2.267195  0  0  -0.620835  0  2.253369  0  0  -0.347122  -0.569419  0  2.276565  0
O  O82  1  0.02389192  0.01483468  0.77639724  1  0  -0.629038  0  1.918405  0  0  -0.577632  0  2.139143  0  0  -0.600747  0  2.130079  0  0  -0.32324  -0.56033  0  2.144724  0
O  O83  1  0.97610475  0.98517233  0.22361690  1  0  -0.629074  0  1.918221  0  0  -0.577646  0  2.139007  0  0  -0.600758  0  2.129941  0  0  -0.323217  -0.560344  0  2.144585  0
O  O84  1  0.35999206  0.28563666  0.85272587  1  0  -0.514588  0  1.978393  0  0  -0.459435  0  2.209123  0  0  -0.483049  0  2.203025  0  0  -0.258628  -0.443465  0  2.212962  0
O  O85  1  0.64000598  0.71438056  0.14725588  1  0  -0.514628  0  1.978449  0  0  -0.459457  0  2.209139  0  0  -0.483069  0  2.203059  0  0  -0.258636  -0.443487  0  2.212979  0
O  O86  1  0.25157833  0.50222772  0.55635103  1  0  -0.662966  0  1.977715  0  0  -0.618469  0  2.214672  0  0  -0.642614  0  2.206672  0  0  -0.335082  -0.601063  0  2.219317  0
O  O87  1  0.74842013  0.49777771  0.44364298  1  0  -0.662988  0  1.977775  0  0  -0.618478  0  2.214719  0  0  -0.642626  0  2.206722  0  0  -0.335014  -0.601074  0  2.219362  0
O  O88  1  0.08453888  0.34332527  0.70721410  1  0  -0.628104  0  2.044144  0  0  -0.548197  0  2.31042  0  0  -0.578163  0  2.296526  0  0  -0.319876  -0.527071  0  2.318596  0
O  O89  1  0.91546202  0.65668097  0.29278392  1  0  -0.628056  0  2.044101  0  0  -0.548191  0  2.31039  0  0  -0.578161  0  2.296509  0  0  -0.319901  -0.527065  0  2.318566  0
