# generated using pymatgen
data_ZnH5C9S2NO11
_symmetry_space_group_name_H-M   'P 1'
_cell_length_a   9.95153024
_cell_length_b   10.86279102
_cell_length_c   13.62087428
_cell_angle_alpha   88.32900789
_cell_angle_beta   98.39428163
_cell_angle_gamma   89.99726466
_symmetry_Int_Tables_number   1
_chemical_formula_structural   ZnH5C9S2NO11
_chemical_formula_sum   'Zn2 H10 C18 S4 N2 O22'
_cell_volume   1456.02791226
_cell_formula_units_Z   2
loop_
 _symmetry_equiv_pos_site_id
 _symmetry_equiv_pos_as_xyz
  1  'x, y, z'
loop_
 _atom_site_type_symbol
 _atom_site_label
 _atom_site_symmetry_multiplicity
 _atom_site_fract_x
 _atom_site_fract_y
 _atom_site_fract_z
 _atom_site_occupancy
 _atom_site_pbe_bader_charge
 _atom_site_pbe_bader_spin_density
 _atom_site_pbe_cm5_charge
 _atom_site_pbe_ddec_charge
 _atom_site_pbe_ddec_spin_density
 _atom_site_pbe_ddec_sum_bond_order
 _atom_site_pbe_magmom
Zn  Zn0  1  0.35710223  0.51686912  0.50952042  1  1.307846  0  0.694187  0.880693  0  2.368075  0
Zn  Zn1  1  0.64602936  0.48286070  0.50277727  1  1.317338  0  0.693242  0.885758  0  2.311667  0
H  H2  1  0.34183870  0.47914178  0.97055210  1  0.132875  0  0.137107  0.144789  0  0.930491  0
H  H3  1  0.86139207  0.78468079  0.54402172  1  0.131203  0  0.123241  0.075282  0  0.968207  0
H  H4  1  0.67943596  0.86994170  0.63604795  1  0.122367  0  0.118439  0.130705  0  0.982497  0
H  H5  1  0.46505640  0.92391305  0.45076514  1  0.131313  0  0.12497  0.151493  0  0.960943  0
H  H6  1  0.12007749  0.46457786  0.56253484  1  0.456242  0  0.3244  0.313022  0  0.894353  0
H  H7  1  0.75216571  0.37168633  0.27229115  1  0.687036  0  0.331991  0.412765  0  0.90194  0
H  H8  1  0.83918809  0.51027578  0.96589790  1  0.654261  0  0.364263  0.419826  0  0.807769  0
H  H9  1  0.90651423  0.05404996  0.71030317  1  0.634026  0  0.360519  0.415168  0  0.823272  0
H  H10  1  0.30804597  0.24414409  0.62490356  1  0.648729  0  0.304421  0.369186  0  0.969579  0
H  H11  1  0.07406147  0.81540922  0.45167102  1  0.124147  0  0.129298  0.082151  0  0.930294  0
C  C12  1  0.48979401  0.26150728  0.54587898  1  1.619712  0  0.225853  0.625237  0  4.149181  0
C  C13  1  0.52722847  0.73485517  0.49733045  1  1.555795  0  0.224339  0.652216  0  4.147529  0
C  C14  1  0.55474040  0.50862880  0.69472596  1  1.755639  0  0.222152  0.652138  0  4.25207  0
C  C15  1  0.57008478  0.50401123  0.80193610  1  0.151085  0  -0.013527  -0.115242  0  3.882612  0
C  C16  1  0.55526720  0.48418587  0.99186031  1  -0.091347  0  0.00841  -0.058749  0  4.024496  0
C  C17  1  0.43286210  0.47776384  0.02627877  1  0.191365  0  -0.032753  -0.016735  0  3.990143  0
C  C18  1  0.41883197  0.47209344  0.12658458  1  -0.49131  0  -0.025025  -0.014732  0  4.137299  0
C  C19  1  0.56683014  0.49440548  0.89101268  1  -0.401555  0  -0.034495  -0.053155  0  4.185723  0
C  C20  1  0.09983626  0.72513205  0.42172597  1  1.013138  0  0.138878  0.254218  0  3.834188  0
C  C21  1  0.88420033  0.69062854  0.57623877  1  1.006595  0  0.12297  0.260826  0  3.896326  0
C  C22  1  0.41633858  0.47194843  0.21574097  1  0.269269  0  -0.003447  -0.110413  0  3.853759  0
C  C23  1  0.61117200  0.92408280  0.58145449  1  0.023459  0  -0.078725  -0.073914  0  3.989111  0
C  C24  1  0.53380792  0.87023890  0.50549261  1  0.016436  0  -0.064257  -0.170349  0  3.819839  0
C  C25  1  0.61223787  0.05831583  0.58441736  1  -0.180451  0  0.017674  -0.010876  0  3.885958  0
C  C26  1  0.49875799  0.12839960  0.57933359  1  -0.086296  0  -0.013244  -0.251772  0  3.79538  0
C  C27  1  0.06570058  0.61145471  0.48273000  1  0.720565  0  0.183933  0.223843  0  3.866024  0
C  C28  1  0.92301476  0.59553027  0.50318322  1  0.678688  0  0.186316  0.197984  0  3.822412  0
C  C29  1  0.43974716  0.47833211  0.32245516  1  1.678094  0  0.230426  0.666422  0  4.223781  0
S  S30  1  0.91445976  0.40457343  0.38981285  1  3.414678  0  0.636269  1.259912  0  6.041491  0
S  S31  1  0.71084926  0.48992122  0.07858518  1  3.086737  0  0.567215  1.172094  0  5.931379  0
S  S32  1  0.78251951  0.11846122  0.57760438  1  3.042999  0  0.544814  1.140605  0  5.918642  0
S  S33  1  0.34265925  0.05573229  0.60859867  1  3.133904  0  0.525115  1.169264  0  6.052217  0
N  N34  1  0.15786259  0.53618375  0.52391209  1  -1.166989  0  -0.429948  -0.418666  0  3.217563  0
N  N35  1  0.84531525  0.50653407  0.47054721  1  -1.117003  0  -0.290985  -0.374769  0  3.201339  0
O  O36  1  0.38722777  0.32526273  0.56332157  1  -1.161057  0  -0.294924  -0.534081  0  2.334167  0
O  O37  1  0.99560726  0.32059043  0.45633281  1  -1.257881  0  -0.272341  -0.485925  0  2.140698  0
O  O38  1  0.78404069  0.33923164  0.34265938  1  -1.244723  0  -0.311177  -0.478912  0  2.267938  0
O  O39  1  0.73554671  0.61528518  0.10578166  1  -1.258845  0  -0.292479  -0.500896  0  2.083754  0
O  O40  1  0.70989644  0.39232291  0.15286712  1  -1.295677  0  -0.28331  -0.515429  0  2.228855  0
O  O41  1  0.82115041  0.44436803  0.01300361  1  -1.20277  0  -0.340508  -0.5128  0  2.133444  0
O  O42  1  0.80897012  0.09581962  0.47923903  1  -1.252058  0  -0.287764  -0.475072  0  2.130114  0
O  O43  1  0.81061220  0.23309364  0.62655915  1  -1.275908  0  -0.304404  -0.517063  0  2.169559  0
O  O44  1  0.86825752  0.01380880  0.64908375  1  -1.163534  0  -0.359348  -0.544843  0  2.142371  0
O  O45  1  0.25747166  0.03323932  0.51575393  1  -1.288842  0  -0.321054  -0.54075  0  2.101602  0
O  O46  1  0.37395669  0.95662192  0.68041406  1  -1.286106  0  -0.320363  -0.523887  0  2.108119  0
O  O47  1  0.58225478  0.30122500  0.49934303  1  -1.137732  0  -0.287622  -0.506084  0  2.359244  0
O  O48  1  0.28480656  0.16483798  0.66374295  1  -1.24535  0  -0.367947  -0.530365  0  2.166952  0
O  O49  1  0.14908801  0.71571069  0.34634100  1  -0.989049  0  -0.188764  -0.229196  0  2.122295  0
O  O50  1  0.89626432  0.66367718  0.66420360  1  -1.033172  0  -0.228461  -0.286633  0  2.104195  0
O  O51  1  0.34158370  0.45676668  0.37043596  1  -1.11857  0  -0.299258  -0.515249  0  2.27389  0
O  O52  1  0.56112523  0.50645491  0.35791944  1  -1.140885  0  -0.305925  -0.545189  0  2.312391  0
O  O53  1  0.40933573  0.69151965  0.47185233  1  -1.140941  0  -0.301575  -0.529015  0  2.305962  0
O  O54  1  0.63666118  0.67198518  0.51760198  1  -1.156563  0  -0.301293  -0.556568  0  2.358446  0
O  O55  1  0.43943260  0.54812431  0.65260838  1  -1.137679  0  -0.308932  -0.535591  0  2.276523  0
O  O56  1  0.65352221  0.47084329  0.65409929  1  -1.126269  0  -0.297594  -0.513485  0  2.286605  0
O  O57  1  0.96990259  0.48141430  0.31825966  1  -1.256978  0  -0.278997  -0.509196  0  2.144656  0
