# generated using pymatgen
data_Zn3H12C14(N4O5)2
_symmetry_space_group_name_H-M   'P 1'
_cell_length_a   8.01712376
_cell_length_b   9.40744310
_cell_length_c   15.52686389
_cell_angle_alpha   85.23992243
_cell_angle_beta   78.76495133
_cell_angle_gamma   64.77384790
_symmetry_Int_Tables_number   1
_chemical_formula_structural   Zn3H12C14(N4O5)2
_chemical_formula_sum   'Zn6 H24 C28 N16 O20'
_cell_volume   1039.06482093
_cell_formula_units_Z   2
loop_
 _symmetry_equiv_pos_site_id
 _symmetry_equiv_pos_as_xyz
  1  'x, y, z'
loop_
 _atom_site_type_symbol
 _atom_site_label
 _atom_site_symmetry_multiplicity
 _atom_site_fract_x
 _atom_site_fract_y
 _atom_site_fract_z
 _atom_site_occupancy
 _atom_site_hle17_bader_spin_density
 _atom_site_hle17_ddec_charge
 _atom_site_hle17_ddec_spin_density
 _atom_site_hle17_ddec_sum_bond_order
 _atom_site_hle17_magmom
 _atom_site_hse06_10hf_bader_spin_density
 _atom_site_hse06_10hf_ddec_charge
 _atom_site_hse06_10hf_ddec_spin_density
 _atom_site_hse06_10hf_ddec_sum_bond_order
 _atom_site_hse06_10hf_magmom
 _atom_site_hse06_bader_spin_density
 _atom_site_hse06_ddec_charge
 _atom_site_hse06_ddec_spin_density
 _atom_site_hse06_ddec_sum_bond_order
 _atom_site_hse06_magmom
 _atom_site_pbe_bader_spin_density
 _atom_site_pbe_cm5_charge
 _atom_site_pbe_ddec_charge
 _atom_site_pbe_ddec_spin_density
 _atom_site_pbe_ddec_sum_bond_order
 _atom_site_pbe_magmom
Zn  Zn0  1  0.06085528  0.87842140  0.24996646  1  0  1.028942  0  1.92051  0  0  0.843839  0  2.40686  0  0  0.884468  0  2.35659  0  0  0.720113  0.815388  0  2.440949  0
Zn  Zn1  1  0.93914415  0.12158032  0.75003444  1  0  1.029009  0  1.92054  0  0  0.843849  0  2.406891  0  0  0.884489  0  2.356622  0  0  0.720116  0.815399  0  2.440982  0
Zn  Zn2  1  0.60668207  0.64290756  0.50321363  1  0  1.032273  0  1.831408  0  0  0.851416  0  2.289308  0  0  0.898098  0  2.237306  0  0  0.698734  0.81871  0  2.32463  0
Zn  Zn3  1  0.75044422  0.64290738  0.99685407  1  0  1.033623  0  1.83059  0  0  0.852531  0  2.288894  0  0  0.899244  0  2.236772  0  0  0.699104  0.820059  0  2.323964  0
Zn  Zn4  1  0.39332049  0.35709299  0.49678767  1  0  1.032279  0  1.831401  0  0  0.851424  0  2.289281  0  0  0.898103  0  2.237279  0  0  0.698737  0.818718  0  2.324604  0
Zn  Zn5  1  0.24955455  0.35709317  0.00314566  1  0  1.03366  0  1.83057  0  0  0.852523  0  2.288879  0  0  0.899237  0  2.236756  0  0  0.69911  0.820047  0  2.323951  0
H  H6  1  0.03598004  0.78045987  0.60341436  1  0  0.092251  0  0.969503  0  0  0.102487  0  1.033082  0  0  0.106769  0  1.029373  0  0  0.106348  0.099034  0  1.036439  0
H  H7  1  0.18326217  0.78023946  0.89660358  1  0  0.091834  0  0.969663  0  0  0.102466  0  1.033014  0  0  0.106699  0  1.029324  0  0  0.106332  0.099299  0  1.035914  0
H  H8  1  0.96402136  0.21954303  0.39658565  1  0  0.092229  0  0.969495  0  0  0.102476  0  1.033067  0  0  0.106759  0  1.029356  0  0  0.106341  0.099023  0  1.036427  0
H  H9  1  0.81673710  0.21975757  0.10339563  1  0  0.091823  0  0.969685  0  0  0.102464  0  1.03303  0  0  0.106698  0  1.029339  0  0  0.106324  0.099296  0  1.035928  0
H  H10  1  0.50611611  0.90305016  0.36897826  1  0  0.368624  0  0.885526  0  0  0.349267  0  0.947215  0  0  0.35693  0  0.940535  0  0  0.313285  0.343763  0  0.952034  0
H  H11  1  0.59084743  0.90306332  0.13105939  1  0  0.369054  0  0.884396  0  0  0.349507  0  0.946394  0  0  0.357219  0  0.939626  0  0  0.31321  0.344046  0  0.951172  0
H  H12  1  0.49388459  0.09695157  0.63102315  1  0  0.368517  0  0.885671  0  0  0.349177  0  0.947315  0  0  0.356839  0  0.940643  0  0  0.313252  0.343673  0  0.952133  0
H  H13  1  0.40914947  0.09693840  0.86894111  1  0  0.369107  0  0.884378  0  0  0.349525  0  0.946416  0  0  0.357241  0  0.939646  0  0  0.313188  0.344065  0  0.951196  0
H  H14  1  0.34994607  0.96608040  0.29266403  1  0  0.353468  0  0.886499  0  0  0.337902  0  0.943672  0  0  0.345595  0  0.936761  0  0  0.310046  0.332384  0  0.948696  0
H  H15  1  0.68403350  0.96611001  0.20732722  1  0  0.35398  0  0.88614  0  0  0.338156  0  0.943444  0  0  0.345823  0  0.936581  0  0  0.310364  0.332639  0  0.948493  0
H  H16  1  0.65005454  0.03391897  0.70733751  1  0  0.353446  0  0.886571  0  0  0.337878  0  0.943749  0  0  0.345572  0  0.936837  0  0  0.310032  0.332359  0  0.948773  0
H  H17  1  0.31596418  0.03389524  0.79267368  1  0  0.353982  0  0.886243  0  0  0.338159  0  0.94353  0  0  0.345824  0  0.93667  0  0  0.310355  0.332641  0  0.94858  0
H  H18  1  0.13981891  0.55879678  0.35575640  1  0  0.103364  0  0.944963  0  0  0.114922  0  1.005728  0  0  0.117771  0  1.001494  0  0  0.137368  0.112681  0  1.00887  0
H  H19  1  0.30126869  0.55821870  0.14455588  1  0  0.103557  0  0.944665  0  0  0.114711  0  1.005637  0  0  0.117605  0  1.001332  0  0  0.137208  0.112474  0  1.008949  0
H  H20  1  0.86018052  0.44120495  0.64424450  1  0  0.103436  0  0.945022  0  0  0.114988  0  1.005779  0  0  0.117837  0  1.001546  0  0  0.137404  0.112746  0  1.008921  0
H  H21  1  0.69872810  0.44178068  0.85544603  1  0  0.103608  0  0.944541  0  0  0.114716  0  1.00558  0  0  0.117611  0  1.001273  0  0  0.137218  0.112477  0  1.008893  0
H  H22  1  0.96855996  0.43139185  0.41618920  1  0  0.423487  0  0.884943  0  0  0.387975  0  0.957356  0  0  0.399033  0  0.941309  0  0  0.285863  0.380286  0  0.968464  0
H  H23  1  0.60036895  0.43136604  0.08386912  1  0  0.422504  0  0.886351  0  0  0.38748  0  0.957858  0  0  0.398439  0  0.941926  0  0  0.285688  0.379776  0  0.969065  0
H  H24  1  0.03144007  0.56860870  0.58381105  1  0  0.423485  0  0.884951  0  0  0.387964  0  0.957379  0  0  0.399022  0  0.941331  0  0  0.285858  0.380274  0  0.968488  0
H  H25  1  0.39962659  0.56863334  0.91613098  1  0  0.422534  0  0.886313  0  0  0.387499  0  0.95784  0  0  0.398459  0  0.941907  0  0  0.28569  0.379795  0  0.969047  0
H  H26  1  0.81951380  0.47491217  0.35272878  1  0  0.411528  0  0.831788  0  0  0.398766  0  0.87911  0  0  0.406456  0  0.870585  0  0  0.316339  0.393152  0  0.885653  0
H  H27  1  0.70609568  0.47481348  0.14729841  1  0  0.412719  0  0.831585  0  0  0.399663  0  0.879468  0  0  0.407449  0  0.870722  0  0  0.316528  0.394288  0  0.885489  0
H  H28  1  0.18048889  0.52509073  0.64726981  1  0  0.411504  0  0.831808  0  0  0.398744  0  0.879127  0  0  0.406434  0  0.870603  0  0  0.316319  0.39313  0  0.88567  0
H  H29  1  0.29390476  0.52518120  0.85270080  1  0  0.412727  0  0.831606  0  0  0.399675  0  0.879477  0  0  0.407459  0  0.870735  0  0  0.31654  0.394299  0  0.8855  0
C  C30  1  0.79333901  0.81061924  0.50179040  1  0  0.648486  0  3.87414  0  0  0.593977  0  4.167285  0  0  0.627559  0  4.161033  0  0  0.206465  0.571863  0  4.169654  0
C  C31  1  0.39592623  0.81022113  0.99812241  1  0  0.648611  0  3.874025  0  0  0.594279  0  4.166595  0  0  0.627902  0  4.160308  0  0  0.206261  0.571598  0  4.170118  0
C  C32  1  0.20666356  0.18938131  0.49820961  1  0  0.648369  0  3.874293  0  0  0.593885  0  4.167414  0  0  0.627463  0  4.161168  0  0  0.2064  0.57177  0  4.169782  0
C  C33  1  0.60407617  0.18977472  0.00187656  1  0  0.648512  0  3.874138  0  0  0.594154  0  4.166719  0  0  0.627777  0  4.160436  0  0  0.206255  0.571475  0  4.170239  0
C  C34  1  0.02336099  0.87598571  0.55695474  1  0  -0.076623  0  3.715337  0  0  -0.114732  0  3.976256  0  0  -0.114657  0  3.993939  0  0  -0.08172  -0.11431  0  3.96394  0
C  C35  1  0.10048892  0.87582483  0.94306231  1  0  -0.075672  0  3.714568  0  0  -0.114495  0  3.975518  0  0  -0.114445  0  3.993317  0  0  -0.081307  -0.114467  0  3.963572  0
C  C36  1  0.97664031  0.12401484  0.44304539  1  0  -0.076653  0  3.715249  0  0  -0.114762  0  3.976162  0  0  -0.114691  0  3.993846  0  0  -0.081744  -0.114356  0  3.963832  0
C  C37  1  0.89951299  0.12417454  0.05693589  1  0  -0.075683  0  3.714492  0  0  -0.114505  0  3.97545  0  0  -0.114458  0  3.993251  0  0  -0.081303  -0.11447  0  3.963498  0
C  C38  1  0.87149626  0.03873886  0.44129354  1  0  -0.073439  0  3.721996  0  0  -0.060325  0  3.964688  0  0  -0.062954  0  3.982092  0  0  -0.009114  -0.058679  0  3.952923  0
C  C39  1  0.08996620  0.03864449  0.05860294  1  0  -0.073858  0  3.721663  0  0  -0.059972  0  3.963422  0  0  -0.062542  0  3.98081  0  0  -0.009428  -0.058669  0  3.951946  0
C  C40  1  0.12850320  0.96126287  0.55870542  1  0  -0.073329  0  3.721852  0  0  -0.060246  0  3.964564  0  0  -0.062881  0  3.981971  0  0  -0.009103  -0.058649  0  3.952859  0
C  C41  1  0.91003572  0.96135488  0.94139525  1  0  -0.073808  0  3.721689  0  0  -0.059891  0  3.963456  0  0  -0.062457  0  3.980839  0  0  -0.009371  -0.058585  0  3.951979  0
C  C42  1  0.89662298  0.91099537  0.49942080  1  0  -0.056328  0  3.729825  0  0  -0.046451  0  3.974381  0  0  -0.050597  0  3.99331  0  0  -0.00951  -0.043643  0  3.960868  0
C  C43  1  0.19232396  0.91074745  0.00054524  1  0  -0.056794  0  3.730752  0  0  -0.047085  0  3.975127  0  0  -0.051371  0  3.994188  0  0  -0.00944  -0.044234  0  3.96235  0
C  C44  1  0.10337959  0.08900518  0.50057985  1  0  -0.056198  0  3.729633  0  0  -0.046345  0  3.974223  0  0  -0.050487  0  3.993156  0  0  -0.009483  -0.043523  0  3.960723  0
C  C45  1  0.80768099  0.08924840  0.99945283  1  0  -0.056739  0  3.730731  0  0  -0.047052  0  3.975136  0  0  -0.051337  0  3.994199  0  0  -0.009467  -0.044204  0  3.962357  0
C  C46  1  0.36453357  0.76864913  0.36148829  1  0  0.614071  0  3.841199  0  0  0.563463  0  4.118019  0  0  0.588143  0  4.128315  0  0  0.329234  0.546821  0  4.110837  0
C  C47  1  0.86685625  0.76853665  0.13859509  1  0  0.61228  0  3.840641  0  0  0.562399  0  4.116123  0  0  0.587165  0  4.126336  0  0  0.329264  0.545591  0  4.108852  0
C  C48  1  0.63546831  0.23135024  0.63851248  1  0  0.614211  0  3.841309  0  0  0.563525  0  4.118192  0  0  0.588205  0  4.12849  0  0  0.329259  0.546884  0  4.111009  0
C  C49  1  0.13313449  0.23146978  0.86140578  1  0  0.612323  0  3.840654  0  0  0.562352  0  4.116189  0  0  0.587127  0  4.126405  0  0  0.329208  0.545546  0  4.108915  0
C  C50  1  0.23023425  0.61139644  0.36748363  1  0  0.235912  0  3.732593  0  0  0.173209  0  4.008105  0  0  0.189612  0  4.018611  0  0  0.144265  0.16224  0  4.000973  0
C  C51  1  0.15830566  0.61100922  0.13275751  1  0  0.235971  0  3.728364  0  0  0.1735  0  4.004021  0  0  0.189977  0  4.014372  0  0  0.144731  0.162795  0  3.997036  0
C  C52  1  0.76977078  0.38860176  0.63251560  1  0  0.235858  0  3.732717  0  0  0.173131  0  4.00822  0  0  0.189533  0  4.018727  0  0  0.144222  0.162162  0  4.00109  0
C  C53  1  0.84169320  0.38899368  0.86724274  1  0  0.235999  0  3.728256  0  0  0.173529  0  4.003927  0  0  0.190013  0  4.01428  0  0  0.144731  0.162824  0  3.996944  0
C  C54  1  0.74024045  0.09117081  0.37536258  1  0  0.694282  0  3.86409  0  0  0.6381  0  4.167895  0  0  0.673868  0  4.156322  0  0  0.222525  0.613387  0  4.175691  0
C  C55  1  0.16907052  0.09084599  0.12446166  1  0  0.697057  0  3.861024  0  0  0.641047  0  4.164364  0  0  0.676763  0  4.15266  0  0  0.223207  0.616679  0  4.171845  0
C  C56  1  0.25975713  0.90883209  0.62463844  1  0  0.694052  0  3.864343  0  0  0.637924  0  4.168076  0  0  0.673695  0  4.156504  0  0  0.222455  0.613224  0  4.175873  0
C  C57  1  0.83092953  0.90915456  0.87553730  1  0  0.697265  0  3.860723  0  0  0.641183  0  4.164169  0  0  0.676894  0  4.152469  0  0  0.223265  0.616814  0  4.171652  0
N  N58  1  0.43673844  0.65495632  0.41997296  1  0  -0.432481  0  3.133225  0  0  -0.362946  0  3.429444  0  0  -0.384969  0  3.441139  0  0  -0.28225  -0.348398  0  3.421552  0
N  N59  1  0.90833589  0.65486326  0.08010194  1  0  -0.433563  0  3.135675  0  0  -0.363655  0  3.430832  0  0  -0.385767  0  3.442589  0  0  -0.282447  -0.34891  0  3.422297  0
N  N60  1  0.56326403  0.34504188  0.58002846  1  0  -0.432589  0  3.133385  0  0  -0.363001  0  3.429574  0  0  -0.385026  0  3.441274  0  0  -0.282295  -0.348454  0  3.421683  0
N  N61  1  0.09166161  0.34513729  0.91989727  1  0  -0.433556  0  3.135862  0  0  -0.363564  0  3.430962  0  0  -0.385676  0  3.442723  0  0  -0.282411  -0.34882  0  3.422427  0
N  N62  1  0.41093317  0.88971578  0.33941952  1  0  -0.711865  0  3.076826  0  0  -0.67599  0  3.312329  0  0  -0.696729  0  3.307252  0  0  -0.580595  -0.661749  0  3.315754  0
N  N63  1  0.69938924  0.88969587  0.16060933  1  0  -0.711865  0  3.075809  0  0  -0.675806  0  3.310754  0  0  -0.696568  0  3.305628  0  0  -0.580595  -0.661422  0  3.31429  0
N  N64  1  0.58906742  0.11028359  0.66058267  1  0  -0.711712  0  3.07701  0  0  -0.675831  0  3.312538  0  0  -0.696571  0  3.307463  0  0  -0.580505  -0.661589  0  3.315961  0
N  N65  1  0.30061512  0.11030115  0.83938938  1  0  -0.711954  0  3.075655  0  0  -0.675868  0  3.310632  0  0  -0.696635  0  3.305503  0  0  -0.580583  -0.661484  0  3.314169  0
N  N66  1  0.23403218  0.74401133  0.32737237  1  0  -0.557934  0  3.227642  0  0  -0.470703  0  3.532364  0  0  -0.496006  0  3.537066  0  0  -0.383877  -0.453862  0  3.529037  0
N  N67  1  0.02193194  0.74374634  0.17280660  1  0  -0.557777  0  3.224843  0  0  -0.470646  0  3.529275  0  0  -0.495898  0  3.533924  0  0  -0.38418  -0.453275  0  3.525263  0
N  N68  1  0.76597226  0.25598804  0.67262751  1  0  -0.558011  0  3.227641  0  0  -0.470701  0  3.532329  0  0  -0.496007  0  3.537036  0  0  -0.383885  -0.453857  0  3.528991  0
N  N69  1  0.97806564  0.25625656  0.82719442  1  0  -0.557917  0  3.224986  0  0  -0.470689  0  3.529354  0  0  -0.495965  0  3.534018  0  0  -0.384184  -0.45332  0  3.525343  0
N  N70  1  0.34830799  0.55519642  0.42314459  1  0  -0.282893  0  3.259596  0  0  -0.219611  0  3.565548  0  0  -0.235855  0  3.579123  0  0  -0.266697  -0.209005  0  3.55638  0
N  N71  1  0.09644679  0.55490505  0.07704796  1  0  -0.282646  0  3.257954  0  0  -0.219926  0  3.56433  0  0  -0.236081  0  3.577766  0  0  -0.266451  -0.208766  0  3.554589  0
N  N72  1  0.65169389  0.44480296  0.57685619  1  0  -0.282924  0  3.25963  0  0  -0.219643  0  3.565561  0  0  -0.235887  0  3.579134  0  0  -0.266709  -0.209038  0  3.556392  0
N  N73  1  0.90355010  0.44509667  0.92295318  1  0  -0.282618  0  3.257982  0  0  -0.219922  0  3.564338  0  0  -0.236076  0  3.577771  0  0  -0.266449  -0.208764  0  3.5546  0
O  O74  1  0.66649742  0.84748384  0.45554587  1  0  -0.606279  0  2.0197  0  0  -0.538653  0  2.257897  0  0  -0.565915  0  2.24976  0  0  -0.300081  -0.519132  0  2.262319  0
O  O75  1  0.48610537  0.84705399  0.04427829  1  0  -0.605456  0  2.016989  0  0  -0.537964  0  2.255543  0  0  -0.56522  0  2.247372  0  0  -0.299723  -0.518974  0  2.260635  0
O  O76  1  0.33350447  0.15251554  0.54445490  1  0  -0.606265  0  2.019827  0  0  -0.538644  0  2.258012  0  0  -0.56589  0  2.249847  0  0  -0.300081  -0.519122  0  2.262435  0
O  O77  1  0.51389508  0.15294068  0.95572027  1  0  -0.60559  0  2.017077  0  0  -0.537983  0  2.255536  0  0  -0.565237  0  2.247353  0  0  -0.299732  -0.51898  0  2.260599  0
O  O78  1  0.83374720  0.68785401  0.55061939  1  0  -0.635073  0  1.998329  0  0  -0.560523  0  2.225983  0  0  -0.588295  0  2.21569  0  0  -0.312  -0.541269  0  2.231651  0
O  O79  1  0.47809757  0.68743745  0.94932381  1  0  -0.635092  0  1.999406  0  0  -0.560448  0  2.226018  0  0  -0.588275  0  2.215735  0  0  -0.312094  -0.541172  0  2.232698  0
O  O80  1  0.16625479  0.31214771  0.44938061  1  0  -0.634998  0  1.99828  0  0  -0.560474  0  2.225937  0  0  -0.588237  0  2.215637  0  0  -0.311946  -0.54122  0  2.231606  0
O  O81  1  0.52190158  0.31255723  0.05067681  1  0  -0.635008  0  1.999514  0  0  -0.560399  0  2.226168  0  0  -0.58822  0  2.21588  0  0  -0.312104  -0.54113  0  2.232865  0
O  O82  1  0.85878320  0.51917383  0.39507551  1  0  -0.81269  0  1.884316  0  0  -0.765533  0  2.078921  0  0  -0.78463  0  2.050802  0  0  -0.572352  -0.751981  0  2.098453  0
O  O83  1  0.62250227  0.51909532  0.10497643  1  0  -0.813685  0  1.885996  0  0  -0.766806  0  2.080608  0  0  -0.785871  0  2.052574  0  0  -0.572709  -0.753214  0  2.099649  0
O  O84  1  0.14121810  0.48082672  0.60492526  1  0  -0.812667  0  1.884336  0  0  -0.765509  0  2.078956  0  0  -0.784609  0  2.050838  0  0  -0.572327  -0.751957  0  2.098488  0
O  O85  1  0.37749514  0.48090288  0.89502290  1  0  -0.813723  0  1.885958  0  0  -0.76685  0  2.080596  0  0  -0.785912  0  2.052561  0  0  -0.57273  -0.753259  0  2.099637  0
O  O86  1  0.58450512  0.20676671  0.39144665  1  0  -0.595361  0  2.039505  0  0  -0.540863  0  2.299062  0  0  -0.566878  0  2.284983  0  0  -0.306473  -0.522593  0  2.308341  0
O  O87  1  0.20918046  0.20643872  0.10840446  1  0  -0.596813  0  2.038473  0  0  -0.542316  0  2.298044  0  0  -0.568264  0  2.283907  0  0  -0.306705  -0.524239  0  2.307285  0
O  O88  1  0.41549431  0.79323501  0.60855425  1  0  -0.595293  0  2.03955  0  0  -0.540812  0  2.299076  0  0  -0.566828  0  2.284996  0  0  -0.306476  -0.522542  0  2.308347  0
O  O89  1  0.79082019  0.79356065  0.89159385  1  0  -0.596949  0  2.038342  0  0  -0.542425  0  2.297951  0  0  -0.568372  0  2.283813  0  0  -0.30675  -0.524347  0  2.307188  0
O  O90  1  0.80098783  0.02231361  0.29985573  1  0  -0.651215  0  2.06407  0  0  -0.57684  0  2.338166  0  0  -0.604466  0  2.319957  0  0  -0.325962  -0.557559  0  2.350308  0
O  O91  1  0.17737357  0.02183228  0.19992356  1  0  -0.652511  0  2.062527  0  0  -0.578799  0  2.337361  0  0  -0.60637  0  2.319069  0  0  -0.326753  -0.559441  0  2.349351  0
O  O92  1  0.19900985  0.97769164  0.70014452  1  0  -0.651136  0  2.064225  0  0  -0.576763  0  2.338291  0  0  -0.604385  0  2.320069  0  0  -0.325888  -0.557481  0  2.350426  0
O  O93  1  0.82262885  0.97816357  0.80007346  1  0  -0.652578  0  2.062442  0  0  -0.57884  0  2.337313  0  0  -0.60641  0  2.319019  0  0  -0.326769  -0.559484  0  2.349304  0
