# generated using pymatgen
data_CoH7C7N5O2
_symmetry_space_group_name_H-M   'P 1'
_cell_length_a   15.13947316
_cell_length_b   15.13996793
_cell_length_c   15.37574497
_cell_angle_alpha   119.49471200
_cell_angle_beta   119.49299910
_cell_angle_gamma   89.99899254
_symmetry_Int_Tables_number   1
_chemical_formula_structural   CoH7C7N5O2
_chemical_formula_sum   'Co8 H56 C56 N40 O16'
_cell_volume   2529.72107223
_cell_formula_units_Z   8
loop_
 _symmetry_equiv_pos_site_id
 _symmetry_equiv_pos_as_xyz
  1  'x, y, z'
loop_
 _atom_site_type_symbol
 _atom_site_label
 _atom_site_symmetry_multiplicity
 _atom_site_fract_x
 _atom_site_fract_y
 _atom_site_fract_z
 _atom_site_occupancy
 _atom_site_pbe_bader_charge
 _atom_site_pbe_bader_spin_density
 _atom_site_pbe_cm5_charge
 _atom_site_pbe_ddec_charge
 _atom_site_pbe_ddec_spin_density
 _atom_site_pbe_ddec_sum_bond_order
 _atom_site_pbe_magmom
Co  Co0  1  0.91057867  0.43744124  0.90363706  1  1.14893  2.574924  0.635048  0.667264  2.788343  2.742477  2.559
Co  Co1  1  0.99306331  0.96619969  0.90361160  1  1.146762  2.575018  0.635142  0.667466  2.788455  2.742677  2.559
Co  Co2  1  0.43738133  0.99311387  0.40355626  1  1.149817  2.574644  0.634985  0.667348  2.788147  2.743111  2.558
Co  Co3  1  0.96620316  0.91047784  0.40359844  1  1.149  2.574866  0.634979  0.667404  2.78829  2.743059  2.559
Co  Co4  1  0.08961095  0.56266666  0.09649505  1  1.149212  2.574782  0.634978  0.667123  2.788177  2.742879  2.559
Co  Co5  1  0.00688113  0.03383570  0.09648047  1  1.146113  2.574727  0.634987  0.667174  2.788047  2.742531  2.558
Co  Co6  1  0.56258581  0.00693074  0.59635004  1  1.148637  2.574836  0.634927  0.66734  2.788445  2.7428  2.559
Co  Co7  1  0.03380284  0.08945955  0.59640226  1  1.1486  2.574802  0.634846  0.667138  2.788276  2.743119  2.559
H  H8  1  0.89745622  0.21343615  0.67731955  1  0.170436  0.00067  0.129699  0.097409  -5.5e-05  1.022073  0.001
H  H9  1  0.77982464  0.96385376  0.67729795  1  0.135701  0.000671  0.12969  0.097438  -5.5e-05  1.021917  0.001
H  H10  1  0.21336963  0.77982938  0.17729644  1  0.173011  0.000674  0.129742  0.097436  -5.4e-05  1.022063  0.001
H  H11  1  0.96392950  0.89746222  0.17727028  1  0.178552  0.000672  0.12976  0.097491  -5.4e-05  1.022007  0.001
H  H12  1  0.10250911  0.78660802  0.32269467  1  0.170551  0.000672  0.129755  0.097445  -5.4e-05  1.022203  0.001
H  H13  1  0.22017548  0.03608639  0.32268467  1  0.135081  0.000672  0.129751  0.097462  -5.4e-05  1.022146  0.001
H  H14  1  0.78661412  0.22020150  0.82271965  1  0.172899  0.000672  0.129738  0.097527  -5.5e-05  1.021769  0.001
H  H15  1  0.03610698  0.10252326  0.82269773  1  0.178088  0.000673  0.129713  0.09749  -5.4e-05  1.021747  0.001
H  H16  1  0.33445879  0.55027575  0.19536052  1  0.104844  0.00094  0.12502  0.073954  0.000231  0.971152  0.0
H  H17  1  0.86090022  0.14512584  0.19537229  1  0.101202  0.000947  0.125002  0.073935  0.000231  0.971305  0.0
H  H18  1  0.55030451  0.86092425  0.69534167  1  0.105483  0.000941  0.124899  0.073929  0.000231  0.97104  0.0
H  H19  1  0.14501449  0.33437809  0.69533106  1  0.071634  0.000955  0.124833  0.073879  0.000231  0.97116  0.0
H  H20  1  0.66559333  0.44966451  0.80462140  1  0.103528  0.00094  0.12493  0.07404  0.000231  0.97136  0.0
H  H21  1  0.13902747  0.85497012  0.80461777  1  0.101062  0.000946  0.124959  0.074144  0.000231  0.971419  0.0
H  H22  1  0.44976942  0.13914267  0.30467455  1  0.10494  0.000941  0.124979  0.073948  0.000231  0.971148  0.0
H  H23  1  0.85486564  0.66550054  0.30465870  1  0.072445  0.000952  0.124944  0.073921  0.000231  0.971388  0.0
H  H24  1  0.39268021  0.27741638  0.95835599  1  0.44609  0.000186  0.316439  0.310893  0.000117  0.931986  0.0
H  H25  1  0.56566550  0.18095623  0.95834825  1  0.446175  0.000187  0.316382  0.310851  0.000117  0.931875  0.0
H  H26  1  0.27744784  0.56568961  0.45838008  1  0.443929  0.000188  0.31639  0.310808  0.000117  0.931932  0.0
H  H27  1  0.18091427  0.39268839  0.45836862  1  0.446318  0.000187  0.316427  0.31095  0.000117  0.931832  0.0
H  H28  1  0.60731980  0.72255439  0.04164699  1  0.445786  0.000187  0.316487  0.31094  0.000117  0.931961  0.0
H  H29  1  0.43431660  0.81909268  0.04162819  1  0.446581  0.000187  0.316503  0.311002  0.000117  0.931822  0.0
H  H30  1  0.72263132  0.43437918  0.54167817  1  0.442814  0.000189  0.316439  0.311052  0.000117  0.931723  0.0
H  H31  1  0.81902578  0.60729008  0.54166057  1  0.445381  0.000188  0.316387  0.310968  0.000117  0.931976  0.0
H  H32  1  0.27084999  0.18355348  0.81669181  1  0.541954  0.000283  0.29734  0.3179  0.000214  1.01014  0.0
H  H33  1  0.54583724  0.13312668  0.81667694  1  0.526609  0.00028  0.297321  0.317867  0.000214  1.010153  0.0
H  H34  1  0.18357176  0.54584687  0.31670389  1  0.531221  0.000284  0.297211  0.317761  0.000213  1.010329  0.0
H  H35  1  0.13310504  0.27084508  0.31668846  1  0.539023  0.00028  0.297175  0.317781  0.000213  1.010248  0.0
H  H36  1  0.72916603  0.81637452  0.18329304  1  0.540639  0.000284  0.297368  0.317926  0.000213  1.010159  0.0
H  H37  1  0.45412403  0.86690925  0.18327842  1  0.527479  0.000279  0.297411  0.317945  0.000213  1.009947  0.0
H  H38  1  0.81649456  0.45422743  0.68335990  1  0.53108  0.000284  0.297281  0.317833  0.000213  1.010094  0.0
H  H39  1  0.86683268  0.72910877  0.68333763  1  0.539987  0.000281  0.297336  0.317763  0.000214  1.010309  0.0
H  H40  1  0.97544240  0.59512819  0.74163473  1  0.048864  0.002337  0.093984  0.146416  0.000932  1.003139  0.001
H  H41  1  0.76620710  0.64655414  0.74162674  1  0.079005  0.002297  0.093985  0.146336  0.000932  1.003267  0.001
H  H42  1  0.59507013  0.76621340  0.24157086  1  0.032647  0.002357  0.09386  0.146134  0.000932  1.003102  0.001
H  H43  1  0.64650753  0.97535554  0.24157143  1  0.050861  0.002331  0.093826  0.146072  0.000933  1.003283  0.001
H  H44  1  0.02465432  0.40494836  0.25839119  1  0.046647  0.00234  0.093974  0.146316  0.000933  1.003132  0.001
H  H45  1  0.23374415  0.35347706  0.25840653  1  0.079155  0.0023  0.09387  0.146206  0.000933  1.002897  0.001
H  H46  1  0.40491306  0.23382913  0.75842886  1  0.032856  0.002355  0.093974  0.14635  0.000931  1.003137  0.001
H  H47  1  0.35350391  0.02456892  0.75840744  1  0.052059  0.002327  0.093944  0.146387  0.000932  1.003023  0.001
H  H48  1  0.11655589  0.63156169  0.84713852  1  0.071895  0.000344  0.106177  0.16694  7e-05  0.970698  0.0
H  H49  1  0.73057135  0.71558149  0.84711383  1  0.071476  0.000341  0.106201  0.167005  7e-05  0.970782  0.0
H  H50  1  0.63150278  0.73057536  0.34706069  1  0.067258  0.000341  0.105993  0.166583  6.8e-05  0.970634  0.0
H  H51  1  0.71558682  0.11647919  0.34705552  1  0.073436  0.000335  0.10599  0.166635  6.7e-05  0.97052  0.0
H  H52  1  0.88355285  0.36854305  0.15291254  1  0.072553  0.000342  0.105987  0.166732  6.9e-05  0.970876  0.0
H  H53  1  0.26935930  0.28438019  0.15290970  1  0.071947  0.000338  0.105981  0.166725  6.9e-05  0.971037  0.0
H  H54  1  0.36844891  0.26943997  0.65290364  1  0.06742  0.000345  0.106116  0.1669  7e-05  0.97065  0.0
H  H55  1  0.28446531  0.88342797  0.65288187  1  0.072816  0.000341  0.106242  0.167078  7e-05  0.97069  0.0
H  H56  1  0.04661731  0.72027636  0.88612198  1  0.091716  -0.000419  0.101312  0.162856  -0.000553  1.011675  0.0
H  H57  1  0.83950273  0.66587140  0.88610373  1  0.0737  -0.000422  0.101362  0.162919  -0.000554  1.011669  0.0
H  H58  1  0.72024766  0.83945540  0.38604382  1  0.083103  -0.000423  0.101374  0.162921  -0.000553  1.011823  0.0
H  H59  1  0.66580943  0.04658005  0.38603796  1  0.0684  -0.000417  0.101362  0.162938  -0.000551  1.011919  0.0
H  H60  1  0.95342496  0.27979668  0.11392689  1  0.092357  -0.000417  0.101396  0.162929  -0.000552  1.011909  0.0
H  H61  1  0.16049565  0.33413689  0.11391935  1  0.073192  -0.00042  0.101373  0.162946  -0.000552  1.011888  0.0
H  H62  1  0.27975933  0.16048280  0.61389428  1  0.083174  -0.000425  0.101241  0.162795  -0.000555  1.011728  0.0
H  H63  1  0.33412071  0.95337636  0.61386951  1  0.067973  -0.000423  0.101295  0.16289  -0.000556  1.011635  0.0
C  C64  1  0.97875158  0.25734046  0.75726902  1  0.950256  -0.004068  0.144487  0.200526  -0.00514  3.920209  -0.003
C  C65  1  0.77849954  0.99991505  0.75726357  1  0.992128  -0.004033  0.1445  0.200484  -0.005141  3.920317  -0.003
C  C66  1  0.25732931  0.77853248  0.25726847  1  0.954394  -0.004051  0.144472  0.200672  -0.005143  3.920342  -0.003
C  C67  1  0.99994533  0.97872795  0.25725915  1  0.94622  -0.00407  0.144508  0.200707  -0.005145  3.920511  -0.003
C  C68  1  0.02123489  0.74267798  0.24273857  1  0.950812  -0.004069  0.144356  0.200466  -0.005145  3.9212  -0.003
C  C69  1  0.22150174  0.00006686  0.24273778  1  0.992304  -0.004022  0.144369  0.200494  -0.005133  3.921034  -0.003
C  C70  1  0.74268557  0.22152714  0.74275486  1  0.953346  -0.00406  0.144454  0.200488  -0.005157  3.920084  -0.003
C  C71  1  0.00007307  0.02121811  0.74274627  1  0.946709  -0.004086  0.144432  0.200419  -0.005164  3.920281  -0.003
C  C72  1  0.11341043  0.37803857  0.93586128  1  0.974101  0.002549  0.200682  0.280147  3e-06  4.14288  0.002
C  C73  1  0.82244572  0.05783764  0.93586555  1  0.96532  0.002644  0.200559  0.279842  4e-06  4.142742  0.002
C  C74  1  0.37803262  0.82250273  0.43585539  1  0.990723  0.002613  0.200766  0.280315  1e-05  4.143106  0.002
C  C75  1  0.05783529  0.11333354  0.43584701  1  0.98929  0.002508  0.20073  0.280209  3e-06  4.143185  0.002
C  C76  1  0.88663908  0.62195498  0.06413894  1  0.974573  0.002549  0.200892  0.280436  1.2e-05  4.143643  0.002
C  C77  1  0.17749477  0.94218462  0.06413465  1  0.966847  0.002645  0.200899  0.280318  1.1e-05  4.143614  0.002
C  C78  1  0.62199384  0.17757366  0.56415432  1  0.992381  0.0026  0.200747  0.280204  -6e-06  4.142294  0.002
C  C79  1  0.94216304  0.88656081  0.56414892  1  0.988045  0.002502  0.200765  0.280294  1e-06  4.141961  0.002
C  C80  1  0.28075264  0.47861608  0.10356027  1  1.083548  0.005302  0.166721  0.251456  0.003466  4.048696  0.004
C  C81  1  0.82281215  0.12497784  0.10357250  1  1.087204  0.0053  0.166559  0.251282  0.003467  4.048935  0.004
C  C82  1  0.47864724  0.82283301  0.60353302  1  1.093057  0.005304  0.166653  0.251268  0.003479  4.048294  0.004
C  C83  1  0.12487498  0.28068274  0.60352396  1  1.116621  0.005279  0.166693  0.251268  0.003476  4.048214  0.004
C  C84  1  0.71929092  0.52132448  0.89642596  1  1.085412  0.005315  0.166599  0.251125  0.003475  4.0485  0.004
C  C85  1  0.17713269  0.87510061  0.89641840  1  1.089041  0.005305  0.166493  0.250884  0.003473  4.048854  0.004
C  C86  1  0.52140736  0.17720385  0.39646180  1  1.094442  0.005283  0.166466  0.25125  0.003467  4.048372  0.004
C  C87  1  0.87502736  0.71924038  0.39644633  1  1.114256  0.005279  0.16649  0.251242  0.003471  4.048935  0.004
C  C88  1  0.26290480  0.32138178  0.94148398  1  1.050224  0.001826  0.234701  0.408891  0.000926  4.145659  0.001
C  C89  1  0.67858226  0.12012541  0.94149813  1  1.052563  0.001809  0.234711  0.408932  0.000926  4.145783  0.001
C  C90  1  0.32143130  0.67860883  0.44150985  1  1.059909  0.00182  0.234933  0.409486  0.000929  4.144881  0.001
C  C91  1  0.12008679  0.26289555  0.44151409  1  1.04202  0.001831  0.235033  0.409689  0.000928  4.144725  0.001
C  C92  1  0.73709577  0.67855815  0.05848798  1  1.050021  0.001837  0.235006  0.409729  0.000933  4.144811  0.001
C  C93  1  0.32138547  0.87992384  0.05848346  1  1.052574  0.001817  0.235019  0.409786  0.000933  4.144632  0.001
C  C94  1  0.67863778  0.32147338  0.55854664  1  1.059502  0.001822  0.234551  0.408576  0.000929  4.145515  0.001
C  C95  1  0.87988998  0.73707441  0.55854587  1  1.040793  0.001837  0.234463  0.408533  0.000932  4.145538  0.001
C  C96  1  0.15105678  0.30276984  0.87481657  1  0.400886  0.006926  0.071996  -0.046781  0.004154  4.006334  0.006
C  C97  1  0.72375240  0.07205736  0.87481630  1  0.433244  0.006925  0.072003  -0.046674  0.004155  4.006117  0.006
C  C98  1  0.30279334  0.72379528  0.37483733  1  0.374318  0.006994  0.071818  -0.047144  0.004157  4.005985  0.006
C  C99  1  0.07205977  0.15103395  0.37483983  1  0.397356  0.006939  0.071802  -0.047132  0.004159  4.00579  0.006
C  C100  1  0.84895294  0.69719227  0.12516085  1  0.400879  0.006935  0.071995  -0.047002  0.004158  4.006125  0.006
C  C101  1  0.27619881  0.92796311  0.12515160  1  0.432498  0.006932  0.072171  -0.046706  0.004158  4.006251  0.006
C  C102  1  0.69726034  0.27629146  0.62521569  1  0.373479  0.006989  0.072136  -0.046534  0.004152  4.006504  0.006
C  C103  1  0.92795761  0.84891615  0.62521861  1  0.398203  0.006931  0.07227  -0.04648  0.004151  4.006455  0.006
C  C104  1  0.02127336  0.58624052  0.89405929  1  1.541073  -0.008215  0.220386  0.681858  -0.012015  4.093108  -0.007
C  C105  1  0.87278400  0.80783728  0.89405344  1  1.542542  -0.008114  0.220381  0.681725  -0.012011  4.093337  -0.007
C  C106  1  0.58620386  0.87282604  0.39401446  1  1.549774  -0.008212  0.220392  0.681886  -0.01204  4.092411  -0.007
C  C107  1  0.80781346  0.02115989  0.39399178  1  1.555006  -0.008177  0.220271  0.681678  -0.012029  4.092699  -0.007
C  C108  1  0.97879974  0.41379918  0.10594882  1  1.548649  -0.008192  0.22033  0.681897  -0.012009  4.092919  -0.007
C  C109  1  0.12714839  0.19215110  0.10595441  1  1.562127  -0.008192  0.220266  0.681751  -0.012019  4.092851  -0.007
C  C110  1  0.41380797  0.12721150  0.60595376  1  1.549344  -0.008221  0.220416  0.681744  -0.012046  4.092649  -0.007
C  C111  1  0.19213525  0.97869935  0.60592791  1  1.551915  -0.008193  0.220644  0.682143  -0.012056  4.092259  -0.007
C  C112  1  0.04009575  0.63528168  0.83753517  1  -0.089354  0.009443  -0.242175  -0.514982  0.005217  3.877764  0.007
C  C113  1  0.79742509  0.70227443  0.83750811  1  -0.105127  0.009495  -0.242196  -0.514916  0.005217  3.87792  0.007
C  C114  1  0.63525050  0.79745212  0.33748498  1  -0.066346  0.009449  -0.241877  -0.514297  0.005218  3.876924  0.007
C  C115  1  0.70224456  0.04002360  0.33747698  1  -0.071455  0.009455  -0.2418  -0.514237  0.005218  3.877072  0.007
C  C116  1  0.95999092  0.36479651  0.16250123  1  -0.088793  0.009441  -0.24204  -0.514797  0.005219  3.878287  0.007
C  C117  1  0.20250901  0.29771025  0.16248720  1  -0.125546  0.009569  -0.241891  -0.514636  0.005218  3.877778  0.007
C  C118  1  0.36476933  0.20258397  0.66252592  1  -0.067179  0.009454  -0.24191  -0.514633  0.00522  3.876884  0.007
C  C119  1  0.29773860  0.95990001  0.66250023  1  -0.070543  0.009455  -0.24211  -0.515072  0.005218  3.876985  0.007
N  N120  1  0.00486984  0.34862335  0.86196295  1  -1.237102  0.069876  -0.364937  -0.400856  0.036569  3.560945  0.062
N  N121  1  0.85707973  0.01333820  0.86195436  1  -1.233246  0.069776  -0.364937  -0.400729  0.036572  3.560758  0.062
N  N122  1  0.34859066  0.85714386  0.36195455  1  -1.235773  0.069771  -0.364812  -0.401063  0.036563  3.560714  0.062
N  N123  1  0.01337096  0.00479154  0.36194337  1  -1.250326  0.069859  -0.364844  -0.40114  0.036586  3.560846  0.062
N  N124  1  0.99517684  0.65141202  0.13806729  1  -1.238449  0.069823  -0.364806  -0.400987  0.036541  3.561237  0.062
N  N125  1  0.14288475  0.98665226  0.13805880  1  -1.2334  0.069713  -0.364884  -0.401085  0.036534  3.561178  0.062
N  N126  1  0.65142012  0.14292908  0.63805007  1  -1.235619  0.069792  -0.364938  -0.401041  0.036586  3.56054  0.062
N  N127  1  0.98663845  0.99510444  0.63804377  1  -1.248163  0.069818  -0.365019  -0.401202  0.036563  3.56056  0.062
N  N128  1  0.17558529  0.46725492  0.04971663  1  -1.275232  0.072488  -0.357867  -0.367849  0.039342  3.603532  0.054
N  N129  1  0.87413161  0.08247035  0.04972382  1  -1.272181  0.072409  -0.357818  -0.36779  0.039336  3.603595  0.054
N  N130  1  0.46726087  0.87418652  0.54970899  1  -1.286168  0.072502  -0.357758  -0.367827  0.039357  3.602265  0.054
N  N131  1  0.08244472  0.17549818  0.54968868  1  -1.272055  0.072546  -0.357756  -0.367788  0.039349  3.602561  0.054
N  N132  1  0.82447078  0.53273394  0.95028528  1  -1.274295  0.072514  -0.357893  -0.367871  0.039361  3.602843  0.054
N  N133  1  0.12581243  0.91754770  0.95027856  1  -1.273344  0.072474  -0.357868  -0.367792  0.039369  3.602713  0.054
N  N134  1  0.53277715  0.12587253  0.45029370  1  -1.28608  0.072491  -0.357831  -0.367896  0.039347  3.603342  0.054
N  N135  1  0.91750730  0.82440420  0.45027681  1  -1.270472  0.072541  -0.357731  -0.367866  0.039358  3.603125  0.054
N  N136  1  0.32531221  0.41143473  0.05637920  1  -1.217477  0.015071  -0.358838  -0.448197  0.007194  3.273114  0.011
N  N137  1  0.73106874  0.14498642  0.05639677  1  -1.245262  0.015105  -0.358763  -0.448156  0.007193  3.273146  0.011
N  N138  1  0.41150384  0.73107980  0.55637287  1  -1.22491  0.015077  -0.35863  -0.448042  0.007194  3.273615  0.011
N  N139  1  0.14487213  0.32528081  0.55637474  1  -1.212636  0.015062  -0.358684  -0.448057  0.007191  3.273572  0.011
N  N140  1  0.67470602  0.58848018  0.94359729  1  -1.219256  0.015101  -0.358726  -0.448239  0.007207  3.273012  0.011
N  N141  1  0.26888296  0.85511684  0.94359501  1  -1.245956  0.015125  -0.358635  -0.448133  0.007202  3.273191  0.011
N  N142  1  0.58856952  0.26896345  0.44363721  1  -1.224771  0.015082  -0.358811  -0.448198  0.007198  3.272331  0.011
N  N143  1  0.85504201  0.67466913  0.44363055  1  -1.211647  0.01508  -0.358781  -0.448165  0.0072  3.272508  0.011
N  N144  1  0.06252555  0.22574606  0.75899313  1  -1.185994  0.07604  -0.349002  -0.314945  0.041301  3.451949  0.061
N  N145  1  0.69644787  0.03324039  0.75897689  1  -1.187972  0.076046  -0.348973  -0.315071  0.041313  3.451858  0.061
N  N146  1  0.22575658  0.69648795  0.25899596  1  -1.185719  0.076082  -0.349191  -0.314841  0.041338  3.452679  0.061
N  N147  1  0.03323866  0.06249960  0.25898612  1  -1.188897  0.076147  -0.349217  -0.314918  0.041357  3.452608  0.061
N  N148  1  0.93746294  0.77424040  0.24102724  1  -1.186103  0.076063  -0.349225  -0.315046  0.041313  3.452195  0.061
N  N149  1  0.30354909  0.96677359  0.24100695  1  -1.188846  0.07601  -0.34935  -0.315234  0.041294  3.45265  0.061
N  N150  1  0.77427116  0.30357130  0.74102460  1  -1.185507  0.076075  -0.34906  -0.315032  0.041334  3.452721  0.061
N  N151  1  0.96675449  0.93744701  0.74101664  1  -1.189658  0.076093  -0.349077  -0.314897  0.041327  3.452957  0.061
N  N152  1  0.31272366  0.25647068  0.89926929  1  -1.299932  0.007301  -0.566397  -0.607458  0.003555  3.346055  0.005
N  N153  1  0.58653702  0.14279404  0.89926109  1  -1.293774  0.007305  -0.566389  -0.607433  0.003559  3.345913  0.005
N  N154  1  0.25651466  0.58656120  0.39928537  1  -1.287864  0.007307  -0.566621  -0.607824  0.003561  3.345331  0.005
N  N155  1  0.14277406  0.31271841  0.39929019  1  -1.295465  0.007316  -0.566655  -0.608061  0.00356  3.345154  0.005
N  N156  1  0.68727567  0.74346390  0.10070773  1  -1.29739  0.007332  -0.566899  -0.6081  0.003571  3.345828  0.005
N  N157  1  0.41342170  0.85722713  0.10069307  1  -1.294083  0.007319  -0.567009  -0.608299  0.003566  3.345332  0.005
N  N158  1  0.74355197  0.41353320  0.60078259  1  -1.287399  0.007308  -0.56635  -0.607562  0.003562  3.345121  0.005
N  N159  1  0.85720193  0.68724291  0.60076829  1  -1.296405  0.007325  -0.566284  -0.607355  0.003565  3.345723  0.005
O  O160  1  0.93315459  0.51145333  0.83081505  1  -1.164893  0.083549  -0.303588  -0.540741  0.043573  2.39004  0.074
O  O161  1  0.89766559  0.81941057  0.83082403  1  -1.162647  0.083592  -0.303646  -0.540818  0.043591  2.390126  0.074
O  O162  1  0.51140431  0.89770532  0.33080482  1  -1.169915  0.083612  -0.303529  -0.540758  0.043581  2.390164  0.074
O  O163  1  0.81940258  0.93307492  0.33075945  1  -1.16902  0.083585  -0.303502  -0.540701  0.043569  2.390245  0.074
O  O164  1  0.06688820  0.48859798  0.16918547  1  -1.166771  0.083552  -0.303553  -0.540693  0.043569  2.390156  0.074
O  O165  1  0.10230332  0.18061768  0.16920707  1  -1.162821  0.083536  -0.303463  -0.540567  0.04356  2.390292  0.074
O  O166  1  0.48860042  0.10231978  0.66916211  1  -1.169162  0.08363  -0.303619  -0.540776  0.043593  2.390661  0.074
O  O167  1  0.18055968  0.06680344  0.66913372  1  -1.168076  0.08365  -0.303636  -0.540846  0.043605  2.390609  0.074
O  O168  1  0.09393755  0.62192242  0.00330444  1  -1.154597  0.082619  -0.301002  -0.524553  0.042562  2.357431  0.075
O  O169  1  0.90939235  0.88137724  0.00330464  1  -1.154979  0.082538  -0.300961  -0.524431  0.042565  2.357742  0.075
O  O170  1  0.62188094  0.90943280  0.50326232  1  -1.152097  0.08266  -0.301049  -0.524563  0.0426  2.357569  0.075
O  O171  1  0.88138242  0.09378348  0.50323910  1  -1.161473  0.082554  -0.300993  -0.524493  0.042582  2.357534  0.075
O  O172  1  0.90614532  0.37809382  0.99669692  1  -1.159729  0.082673  -0.300927  -0.52441  0.042596  2.357151  0.075
O  O173  1  0.09054452  0.11858714  0.99669833  1  -1.154409  0.082605  -0.300978  -0.524466  0.042597  2.357314  0.075
O  O174  1  0.37813444  0.09062390  0.49670269  1  -1.151933  0.08265  -0.301055  -0.524515  0.042595  2.357594  0.075
O  O175  1  0.11854526  0.90602486  0.49668075  1  -1.160345  0.082604  -0.301245  -0.524654  0.042613  2.357426  0.075
