# generated using pymatgen
data_HgH3C5I2Br2N
_symmetry_space_group_name_H-M   'P 1'
_cell_length_a   4.28967703
_cell_length_b   15.80937692
_cell_length_c   18.58692709
_cell_angle_alpha   112.24186899
_cell_angle_beta   96.61549250
_cell_angle_gamma   97.78473649
_symmetry_Int_Tables_number   1
_chemical_formula_structural   HgH3C5I2Br2N
_chemical_formula_sum   'Hg4 H12 C20 I8 Br8 N4'
_cell_volume   1136.76354895
_cell_formula_units_Z   4
loop_
 _symmetry_equiv_pos_site_id
 _symmetry_equiv_pos_as_xyz
  1  'x, y, z'
loop_
 _atom_site_type_symbol
 _atom_site_label
 _atom_site_symmetry_multiplicity
 _atom_site_fract_x
 _atom_site_fract_y
 _atom_site_fract_z
 _atom_site_occupancy
 _atom_site_pbe_bader_charge
 _atom_site_pbe_bader_spin_density
 _atom_site_pbe_cm5_charge
 _atom_site_pbe_ddec_charge
 _atom_site_pbe_ddec_spin_density
 _atom_site_pbe_ddec_sum_bond_order
 _atom_site_pbe_magmom
Hg  Hg0  1  0.03806603  0.72693161  0.51805227  1  0.454157  0  0.327126  0.340429  0  2.745254  0
Hg  Hg1  1  0.29273289  0.77303348  0.98198512  1  0.452532  0  0.327345  0.34041  0  2.746196  0
Hg  Hg2  1  0.96192182  0.27306506  0.48194462  1  0.45422  0  0.327144  0.340432  0  2.745251  0
Hg  Hg3  1  0.70726057  0.22696806  0.01801564  1  0.452584  0  0.327348  0.340397  0  2.746099  0
H  H4  1  0.67158037  0.71262142  0.34490053  1  0.118894  0  0.092819  0.081494  0  1.057031  0
H  H5  1  0.11328551  0.78754500  0.15513844  1  0.139081  0  0.093047  0.081684  0  1.057521  0
H  H6  1  0.32841078  0.28737315  0.65509255  1  0.118754  0  0.092806  0.081445  0  1.057061  0
H  H7  1  0.88672531  0.21245793  0.84486324  1  0.13904  0  0.093022  0.081647  0  1.057478  0
H  H8  1  0.71405738  0.45766384  0.14876476  1  0.153293  0  0.091115  0.124249  0  1.038372  0
H  H9  1  0.60696937  0.04231504  0.35133366  1  0.146526  0  0.090867  0.124511  0  1.037266  0
H  H10  1  0.28594219  0.54233631  0.85123572  1  0.153313  0  0.091107  0.124225  0  1.038321  0
H  H11  1  0.39303910  0.95768790  0.64866634  1  0.146401  0  0.090863  0.124503  0  1.037276  0
H  H12  1  0.11591967  0.51623778  0.39162797  1  0.132202  0  0.092804  0.087802  0  1.043866  0
H  H13  1  0.70758208  0.98370923  0.10834900  1  0.116023  0  0.092892  0.088021  0  1.043494  0
H  H14  1  0.88405695  0.48375262  0.60836822  1  0.132284  0  0.09288  0.087887  0  1.043903  0
H  H15  1  0.29241747  0.01629440  0.89165045  1  0.116201  0  0.092885  0.087989  0  1.043471  0
C  C16  1  0.74140452  0.64480708  0.32077320  1  0.564537  0  0.024093  0.015775  0  3.954411  0
C  C17  1  0.27504843  0.85528726  0.17925150  1  0.558266  0  0.024095  0.015585  0  3.957824  0
C  C18  1  0.25858475  0.35518820  0.67922167  1  0.564613  0  0.024132  0.015864  0  3.954549  0
C  C19  1  0.72495208  0.14471429  0.82074731  1  0.55818  0  0.024058  0.015573  0  3.957864  0
C  C20  1  0.67372625  0.58883361  0.23994170  1  -0.171871  0  -0.017312  0.076813  0  3.961024  0
C  C21  1  0.34434746  0.91123839  0.26010324  1  -0.129267  0  -0.017295  0.076585  0  3.964456  0
C  C22  1  0.32630148  0.41116654  0.76005522  1  -0.171861  0  -0.01728  0.076781  0  3.960839  0
C  C23  1  0.65565163  0.08876454  0.73989651  1  -0.129112  0  -0.017257  0.076634  0  3.964525  0
C  C24  1  0.76439287  0.50226073  0.21165202  1  0.090053  0  -0.089252  -0.144973  0  3.956091  0
C  C25  1  0.54982003  0.99777364  0.28839699  1  0.042924  0  -0.089618  -0.146331  0  3.956401  0
C  C26  1  0.23564471  0.49774011  0.78834539  1  0.090215  0  -0.08923  -0.144873  0  3.956217  0
C  C27  1  0.45017531  0.00222720  0.71160361  1  0.043055  0  -0.089585  -0.1463  0  3.956292  0
C  C28  1  0.92396535  0.47561338  0.26691578  1  -0.114234  0  -0.01611  0.080474  0  3.957979  0
C  C29  1  0.68061752  0.02448976  0.23310698  1  -0.062899  0  -0.015629  0.081896  0  3.95725  0
C  C30  1  0.07603845  0.52438607  0.73308512  1  -0.114306  0  -0.016148  0.08039  0  3.958108  0
C  C31  1  0.31938768  0.97551178  0.76689571  1  -0.062739  0  -0.015646  0.081899  0  3.957314  0
C  C32  1  0.98911672  0.53472142  0.34703569  1  0.532677  0  0.024311  0.020716  0  3.94946  0
C  C33  1  0.60663977  0.96533343  0.15298957  1  0.482714  0  0.023858  0.019445  0  3.945591  0
C  C34  1  0.01085799  0.46527664  0.65296346  1  0.532476  0  0.024193  0.020539  0  3.949504  0
C  C35  1  0.39336401  0.03466951  0.84701084  1  0.482453  0  0.023897  0.019541  0  3.945471  0
I  I36  1  0.81010581  0.87182454  0.50757517  1  -0.251801  0  -0.156426  -0.241182  0  1.708631  0
I  I37  1  0.93054418  0.62816195  0.99247683  1  -0.249324  0  -0.156597  -0.241608  0  1.708108  0
I  I38  1  0.18989236  0.12817352  0.49242352  1  -0.251813  0  -0.156431  -0.241197  0  1.708646  0
I  I39  1  0.06943942  0.37184238  0.00752350  1  -0.249364  0  -0.156615  -0.241624  0  1.708082  0
I  I40  1  0.43162508  0.63331481  0.56824154  1  -0.238878  0  -0.145532  -0.219424  0  1.787392  0
I  I41  1  0.73043868  0.86679748  0.93205797  1  -0.238849  0  -0.145259  -0.219051  0  1.789481  0
I  I42  1  0.56836605  0.36668325  0.43175750  1  -0.238945  0  -0.145547  -0.219429  0  1.787424  0
I  I43  1  0.26954353  0.13320127  0.06794160  1  -0.238856  0  -0.145246  -0.219022  0  1.789397  0
Br  Br44  1  0.46124988  0.63033195  0.16798606  1  -0.031806  0  0.042292  -0.029525  0  1.685313  0
Br  Br45  1  0.16266983  0.86976045  0.33212609  1  -0.023091  0  0.041967  -0.030023  0  1.686816  0
Br  Br46  1  0.53876191  0.36966542  0.83201223  1  -0.031857  0  0.042252  -0.029565  0  1.685223  0
Br  Br47  1  0.83733116  0.13023831  0.66787183  1  -0.023139  0  0.041965  -0.030045  0  1.686885  0
Br  Br48  1  0.05280710  0.35869306  0.23340574  1  -0.033181  0  0.039883  -0.031218  0  1.701793  0
Br  Br49  1  0.95919084  0.14138853  0.26645229  1  -0.031803  0  0.039541  -0.031939  0  1.702316  0
Br  Br50  1  0.94717371  0.64130360  0.76659205  1  -0.033178  0  0.039891  -0.031193  0  1.701758  0
Br  Br51  1  0.04081763  0.85861441  0.73354933  1  -0.031953  0  0.039515  -0.031973  0  1.70233  0
N  N52  1  0.89734342  0.61724622  0.37218081  1  -1.203835  0  -0.309636  -0.161051  0  3.492753  0
N  N53  1  0.40717880  0.88279738  0.12785000  1  -1.203017  0  -0.309391  -0.15957  0  3.492141  0
N  N54  1  0.10264022  0.38274765  0.62781830  1  -1.203723  0  -0.309593  -0.160916  0  3.492788  0
N  N55  1  0.59282545  0.11720625  0.87215119  1  -1.202966  0  -0.309373  -0.159605  0  3.491984  0
