# generated using pymatgen
data_ZnH8C8(N2Cl)2
_symmetry_space_group_name_H-M   'P 1'
_cell_length_a   7.30189634
_cell_length_b   7.30194206
_cell_length_c   10.20584623
_cell_angle_alpha   89.99989662
_cell_angle_beta   90.00057327
_cell_angle_gamma   91.66481139
_symmetry_Int_Tables_number   1
_chemical_formula_structural   ZnH8C8(N2Cl)2
_chemical_formula_sum   'Zn2 H16 C16 N8 Cl4'
_cell_volume   543.92586163
_cell_formula_units_Z   2
loop_
 _symmetry_equiv_pos_site_id
 _symmetry_equiv_pos_as_xyz
  1  'x, y, z'
loop_
 _atom_site_type_symbol
 _atom_site_label
 _atom_site_symmetry_multiplicity
 _atom_site_fract_x
 _atom_site_fract_y
 _atom_site_fract_z
 _atom_site_occupancy
 _atom_site_hle17_bader_spin_density
 _atom_site_hle17_ddec_charge
 _atom_site_hle17_ddec_spin_density
 _atom_site_hle17_ddec_sum_bond_order
 _atom_site_hle17_magmom
 _atom_site_hse06_10hf_bader_spin_density
 _atom_site_hse06_10hf_ddec_charge
 _atom_site_hse06_10hf_ddec_spin_density
 _atom_site_hse06_10hf_ddec_sum_bond_order
 _atom_site_hse06_10hf_magmom
 _atom_site_hse06_bader_spin_density
 _atom_site_hse06_ddec_charge
 _atom_site_hse06_ddec_spin_density
 _atom_site_hse06_ddec_sum_bond_order
 _atom_site_hse06_magmom
 _atom_site_pbe_bader_spin_density
 _atom_site_pbe_cm5_charge
 _atom_site_pbe_ddec_charge
 _atom_site_pbe_ddec_spin_density
 _atom_site_pbe_ddec_sum_bond_order
 _atom_site_pbe_magmom
Zn  Zn0  1  0.74999893  0.24999906  0.75000108  1  0  0.803368  0  2.075252  0  0  0.621076  0  2.504381  0  0  0.662668  0  2.467105  0  0  0.580229  0.592751  0  2.528926  0
Zn  Zn1  1  0.24999852  0.75000141  0.24999925  1  0  0.80335  0  2.075317  0  0  0.621072  0  2.504441  0  0  0.662664  0  2.467167  0  0  0.580241  0.59275  0  2.528985  0
H  H2  1  0.34414070  0.13101269  0.81312921  1  0  0.093337  0  0.966404  0  0  0.094962  0  1.039269  0  0  0.098289  0  1.036609  0  0  0.108805  0.092438  0  1.041506  0
H  H3  1  0.15586380  0.36898645  0.81313131  1  0  0.093303  0  0.966404  0  0  0.094963  0  1.039267  0  0  0.098292  0  1.036606  0  0  0.108811  0.092439  0  1.041504  0
H  H4  1  0.86898046  0.65586422  0.68687368  1  0  0.093389  0  0.966409  0  0  0.095009  0  1.039285  0  0  0.098338  0  1.036623  0  0  0.10884  0.092486  0  1.041522  0
H  H5  1  0.63101162  0.84414211  0.68686682  1  0  0.093265  0  0.966521  0  0  0.094918  0  1.039365  0  0  0.098247  0  1.036703  0  0  0.108782  0.092394  0  1.041602  0
H  H6  1  0.65586071  0.86898364  0.18687014  1  0  0.093361  0  0.96646  0  0  0.094994  0  1.039303  0  0  0.098322  0  1.036642  0  0  0.108805  0.09247  0  1.04154  0
H  H7  1  0.84413634  0.63101263  0.18687000  1  0  0.093334  0  0.966412  0  0  0.094986  0  1.03926  0  0  0.098315  0  1.036598  0  0  0.108815  0.092461  0  1.041497  0
H  H8  1  0.13101319  0.34414450  0.31313154  1  0  0.093282  0  0.966447  0  0  0.094919  0  1.039333  0  0  0.098246  0  1.036673  0  0  0.108785  0.092395  0  1.041569  0
H  H9  1  0.36898324  0.15586248  0.31312763  1  0  0.09331  0  0.966366  0  0  0.094942  0  1.039255  0  0  0.098269  0  1.036595  0  0  0.108793  0.092419  0  1.041491  0
H  H10  1  0.83183762  0.03785311  0.01095060  1  0  0.095068  0  0.959774  0  0  0.096513  0  1.033128  0  0  0.099931  0  1.030464  0  0  0.107985  0.093921  0  1.035258  0
H  H11  1  0.66816898  0.46214223  0.01095070  1  0  0.095078  0  0.959844  0  0  0.096504  0  1.033205  0  0  0.099921  0  1.030543  0  0  0.10798  0.093914  0  1.035334  0
H  H12  1  0.96214566  0.16817021  0.48904950  1  0  0.09511  0  0.959875  0  0  0.096532  0  1.033219  0  0  0.09995  0  1.030555  0  0  0.107998  0.093952  0  1.035338  0
H  H13  1  0.53785292  0.33183525  0.48904591  1  0  0.095091  0  0.959797  0  0  0.096532  0  1.033139  0  0  0.09995  0  1.030474  0  0  0.107981  0.093941  0  1.035267  0
H  H14  1  0.16816648  0.96214183  0.98904777  1  0  0.095093  0  0.959776  0  0  0.096537  0  1.033129  0  0  0.099955  0  1.030467  0  0  0.108015  0.093947  0  1.035257  0
H  H15  1  0.33183370  0.53785135  0.98905158  1  0  0.095102  0  0.95976  0  0  0.096537  0  1.033123  0  0  0.099953  0  1.030461  0  0  0.108014  0.093955  0  1.035245  0
H  H16  1  0.03784944  0.83184124  0.51095475  1  0  0.095054  0  0.959758  0  0  0.096493  0  1.033121  0  0  0.099911  0  1.030458  0  0  0.107985  0.093873  0  1.035276  0
H  H17  1  0.46214458  0.66816659  0.51094952  1  0  0.09512  0  0.959782  0  0  0.09654  0  1.033155  0  0  0.099957  0  1.030493  0  0  0.108014  0.09394  0  1.035294  0
C  C18  1  0.41419841  0.07256828  0.89678449  1  0  0.086555  0  3.653128  0  0  0.0584  0  3.900516  0  0  0.060384  0  3.918902  0  0  0.054692  0.056845  0  3.888819  0
C  C19  1  0.08581279  0.42743203  0.89678797  1  0  0.086452  0  3.653339  0  0  0.058226  0  3.900804  0  0  0.060203  0  3.919189  0  0  0.054548  0.056675  0  3.889111  0
C  C20  1  0.92743413  0.58581272  0.60322091  1  0  0.086463  0  3.653083  0  0  0.058297  0  3.900496  0  0  0.060281  0  3.918884  0  0  0.054627  0.056748  0  3.888791  0
C  C21  1  0.57257038  0.91419094  0.60321549  1  0  0.086609  0  3.653232  0  0  0.05843  0  3.900616  0  0  0.060408  0  3.918999  0  0  0.054661  0.056877  0  3.888921  0
C  C22  1  0.58580574  0.92742803  0.10321779  1  0  0.086429  0  3.653034  0  0  0.058292  0  3.900434  0  0  0.060267  0  3.918816  0  0  0.054656  0.05674  0  3.88874  0
C  C23  1  0.91419420  0.57256701  0.10321823  1  0  0.086589  0  3.65314  0  0  0.058394  0  3.90055  0  0  0.060372  0  3.918936  0  0  0.054699  0.056842  0  3.888856  0
C  C24  1  0.07256631  0.41419458  0.39678726  1  0  0.086682  0  3.65319  0  0  0.058454  0  3.900638  0  0  0.060436  0  3.919022  0  0  0.054683  0.056901  0  3.888947  0
C  C25  1  0.42743089  0.08580128  0.39678288  1  0  0.086685  0  3.653071  0  0  0.058477  0  3.900519  0  0  0.060457  0  3.918905  0  0  0.054713  0.056926  0  3.888824  0
C  C26  1  0.68323013  0.02164768  0.00583242  1  0  0.088866  0  3.650473  0  0  0.059363  0  3.899101  0  0  0.061538  0  3.917077  0  0  0.055264  0.057784  0  3.887241  0
C  C27  1  0.81676823  0.47834910  0.00583161  1  0  0.088782  0  3.650428  0  0  0.059326  0  3.899051  0  0  0.061497  0  3.917022  0  0  0.055245  0.05775  0  3.887194  0
C  C28  1  0.97834919  0.31676763  0.49416809  1  0  0.088694  0  3.650559  0  0  0.059272  0  3.89915  0  0  0.061447  0  3.917123  0  0  0.055238  0.057688  0  3.887289  0
C  C29  1  0.52164658  0.18323373  0.49416459  1  0  0.088684  0  3.650567  0  0  0.05923  0  3.899181  0  0  0.061402  0  3.917151  0  0  0.055279  0.057654  0  3.887321  0
C  C30  1  0.31677270  0.97835002  0.99416594  1  0  0.08877  0  3.650572  0  0  0.059287  0  3.899206  0  0  0.061454  0  3.917177  0  0  0.055222  0.057711  0  3.887347  0
C  C31  1  0.18322776  0.52164864  0.99416872  1  0  0.088867  0  3.650695  0  0  0.059386  0  3.899355  0  0  0.061558  0  3.91733  0  0  0.055284  0.057802  0  3.887492  0
C  C32  1  0.02164949  0.68322872  0.50582734  1  0  0.088892  0  3.650343  0  0  0.059405  0  3.898972  0  0  0.061577  0  3.916946  0  0  0.055285  0.057852  0  3.887127  0
C  C33  1  0.47835249  0.81677358  0.50583084  1  0  0.08878  0  3.650627  0  0  0.059312  0  3.899253  0  0  0.061484  0  3.917228  0  0  0.055283  0.057745  0  3.887401  0
N  N34  1  0.59697809  0.09415859  0.90300314  1  0  -0.255039  0  3.275066  0  0  -0.178117  0  3.523587  0  0  -0.191934  0  3.542691  0  0  -0.297596  -0.168747  0  3.510733  0
N  N35  1  0.90303290  0.40584053  0.90300304  1  0  -0.254917  0  3.274975  0  0  -0.17801  0  3.523529  0  0  -0.191812  0  3.542618  0  0  -0.297515  -0.16865  0  3.510684  0
N  N36  1  0.90584181  0.40302775  0.59699707  1  0  -0.254982  0  3.275  0  0  -0.178072  0  3.523496  0  0  -0.191891  0  3.542603  0  0  -0.297555  -0.168712  0  3.510655  0
N  N37  1  0.59415813  0.09697339  0.59699420  1  0  -0.254952  0  3.274985  0  0  -0.178054  0  3.523514  0  0  -0.191858  0  3.542605  0  0  -0.297593  -0.168692  0  3.51067  0
N  N38  1  0.40302337  0.90583911  0.09699621  1  0  -0.254881  0  3.274916  0  0  -0.178011  0  3.523486  0  0  -0.191807  0  3.542572  0  0  -0.29756  -0.168651  0  3.510642  0
N  N39  1  0.09697541  0.59415713  0.09699631  1  0  -0.25501  0  3.275192  0  0  -0.178094  0  3.523739  0  0  -0.191902  0  3.542834  0  0  -0.297579  -0.168733  0  3.510896  0
N  N40  1  0.09415692  0.59696997  0.40300228  1  0  -0.255036  0  3.275039  0  0  -0.178109  0  3.523585  0  0  -0.19192  0  3.542684  0  0  -0.297581  -0.168746  0  3.51073  0
N  N41  1  0.40584191  0.90302295  0.40300514  1  0  -0.255025  0  3.275143  0  0  -0.178115  0  3.523698  0  0  -0.191925  0  3.542797  0  0  -0.29761  -0.168755  0  3.510849  0
Cl  Cl42  1  0.51789512  0.48210465  0.75000107  1  0  -0.619251  0  0.837304  0  0  -0.572752  0  1.088897  0  0  -0.587726  0  1.071182  0  0  -0.348423  -0.560828  0  1.100837  0
Cl  Cl43  1  0.98210421  0.01789621  0.74999815  1  0  -0.619229  0  0.837316  0  0  -0.572742  0  1.088933  0  0  -0.587717  0  1.071219  0  0  -0.348408  -0.560818  0  1.100872  0
Cl  Cl44  1  0.48210370  0.51789581  0.25000024  1  0  -0.619241  0  0.83731  0  0  -0.572743  0  1.088899  0  0  -0.587715  0  1.071183  0  0  -0.348415  -0.560818  0  1.100838  0
Cl  Cl45  1  0.01789329  0.98210563  0.25000022  1  0  -0.619248  0  0.837349  0  0  -0.572762  0  1.088959  0  0  -0.587735  0  1.071244  0  0  -0.348424  -0.560837  0  1.100897  0
