# generated using pymatgen
data_AlH5C10O5F
_symmetry_space_group_name_H-M   'P 1'
_cell_length_a   6.62534473
_cell_length_b   8.84201248
_cell_length_c   17.80012617
_cell_angle_alpha   79.01010040
_cell_angle_beta   78.89804184
_cell_angle_gamma   75.58458643
_symmetry_Int_Tables_number   1
_chemical_formula_structural   AlH5C10O5F
_chemical_formula_sum   'Al2 H10 C20 O10 F2'
_cell_volume   979.79169611
_cell_formula_units_Z   2
loop_
 _symmetry_equiv_pos_site_id
 _symmetry_equiv_pos_as_xyz
  1  'x, y, z'
loop_
 _atom_site_type_symbol
 _atom_site_label
 _atom_site_symmetry_multiplicity
 _atom_site_fract_x
 _atom_site_fract_y
 _atom_site_fract_z
 _atom_site_occupancy
 _atom_site_pbe_bader_charge
 _atom_site_pbe_bader_spin_density
 _atom_site_pbe_cm5_charge
 _atom_site_pbe_ddec_charge
 _atom_site_pbe_ddec_spin_density
 _atom_site_pbe_ddec_sum_bond_order
 _atom_site_pbe_magmom
Al  Al0  1  0.50404444  0.49930347  0.49762154  1  2.503569  0  0.399694  1.63981  0  2.579555  0
Al  Al1  1  0.00388622  0.49643386  0.49925317  1  2.503505  0  0.397497  1.643489  0  2.581454  0
H  H2  1  0.24590826  0.38888519  0.59226023  1  0.613029  0  0.355541  0.434651  0  0.848773  0
H  H3  1  0.72180838  0.68776974  0.44710102  1  0.645959  0  0.354684  0.438414  0  0.846377  0
H  H4  1  0.64698171  0.57343397  0.26270078  1  0.110688  0  0.113766  0.120773  0  0.988467  0
H  H5  1  0.71686302  0.58098208  0.11904110  1  0.089774  0  0.106481  0.109723  0  0.991904  0
H  H6  1  0.16985044  0.38845961  0.13312038  1  0.075507  0  0.106194  0.108542  0  0.992415  0
H  H7  1  0.09726356  0.38869840  0.27616018  1  0.091523  0  0.11257  0.117624  0  0.990389  0
H  H8  1  0.82157774  0.61359312  0.86630342  1  0.081299  0  0.106994  0.11098  0  0.989833  0
H  H9  1  0.89798288  0.61049262  0.72366598  1  0.108211  0  0.109664  0.113284  0  0.994011  0
H  H10  1  0.35777208  0.41411993  0.73732209  1  0.072268  0  0.108719  0.110687  0  0.997193  0
H  H11  1  0.28428529  0.41001168  0.88031180  1  0.098207  0  0.107435  0.11074  0  0.989947  0
C  C12  1  0.83809287  0.21901734  0.50083948  1  1.640545  0  0.264184  0.598148  0  4.172953  0
C  C13  1  0.68584268  0.50273018  0.63739684  1  1.577327  0  0.265992  0.643284  0  4.096103  0
C  C14  1  0.16752870  0.78168209  0.49314084  1  1.64254  0  0.263092  0.605617  0  4.168234  0
C  C15  1  0.31870973  0.48784788  0.36228440  1  1.561691  0  0.271495  0.640717  0  4.094867  0
C  C16  1  0.36693140  0.48232508  0.27753170  1  -0.010749  0  -0.012411  -0.045532  0  3.969966  0
C  C17  1  0.54347197  0.53411472  0.23342393  1  -0.074464  0  -0.076112  -0.083028  0  3.977754  0
C  C18  1  0.58244682  0.53765221  0.15369070  1  0.004058  0  -0.084106  -0.133515  0  3.947288  0
C  C19  1  0.44651482  0.48689233  0.11636194  1  0.080134  0  0.004544  0.144686  0  4.112585  0
C  C20  1  0.27285045  0.43025558  0.16156916  1  -0.010967  0  -0.082142  -0.128475  0  3.947106  0
C  C21  1  0.23296916  0.42952252  0.24108415  1  -0.008169  0  -0.077146  -0.083584  0  3.981529  0
C  C22  1  0.48218381  0.49468516  0.03492739  1  0.13387  0  -0.041238  -0.10122  0  4.1161  0
C  C23  1  0.51205485  0.50344643  0.96448668  1  -0.541316  0  -0.045228  -0.112762  0  4.119251  0
C  C24  1  0.54928321  0.51004079  0.88313091  1  0.112475  0  0.00485  0.149871  0  4.108671  0
C  C25  1  0.72149341  0.56871974  0.83792680  1  -0.042673  0  -0.081729  -0.129732  0  3.945456  0
C  C26  1  0.76378057  0.56734789  0.75857029  1  -0.051189  0  -0.079869  -0.08567  0  3.988175  0
C  C27  1  0.63405498  0.51035089  0.72200037  1  -0.026417  0  -0.01611  -0.048795  0  3.97125  0
C  C28  1  0.45867694  0.45703946  0.76616705  1  0.001366  0  -0.079034  -0.083351  0  3.989301  0
C  C29  1  0.41722461  0.45541484  0.84574871  1  -0.059891  0  -0.083176  -0.131378  0  3.944612  0
C  C30  1  0.90377303  0.04669604  0.49550835  1  0.500907  0  0.104386  0.055052  0  3.968208  0
C  C31  1  0.10061252  0.95427495  0.49795051  1  0.673857  0  0.100178  0.046141  0  3.975508  0
O  O32  1  0.65158962  0.28512402  0.48926287  1  -1.231366  0  -0.222135  -0.54648  0  2.336828  0
O  O33  1  0.86799545  0.52237251  0.60397836  1  -1.262693  0  -0.240058  -0.601952  0  2.33942  0
O  O34  1  0.03122081  0.71473852  0.48047067  1  -1.248877  0  -0.233792  -0.587733  0  2.380179  0
O  O35  1  0.45681174  0.52076089  0.39366967  1  -1.264676  0  -0.235534  -0.591816  0  2.350254  0
O  O36  1  0.35703234  0.71839495  0.50234403  1  -1.242149  0  -0.23063  -0.568715  0  2.341183  0
O  O37  1  0.14063521  0.46321972  0.39735388  1  -1.264037  0  -0.23163  -0.580192  0  2.336065  0
O  O38  1  0.97257289  0.28323523  0.51677233  1  -1.24218  0  -0.226962  -0.570288  0  2.385629  0
O  O39  1  0.54645338  0.47425334  0.60472352  1  -1.272515  0  -0.24103  -0.609802  0  2.342904  0
O  O40  1  0.25716986  0.43062004  0.53759091  1  -1.41255  0  -0.446277  -0.988417  0  2.204845  0
O  O41  1  0.74831963  0.57397193  0.46224059  1  -1.444189  0  -0.44645  -0.989697  0  2.180106  0
F  F42  1  0.74607990  0.98384780  0.48657752  1  -0.607118  0  -0.074734  -0.075485  0  1.439096  0
F  F43  1  0.25775725  0.01778218  0.50638239  1  -0.604127  0  -0.070427  -0.064614  0  1.445226  0
