# generated using pymatgen
data_H8AuC5S2N
_symmetry_space_group_name_H-M   'P 1'
_cell_length_a   6.29564596
_cell_length_b   7.55632251
_cell_length_c   16.53949787
_cell_angle_alpha   90.00019765
_cell_angle_beta   90.00011166
_cell_angle_gamma   98.83691940
_symmetry_Int_Tables_number   1
_chemical_formula_structural   H8AuC5S2N
_chemical_formula_sum   'H32 Au4 C20 S8 N4'
_cell_volume   777.47603461
_cell_formula_units_Z   4
loop_
 _symmetry_equiv_pos_site_id
 _symmetry_equiv_pos_as_xyz
  1  'x, y, z'
loop_
 _atom_site_type_symbol
 _atom_site_label
 _atom_site_symmetry_multiplicity
 _atom_site_fract_x
 _atom_site_fract_y
 _atom_site_fract_z
 _atom_site_occupancy
 _atom_site_pbe_bader_spin_density
 _atom_site_pbe_cm5_charge
 _atom_site_pbe_ddec_charge
 _atom_site_pbe_ddec_spin_density
 _atom_site_pbe_ddec_sum_bond_order
 _atom_site_pbe_magmom
H  H0  1  0.22345886  0.46906686  0.43926896  1  0  0.08563  0.092947  0  1.055817  0
H  H1  1  0.77656530  0.03093505  0.93928823  1  0  0.08565  0.092885  0  1.055822  0
H  H2  1  0.77650158  0.53101822  0.56073163  1  0  0.085612  0.092946  0  1.055591  0
H  H3  1  0.22352332  0.96895966  0.06074259  1  0  0.085594  0.092967  0  1.055715  0
H  H4  1  0.12111599  0.66887913  0.46769937  1  0  0.081948  0.101465  0  1.045928  0
H  H5  1  0.87893134  0.83108823  0.96769980  1  0  0.081969  0.101586  0  1.04591  0
H  H6  1  0.87878630  0.33117522  0.53228671  1  0  0.081997  0.10158  0  1.045937  0
H  H7  1  0.12122918  0.16879167  0.03227479  1  0  0.082017  0.101626  0  1.046052  0
H  H8  1  0.06045615  0.55418779  0.31381417  1  0  0.089219  0.095225  0  1.017865  0
H  H9  1  0.93951650  0.94585668  0.81381447  1  0  0.089233  0.095237  0  1.018068  0
H  H10  1  0.93954975  0.44583428  0.68617251  1  0  0.089275  0.095281  0  1.017924  0
H  H11  1  0.06042945  0.05417618  0.18617040  1  0  0.089227  0.095206  0  1.017868  0
H  H12  1  0.15921178  0.78485364  0.32885448  1  0  0.079731  0.084243  0  1.013829  0
H  H13  1  0.84079058  0.71516704  0.82884702  1  0  0.079662  0.084171  0  1.01392  0
H  H14  1  0.84075080  0.21518322  0.67112676  1  0  0.079667  0.084088  0  1.013775  0
H  H15  1  0.15926012  0.28484829  0.17110399  1  0  0.079705  0.084164  0  1.013631  0
H  H16  1  0.41198620  0.67048665  0.23209462  1  0  0.08657  0.095655  0  1.035891  0
H  H17  1  0.58797524  0.82956317  0.73210464  1  0  0.086566  0.095748  0  1.035881  0
H  H18  1  0.58805127  0.32955146  0.76790477  1  0  0.086614  0.095726  0  1.035936  0
H  H19  1  0.41194029  0.17046838  0.26790744  1  0  0.086547  0.095628  0  1.035948  0
H  H20  1  0.43046532  0.48609320  0.29756649  1  0  0.091491  0.104207  0  1.006597  0
H  H21  1  0.56947231  0.01388458  0.79758126  1  0  0.091573  0.104216  0  1.006841  0
H  H22  1  0.56955179  0.51392082  0.70245164  1  0  0.091456  0.104135  0  1.00661  0
H  H23  1  0.43043285  0.98608269  0.20247375  1  0  0.091491  0.1041  0  1.006586  0
H  H24  1  0.60790905  0.88193881  0.32632187  1  0  0.091871  0.106947  0  1.020743  0
H  H25  1  0.39212584  0.61805253  0.82632567  1  0  0.091895  0.106912  0  1.020693  0
H  H26  1  0.39207165  0.11811008  0.67368719  1  0  0.091937  0.107141  0  1.02068  0
H  H27  1  0.60798826  0.38185957  0.17368701  1  0  0.091846  0.107139  0  1.020708  0
H  H28  1  0.74142800  0.69049995  0.33677473  1  0  0.098835  0.118585  0  1.009853  0
H  H29  1  0.25853482  0.80944256  0.83678397  1  0  0.098754  0.118485  0  1.009633  0
H  H30  1  0.25854203  0.30953422  0.66326093  1  0  0.098779  0.118657  0  1.009528  0
H  H31  1  0.74143784  0.19040942  0.16326862  1  0  0.098808  0.118715  0  1.009645  0
Au  Au32  1  0.99995521  0.00001354  0.49997709  1  0  0.230048  -7.9e-05  0  2.946203  0
Au  Au33  1  0.00004033  0.49996620  0.00000144  1  0  0.230078  -4e-06  0  2.946067  0
Au  Au34  1  0.49993767  0.00003884  0.49999613  1  0  0.235739  -0.055983  0  2.763915  0
Au  Au35  1  0.50006915  0.49995026  0.00000476  1  0  0.235705  -0.056059  0  2.763915  0
C  C36  1  0.15853744  0.75934553  0.63281088  1  0  0.132186  0.20471  0  4.21863  0
C  C37  1  0.84148707  0.74070401  0.13283277  1  0  0.132146  0.204472  0  4.218076  0
C  C38  1  0.84144152  0.24076231  0.36715162  1  0  0.132206  0.204862  0  4.217106  0
C  C39  1  0.15858344  0.25931531  0.86716661  1  0  0.132089  0.20457  0  4.217777  0
C  C40  1  0.22981123  0.61243550  0.42666343  1  0  -0.152691  -0.181813  0  3.822642  0
C  C41  1  0.77018681  0.88753459  0.92667460  1  0  -0.152683  -0.181963  0  3.822057  0
C  C42  1  0.77012675  0.38762282  0.57333413  1  0  -0.152657  -0.181776  0  3.822355  0
C  C43  1  0.22986077  0.11236151  0.07333143  1  0  -0.152721  -0.181911  0  3.822616  0
C  C44  1  0.19647757  0.64840516  0.33739271  1  0  -0.173151  -0.145215  0  3.949008  0
C  C45  1  0.80350557  0.85161230  0.83737280  1  0  -0.173104  -0.14516  0  3.949145  0
C  C46  1  0.80350322  0.35163569  0.66260063  1  0  -0.173237  -0.145267  0  3.949039  0
C  C47  1  0.19648307  0.14836826  0.16259091  1  0  -0.173219  -0.145294  0  3.948525  0
C  C48  1  0.40689199  0.62705990  0.29544925  1  0  -0.173614  -0.152003  0  3.919572  0
C  C49  1  0.59313002  0.87295624  0.79545397  1  0  -0.173669  -0.15218  0  3.920198  0
C  C50  1  0.59314230  0.37297821  0.70455860  1  0  -0.173623  -0.15184  0  3.919581  0
C  C51  1  0.40687590  0.12704038  0.20455932  1  0  -0.173565  -0.151646  0  3.919338  0
C  C52  1  0.58757634  0.73979477  0.34237314  1  0  -0.149574  -0.189745  0  3.828218  0
C  C53  1  0.41244475  0.76018616  0.84238903  1  0  -0.149551  -0.18964  0  3.827606  0
C  C54  1  0.41241632  0.26025009  0.65763229  1  0  -0.149621  -0.190249  0  3.828037  0
C  C55  1  0.58760265  0.23972602  0.15763332  1  0  -0.149622  -0.190365  0  3.827963  0
S  S56  1  0.95409622  0.87447662  0.62801976  1  0  -0.10859  -0.119636  0  2.93441  0
S  S57  1  0.04589400  0.62550092  0.12804380  1  0  -0.108681  -0.119746  0  2.934354  0
S  S58  1  0.04582473  0.12556698  0.37193912  1  0  -0.108787  -0.119989  0  2.934867  0
S  S59  1  0.95414359  0.37443538  0.87195740  1  0  -0.108674  -0.119786  0  2.934599  0
S  S60  1  0.50767757  0.71437529  0.44979782  1  0  0.022912  0.205167  0  3.233695  0
S  S61  1  0.49233224  0.78561739  0.94980341  1  0  0.022989  0.205378  0  3.234104  0
S  S62  1  0.49223924  0.28570583  0.55020519  1  0  0.023087  0.205319  0  3.233637  0
S  S63  1  0.50774913  0.21426394  0.05019900  1  0  0.023124  0.205384  0  3.233468  0
N  N64  1  0.29850951  0.67266813  0.63823972  1  0  -0.335662  -0.392599  0  2.854836  0
N  N65  1  0.70147088  0.82734761  0.13823921  1  0  -0.335562  -0.392331  0  2.854498  0
N  N66  1  0.70143557  0.32746252  0.36174878  1  0  -0.335618  -0.392689  0  2.853236  0
N  N67  1  0.29854865  0.17259407  0.86175292  1  0  -0.335601  -0.392507  0  2.853737  0
