# generated using pymatgen
data_TmH14C14N3O9F4
_symmetry_space_group_name_H-M   'P 1'
_cell_length_a   11.26795166
_cell_length_b   12.29811188
_cell_length_c   20.07207732
_cell_angle_alpha   73.69224327
_cell_angle_beta   73.70723705
_cell_angle_gamma   62.72443962
_symmetry_Int_Tables_number   1
_chemical_formula_structural   TmH14C14N3O9F4
_chemical_formula_sum   'Tm4 H56 C56 N12 O36 F16'
_cell_volume   2334.84765403
_cell_formula_units_Z   4
loop_
 _symmetry_equiv_pos_site_id
 _symmetry_equiv_pos_as_xyz
  1  'x, y, z'
loop_
 _atom_site_type_symbol
 _atom_site_label
 _atom_site_symmetry_multiplicity
 _atom_site_fract_x
 _atom_site_fract_y
 _atom_site_fract_z
 _atom_site_occupancy
 _atom_site_pbe_bader_charge
 _atom_site_pbe_bader_spin_density
 _atom_site_pbe_cm5_charge
 _atom_site_pbe_ddec_charge
 _atom_site_pbe_ddec_spin_density
 _atom_site_pbe_ddec_sum_bond_order
 _atom_site_pbe_magmom
Tm  Tm0  1  0.13536833  0.10916655  0.69643449  1  2.193219  0  1.547794  2.040833  0  2.151196  0
Tm  Tm1  1  0.94111318  0.39092142  0.80352842  1  2.192614  0  1.547344  2.041144  0  2.149413  0
Tm  Tm2  1  0.86463083  0.89083099  0.30356570  1  2.193144  0  1.547809  2.040846  0  2.1512  0
Tm  Tm3  1  0.05888801  0.60907984  0.19647132  1  2.192571  0  1.547353  2.041146  0  2.149354  0
H  H4  1  0.95712216  0.02855466  0.61439734  1  0.120008  0  0.128124  0.051969  0  0.983798  0
H  H5  1  0.60025365  0.47135685  0.88550716  1  0.079705  0  0.128694  0.051821  0  0.984274  0
H  H6  1  0.04287279  0.97144195  0.38560318  1  0.119796  0  0.128103  0.051935  0  0.983765  0
H  H7  1  0.39974971  0.52864162  0.11449272  1  0.079648  0  0.128734  0.051863  0  0.984326  0
H  H8  1  0.23870688  0.74206342  0.66095891  1  0.104654  0  0.114845  0.134463  0  1.013772  0
H  H9  1  0.64157927  0.75792918  0.83910062  1  0.088386  0  0.114906  0.13438  0  1.012953  0
H  H10  1  0.76129237  0.25793598  0.33904194  1  0.104662  0  0.11485  0.134468  0  1.013792  0
H  H11  1  0.35841613  0.24207672  0.16089822  1  0.08835  0  0.11491  0.134375  0  1.012943  0
H  H12  1  0.25627498  0.69228269  0.58159769  1  0.049424  0  0.108715  0.127396  0  0.972399  0
H  H13  1  0.52999449  0.80765572  0.91848280  1  0.063226  0  0.108386  0.126348  0  0.972683  0
H  H14  1  0.74372334  0.30771671  0.41840381  1  0.049391  0  0.108746  0.127433  0  0.972346  0
H  H15  1  0.47000132  0.19234926  0.08151763  1  0.063101  0  0.108384  0.126407  0  0.972678  0
H  H16  1  0.14612039  0.65706992  0.65888284  1  0.0945  0  0.106164  0.127823  0  0.996526  0
H  H17  1  0.46187696  0.84276926  0.84122029  1  0.091869  0  0.106307  0.127267  0  0.997037  0
H  H18  1  0.85388020  0.34292856  0.34111897  1  0.09452  0  0.106157  0.127834  0  0.996482  0
H  H19  1  0.53811784  0.15723386  0.15877963  1  0.091925  0  0.10629  0.127268  0  0.997018  0
H  H20  1  0.91764025  0.93683329  0.54895999  1  0.061956  0  0.109843  0.122295  0  0.993864  0
H  H21  1  0.40373898  0.56285623  0.95116462  1  0.050967  0  0.10972  0.121381  0  0.99503  0
H  H22  1  0.08235909  0.06316797  0.45103954  1  0.061971  0  0.109827  0.122276  0  0.993938  0
H  H23  1  0.59626221  0.43714503  0.04883462  1  0.050942  0  0.10971  0.121365  0  0.995033  0
H  H24  1  0.96326001  0.77406209  0.57696051  1  0.090415  0  0.106487  0.125972  0  1.015498  0
H  H25  1  0.31439053  0.72565190  0.92329713  1  0.089493  0  0.106444  0.125181  0  1.016494  0
H  H26  1  0.03673975  0.22593824  0.42303811  1  0.090431  0  0.106473  0.12596  0  1.015467  0
H  H27  1  0.68560839  0.27435029  0.07670230  1  0.089517  0  0.106431  0.125157  0  1.016499  0
H  H28  1  0.07129332  0.82745475  0.50713013  1  0.098811  0  0.103301  0.118928  0  0.995912  0
H  H29  1  0.40627320  0.67216766  0.99300783  1  0.061622  0  0.103645  0.117825  0  0.995992  0
H  H30  1  0.92870778  0.17254465  0.49286994  1  0.098795  0  0.103313  0.118943  0  0.995974  0
H  H31  1  0.59372799  0.32783360  0.00699140  1  0.061604  0  0.103652  0.117837  0  0.996022  0
H  H32  1  0.47703014  0.01152285  0.68100357  1  0.12769  0  0.123613  0.048676  0  1.01933  0
H  H33  1  0.16989022  0.48847382  0.81898042  1  0.111567  0  0.123511  0.049185  0  1.019372  0
H  H34  1  0.52296736  0.98847841  0.31899326  1  0.127673  0  0.123613  0.048652  0  1.019323  0
H  H35  1  0.83011240  0.51152836  0.18101843  1  0.111565  0  0.123514  0.049199  0  1.019382  0
H  H36  1  0.69196025  0.91146952  0.68120878  1  0.036013  0  0.102775  0.11056  0  1.003214  0
H  H37  1  0.28496112  0.58845715  0.81888054  1  0.043283  0  0.102743  0.110677  0  1.002786  0
H  H38  1  0.30803993  0.08852987  0.31879093  1  0.035996  0  0.102762  0.110527  0  1.003234  0
H  H39  1  0.71504016  0.41154597  0.18111936  1  0.04326  0  0.102763  0.110673  0  1.002794  0
H  H40  1  0.76960882  0.79212464  0.62856453  1  0.104545  0  0.103502  0.126041  0  1.036661  0
H  H41  1  0.19044095  0.70780198  0.87153537  1  0.102164  0  0.10356  0.127438  0  1.036559  0
H  H42  1  0.23039145  0.20787662  0.37143485  1  0.104557  0  0.103517  0.126068  0  1.03668  0
H  H43  1  0.80955940  0.29220113  0.12846368  1  0.102197  0  0.103549  0.127427  0  1.036531  0
H  H44  1  0.75029733  0.75014038  0.72196366  1  0.098037  0  0.110008  0.133592  0  1.004323  0
H  H45  1  0.22275677  0.74978488  0.77814310  1  0.09019  0  0.110537  0.133891  0  1.004903  0
H  H46  1  0.24969965  0.24985995  0.27803589  1  0.098015  0  0.110001  0.133544  0  1.004385  0
H  H47  1  0.77724442  0.25021637  0.22185614  1  0.09023  0  0.110558  0.133944  0  1.00487  0
H  H48  1  0.46018079  0.72002948  0.69397167  1  0.081328  0  0.1072  0.125085  0  1.013298  0
H  H49  1  0.87451153  0.78015817  0.80583299  1  0.073063  0  0.107046  0.124168  0  1.012907  0
H  H50  1  0.53981897  0.27997084  0.30602745  1  0.081333  0  0.107203  0.12509  0  1.013304  0
H  H51  1  0.12549091  0.21984029  0.19416653  1  0.073064  0  0.107046  0.124173  0  1.01288  0
H  H52  1  0.62684976  0.63285797  0.71669430  1  0.120908  0  0.106503  0.128751  0  1.024525  0
H  H53  1  0.97689415  0.86715906  0.78313475  1  0.108774  0  0.107227  0.129492  0  1.024396  0
H  H54  1  0.37315000  0.36714236  0.28330433  1  0.120853  0  0.106496  0.128751  0  1.024503  0
H  H55  1  0.02310468  0.13284127  0.21686502  1  0.108713  0  0.107223  0.129509  0  1.024372  0
H  H56  1  0.60810010  0.68502359  0.62632562  1  0.086927  0  0.10661  0.130415  0  0.980502  0
H  H57  1  0.91976575  0.81514740  0.87348215  1  0.084823  0  0.106962  0.130452  0  0.980812  0
H  H58  1  0.39189873  0.31497674  0.37367315  1  0.086945  0  0.106639  0.130452  0  0.980502  0
H  H59  1  0.08023350  0.18485200  0.12651772  1  0.084799  0  0.106957  0.13045  0  0.980781  0
C  C60  1  0.27478304  0.24975626  0.75005794  1  1.678697  0  0.241785  0.700112  0  4.110792  0
C  C61  1  0.72521981  0.75024128  0.24994367  1  1.678564  0  0.241821  0.700127  0  4.110947  0
C  C62  1  0.40902405  0.24975209  0.74996377  1  0.115715  0  -0.023824  -0.207037  0  3.993442  0
C  C63  1  0.59097931  0.75024638  0.25003661  1  0.115702  0  -0.023832  -0.207085  0  3.993438  0
C  C64  1  0.51284456  0.14418464  0.77862663  1  0.518983  0  0.090419  0.150161  0  4.099479  0
C  C65  1  0.43561844  0.35544808  0.72131018  1  0.504713  0  0.089847  0.147862  0  4.104195  0
C  C66  1  0.48715519  0.85581569  0.22137399  1  0.518972  0  0.090403  0.150137  0  4.099735  0
C  C67  1  0.56438173  0.64455132  0.27869053  1  0.504741  0  0.089805  0.147838  0  4.104296  0
C  C68  1  0.63679101  0.14402803  0.77811349  1  0.506495  0  0.090593  0.149947  0  4.100231  0
C  C69  1  0.55863101  0.35599735  0.72192574  1  0.52392  0  0.090199  0.150163  0  4.101144  0
C  C70  1  0.36321379  0.85597137  0.22188600  1  0.506649  0  0.090533  0.149902  0  4.100482  0
C  C71  1  0.44136925  0.64400391  0.27807464  1  0.523902  0  0.090192  0.150198  0  4.101073  0
C  C72  1  0.66268199  0.25010122  0.75004816  1  0.127897  0  -0.023991  -0.202293  0  3.989242  0
C  C73  1  0.33731776  0.74989911  0.24995246  1  0.127884  0  -0.023967  -0.202263  0  3.989168  0
C  C74  1  0.79720588  0.25021801  0.74999243  1  1.673678  0  0.234636  0.693551  0  4.132275  0
C  C75  1  0.20279355  0.74978511  0.25000776  1  1.673791  0  0.234635  0.69348  0  4.132046  0
C  C76  1  0.98198260  0.43623018  0.65286420  1  1.662143  0  0.225557  0.671228  0  4.158873  0
C  C77  1  0.07052268  0.06385197  0.84710623  1  1.63621  0  0.22498  0.669965  0  4.161153  0
C  C78  1  0.01802076  0.56376829  0.34713468  1  1.662161  0  0.225578  0.671326  0  4.158605  0
C  C79  1  0.92947581  0.93615116  0.15289710  1  1.636264  0  0.224929  0.669932  0  4.161133  0
C  C80  1  0.99131338  0.46905805  0.57404698  1  0.096114  0  -0.021042  -0.201179  0  4.001307  0
C  C81  1  0.03403321  0.03087725  0.92592592  1  0.059097  0  -0.021133  -0.200093  0  3.999511  0
C  C82  1  0.00869091  0.53094042  0.42595225  1  0.096  0  -0.021062  -0.20135  0  4.001493  0
C  C83  1  0.96596611  0.96912401  0.07407659  1  0.057096  0  -0.021121  -0.199988  0  3.999545  0
C  C84  1  0.90640806  0.45441926  0.54170424  1  0.547263  0  0.096664  0.166823  0  4.085934  0
C  C85  1  0.90227092  0.04538162  0.95842106  1  0.584431  0  0.096339  0.166049  0  4.082929  0
C  C86  1  0.09359488  0.54558014  0.45829554  1  0.547405  0  0.096676  0.166844  0  4.085888  0
C  C87  1  0.09772808  0.95462243  0.04158202  1  0.586383  0  0.096259  0.165821  0  4.083125  0
C  C88  1  0.08518811  0.51471114  0.53114502  1  0.522963  0  0.093776  0.158308  0  4.083617  0
C  C89  1  0.13088315  0.98541061  0.96870815  1  0.557896  0  0.094904  0.159715  0  4.084764  0
C  C90  1  0.91481206  0.48528826  0.46885470  1  0.522994  0  0.093754  0.158234  0  4.083787  0
C  C91  1  0.86911534  0.01459252  0.03129468  1  0.557895  0  0.094862  0.15956  0  4.084782  0
C  C92  1  0.04257316  0.94489885  0.63396842  1  1.359789  0  0.186787  0.328178  0  4.086835  0
C  C93  1  0.62150721  0.55505307  0.86597940  1  1.404213  0  0.187946  0.33007  0  4.089393  0
C  C94  1  0.95742062  0.05510241  0.36603347  1  1.359611  0  0.18677  0.328241  0  4.086866  0
C  C95  1  0.37849088  0.44495098  0.13401985  1  1.4042  0  0.187907  0.330006  0  4.089357  0
C  C96  1  0.18568375  0.72671884  0.62887285  1  0.256793  0  -0.132015  -0.277331  0  3.883369  0
C  C97  1  0.54117108  0.77317934  0.87120448  1  0.264502  0  -0.13206  -0.274943  0  3.883522  0
C  C98  1  0.81431549  0.27328056  0.37112801  1  0.256827  0  -0.132032  -0.277371  0  3.883335  0
C  C99  1  0.45882474  0.22682564  0.12879396  1  0.264677  0  -0.132046  -0.275021  0  3.883543  0
C  C100  1  0.00273452  0.84599540  0.55769686  1  0.242551  0  -0.131407  -0.288376  0  3.935976  0
C  C101  1  0.40667926  0.65369282  0.94245041  1  0.285549  0  -0.13055  -0.283662  0  3.936789  0
C  C102  1  0.99726431  0.15400494  0.44230391  1  0.242551  0  -0.131382  -0.288342  0  3.936041  0
C  C103  1  0.59331957  0.34630751  0.05754886  1  0.285562  0  -0.130514  -0.283623  0  3.936793  0
C  C104  1  0.46033073  0.92993835  0.68141098  1  1.353559  0  0.183058  0.329527  0  4.083575  0
C  C105  1  0.07200018  0.57008044  0.81851619  1  1.377532  0  0.181235  0.325288  0  4.087171  0
C  C106  1  0.53966583  0.07006291  0.31858798  1  1.353536  0  0.183034  0.329516  0  4.083594  0
C  C107  1  0.92799815  0.42991895  0.18148182  1  1.377646  0  0.181214  0.325212  0  4.086949  0
C  C108  1  0.70347181  0.81937447  0.67813168  1  0.240019  0  -0.132411  -0.284452  0  3.890883  0
C  C109  1  0.20126314  0.68056350  0.82193891  1  0.252212  0  -0.132399  -0.286561  0  3.892194  0
C  C110  1  0.29652517  0.18062586  0.32186788  1  0.239987  0  -0.13241  -0.28444  0  3.890857  0
C  C111  1  0.79873721  0.31943962  0.17806064  1  0.252209  0  -0.132427  -0.286616  0  3.892243  0
C  C112  1  0.56601415  0.70806605  0.67954372  1  0.207837  0  -0.136201  -0.277112  0  3.870516  0
C  C113  1  0.95399826  0.79202955  0.82028173  1  0.241851  0  -0.136969  -0.277325  0  3.870306  0
C  C114  1  0.43398519  0.29193520  0.32045481  1  0.207873  0  -0.136248  -0.277231  0  3.87045  0
C  C115  1  0.04600149  0.20797078  0.17971790  1  0.241971  0  -0.136972  -0.277378  0  3.87018  0
N  N116  1  0.07446657  0.84395993  0.60830404  1  -1.222237  0  -0.275367  0.04041  0  3.704422  0
N  N117  1  0.52679991  0.65588730  0.89175450  1  -1.216546  0  -0.277032  0.037019  0  3.709804  0
N  N118  1  0.92553032  0.15603854  0.39169734  1  -1.22228  0  -0.275385  0.040336  0  3.704542  0
N  N119  1  0.47319859  0.34411582  0.10824534  1  -1.216528  0  -0.277059  0.03701  0  3.709701  0
N  N120  1  0.57097824  0.82364326  0.68092646  1  -1.199555  0  -0.273636  0.047103  0  3.705268  0
N  N121  1  0.07586742  0.67637645  0.81899793  1  -1.221257  0  -0.273436  0.049747  0  3.705006  0
N  N122  1  0.42902110  0.17635800  0.31907108  1  -1.199554  0  -0.273623  0.04726  0  3.705167  0
N  N123  1  0.92413428  0.32362573  0.18100107  1  -1.22145  0  -0.273373  0.049888  0  3.7051  0
N  N124  1  0.20283224  0.18805352  0.54777285  1  0.835268  0  0.080565  0.727167  0  4.433221  0
N  N125  1  0.93850071  0.31210016  0.95219718  1  0.828999  0  0.079685  0.724666  0  4.436971  0
N  N126  1  0.79716977  0.81194589  0.45222857  1  0.835289  0  0.080572  0.727142  0  4.433041  0
N  N127  1  0.06149914  0.68790203  0.04780161  1  0.829008  0  0.079675  0.724587  0  4.437033  0
O  O128  1  0.28089681  0.15742909  0.73110714  1  -1.173708  0  -0.379695  -0.641447  0  2.346005  0
O  O129  1  0.16966525  0.34207269  0.76908938  1  -1.183745  0  -0.379381  -0.641064  0  2.347758  0
O  O130  1  0.71911038  0.84256287  0.26889674  1  -1.173601  0  -0.379703  -0.641423  0  2.34614  0
O  O131  1  0.83033618  0.65792392  0.23091012  1  -1.183768  0  -0.379411  -0.641065  0  2.347743  0
O  O132  1  0.90156919  0.16612038  0.72238162  1  -1.189977  0  -0.378094  -0.647497  0  2.283738  0
O  O133  1  0.78985845  0.33436568  0.77753993  1  -1.168556  0  -0.37765  -0.647983  0  2.284378  0
O  O134  1  0.09843335  0.83387994  0.27761657  1  -1.190058  0  -0.378072  -0.647425  0  2.283743  0
O  O135  1  0.21014132  0.66563464  0.22245770  1  -1.16855  0  -0.377677  -0.647987  0  2.28406  0
O  O136  1  0.03176580  0.32195234  0.68110845  1  -1.20377  0  -0.416014  -0.731172  0  2.502583  0
O  O137  1  0.03447361  0.17813186  0.81894995  1  -1.204328  0  -0.415675  -0.730394  0  2.501633  0
O  O138  1  0.96823891  0.67804520  0.31889038  1  -1.20371  0  -0.416089  -0.731214  0  2.502585  0
O  O139  1  0.96552388  0.82186940  0.18105036  1  -1.204313  0  -0.415673  -0.730369  0  2.501547  0
O  O140  1  0.92462545  0.52152261  0.68900235  1  -1.154665  0  -0.346419  -0.582287  0  2.163987  0
O  O141  1  0.13441208  0.97861816  0.81091315  1  -1.160314  0  -0.346266  -0.581968  0  2.164968  0
O  O142  1  0.07538001  0.47847120  0.31099601  1  -1.154787  0  -0.346401  -0.582337  0  2.163787  0
O  O143  1  0.86559354  0.02137939  0.18909052  1  -1.160457  0  -0.346251  -0.58196  0  2.165084  0
O  O144  1  0.10311636  0.94656277  0.67715561  1  -1.170124  0  -0.367807  -0.54827  0  2.433037  0
O  O145  1  0.72682106  0.55353992  0.82277381  1  -1.179006  0  -0.368714  -0.549496  0  2.433306  0
O  O146  1  0.89687608  0.05343943  0.32284633  1  -1.169707  0  -0.367777  -0.548271  0  2.433012  0
O  O147  1  0.27317694  0.44646227  0.17722626  1  -1.178985  0  -0.36871  -0.549441  0  2.433268  0
O  O148  1  0.34327821  0.93955083  0.68340005  1  -1.16773  0  -0.383677  -0.564874  0  2.380784  0
O  O149  1  0.96657231  0.56050013  0.81647369  1  -1.173061  0  -0.382407  -0.562886  0  2.382509  0
O  O150  1  0.65671887  0.06045136  0.31659718  1  -1.167652  0  -0.383624  -0.56486  0  2.380729  0
O  O151  1  0.03343475  0.43949834  0.18352511  1  -1.173077  0  -0.382419  -0.562882  0  2.382096  0
O  O152  1  0.27446715  0.17715067  0.59058056  1  -0.554439  0  -0.237654  -0.507185  0  2.001551  0
O  O153  1  0.04209756  0.32295817  0.90944796  1  -0.557622  0  -0.238227  -0.507187  0  2.002557  0
O  O154  1  0.72553403  0.82285059  0.40942017  1  -0.554238  0  -0.237706  -0.507229  0  2.001476  0
O  O155  1  0.95790178  0.67704309  0.09055207  1  -0.557605  0  -0.238233  -0.507171  0  2.002548  0
O  O156  1  0.22842401  0.22388527  0.48358268  1  -0.499495  0  -0.154721  -0.387828  0  1.962857  0
O  O157  1  0.93569461  0.27615072  0.01638743  1  -0.485582  0  -0.154359  -0.386773  0  1.963348  0
O  O158  1  0.77157676  0.77611692  0.51641846  1  -0.499535  0  -0.154672  -0.387767  0  1.962867  0
O  O159  1  0.06430422  0.72384961  0.98361134  1  -0.485668  0  -0.154363  -0.386756  0  1.963319  0
O  O160  1  0.09982667  0.15989021  0.57621888  1  -0.597314  0  -0.258673  -0.557214  0  2.036601  0
O  O161  1  0.83577054  0.34044965  0.92369324  1  -0.60249  0  -0.257843  -0.555953  0  2.038132  0
O  O162  1  0.90017576  0.84010826  0.42378164  1  -0.597385  0  -0.258656  -0.557205  0  2.036496  0
O  O163  1  0.16422940  0.65955439  0.07630472  1  -0.602454  0  -0.257824  -0.555928  0  2.038247  0
F  F164  1  0.49408679  0.03871361  0.80951071  1  -0.622339  0  -0.077662  -0.103617  0  1.424058  0
F  F165  1  0.34209884  0.46075421  0.69039649  1  -0.62925  0  -0.077253  -0.10235  0  1.424981  0
F  F166  1  0.50591883  0.96128394  0.19049147  1  -0.622332  0  -0.077619  -0.103582  0  1.424146  0
F  F167  1  0.65789940  0.53924333  0.30960286  1  -0.629273  0  -0.077222  -0.102323  0  1.425113  0
F  F168  1  0.73155593  0.03799884  0.80733850  1  -0.623934  0  -0.077015  -0.098023  0  1.432498  0
F  F169  1  0.57625110  0.46215785  0.69268639  1  -0.616976  0  -0.077178  -0.098455  0  1.432697  0
F  F170  1  0.26845348  0.96200056  0.19266176  1  -0.624062  0  -0.077005  -0.09803  0  1.432566  0
F  F171  1  0.42374731  0.53784341  0.30731328  1  -0.616972  0  -0.077171  -0.098466  0  1.432679  0
F  F172  1  0.81314661  0.41085025  0.58136314  1  -0.62284  0  -0.085548  -0.106289  0  1.382483  0
F  F173  1  0.80482872  0.08886885  0.91891856  1  -0.622493  0  -0.085459  -0.106258  0  1.379903  0
F  F174  1  0.18685767  0.58914822  0.41863709  1  -0.622798  0  -0.08555  -0.106293  0  1.382449  0
F  F175  1  0.19517069  0.91113427  0.08108462  1  -0.622526  0  -0.085345  -0.106133  0  1.380039  0
F  F176  1  0.17132204  0.52817823  0.56048207  1  -0.620818  0  -0.081913  -0.109163  0  1.382459  0
F  F177  1  0.25969070  0.97215851  0.93921000  1  -0.622814  0  -0.082715  -0.110398  0  1.383371  0
F  F178  1  0.82867544  0.47182303  0.43951925  1  -0.620817  0  -0.081875  -0.109081  0  1.382506  0
F  F179  1  0.74030720  0.02784183  0.06079190  1  -0.622851  0  -0.082698  -0.110374  0  1.383293  0
