# generated using pymatgen
data_AlH12(C6O5)6
_symmetry_space_group_name_H-M   'P 1'
_cell_length_a   4.43962964
_cell_length_b   29.11291697
_cell_length_c   29.11009862
_cell_angle_alpha   119.98816378
_cell_angle_beta   89.99823454
_cell_angle_gamma   89.99801705
_symmetry_Int_Tables_number   1
_chemical_formula_structural   AlH12(C6O5)6
_chemical_formula_sum   'Al2 H24 C72 O60'
_cell_volume   3258.80637305
_cell_formula_units_Z   2
loop_
 _symmetry_equiv_pos_site_id
 _symmetry_equiv_pos_as_xyz
  1  'x, y, z'
loop_
 _atom_site_type_symbol
 _atom_site_label
 _atom_site_symmetry_multiplicity
 _atom_site_fract_x
 _atom_site_fract_y
 _atom_site_fract_z
 _atom_site_occupancy
 _atom_site_pbe_bader_charge
 _atom_site_pbe_bader_spin_density
 _atom_site_pbe_cm5_charge
 _atom_site_pbe_ddec_charge
 _atom_site_pbe_ddec_spin_density
 _atom_site_pbe_ddec_sum_bond_order
 _atom_site_pbe_magmom
Al  Al0  1  0.00011543  0.50000102  0.50000201  1  2.532964  0  0.501155  1.694489  0  2.394107  0
Al  Al1  1  0.99997098  0.16667016  0.83334197  1  2.535448  0  0.50096  1.690359  0  2.399864  0
H  H2  1  0.82069999  0.12871425  0.65267291  1  0.679533  0  0.318422  0.385369  0  0.954767  0
H  H3  1  0.17802933  0.34722686  0.87116728  1  0.674707  0  0.318883  0.385765  0  0.954318  0
H  H4  1  0.78532600  0.40658869  0.80769602  1  0.6826  0  0.320389  0.391773  0  0.941181  0
H  H5  1  0.21410759  0.19230906  0.59339721  1  0.681379  0  0.320245  0.391142  0  0.941884  0
H  H6  1  0.78552426  0.26006833  0.52552603  1  0.681555  0  0.320166  0.391101  0  0.941957  0
H  H7  1  0.21446269  0.47441315  0.73985480  1  0.681903  0  0.320165  0.391044  0  0.941951  0
H  H8  1  0.82180718  0.53784117  0.68051535  1  0.682503  0  0.318505  0.385377  0  0.954745  0
H  H9  1  0.17847640  0.31938692  0.46207978  1  0.684628  0  0.318652  0.385994  0  0.95383  0
H  H10  1  0.82087508  0.02394835  0.87127688  1  0.670204  0  0.318563  0.385541  0  0.954488  0
H  H11  1  0.17803139  0.02393913  0.65277475  1  0.672544  0  0.318885  0.385981  0  0.954055  0
H  H12  1  0.78533464  0.90110697  0.59341573  1  0.684627  0  0.320366  0.391807  0  0.941076  0
H  H13  1  0.21413200  0.90107594  0.80769461  1  0.681824  0  0.320257  0.391187  0  0.941829  0
H  H14  1  0.78546830  0.76545096  0.73991684  1  0.69124  0  0.320097  0.390826  0  0.942302  0
H  H15  1  0.21442028  0.76544375  0.52556325  1  0.683405  0  0.320192  0.391167  0  0.94179  0
H  H16  1  0.82174916  0.64267277  0.46213267  1  0.694562  0  0.318508  0.385315  0  0.9548  0
H  H17  1  0.17835719  0.64268631  0.68058833  1  0.695471  0  0.318513  0.385658  0  0.954325  0
H  H18  1  0.82060385  0.34732276  0.97604645  1  0.672823  0  0.318384  0.385137  0  0.955047  0
H  H19  1  0.17825468  0.12881896  0.97607306  1  0.667062  0  0.318861  0.385882  0  0.954215  0
H  H20  1  0.78551503  0.19229459  0.09890636  1  0.682985  0  0.320243  0.391602  0  0.941354  0
H  H21  1  0.21408592  0.40659254  0.09891068  1  0.682679  0  0.320244  0.391237  0  0.941732  0
H  H22  1  0.78551649  0.47446737  0.23453078  1  0.68328  0  0.320207  0.391135  0  0.941918  0
H  H23  1  0.21445389  0.26014701  0.23457115  1  0.690554  0  0.319963  0.390812  0  0.942299  0
H  H24  1  0.82179285  0.31949454  0.35734156  1  0.694323  0  0.318516  0.385308  0  0.954808  0
H  H25  1  0.17836137  0.53791473  0.35729518  1  0.694784  0  0.318475  0.385724  0  0.954167  0
C  C26  1  0.50011053  0.45962933  0.41920623  1  1.661564  0  0.282233  0.683493  0  4.03789  0
C  C27  1  0.50009655  0.45959653  0.54039085  1  1.652551  0  0.282151  0.683304  0  4.038075  0
C  C28  1  0.50006160  0.58080035  0.54040597  1  1.662344  0  0.282046  0.683289  0  4.037565  0
C  C29  1  0.49994031  0.20705280  0.79291935  1  1.600607  0  0.283324  0.685625  0  4.035668  0
C  C30  1  0.49995498  0.08586006  0.79294945  1  1.592936  0  0.283113  0.685629  0  4.035523  0
C  C31  1  0.49992857  0.20707660  0.91415109  1  1.655989  0  0.28327  0.685754  0  4.035555  0
C  C32  1  0.49991086  0.23712587  0.76284796  1  0.256492  0  0.01128  -0.039913  0  3.866026  0
C  C33  1  0.48706690  0.20977300  0.70706607  1  -0.074948  0  -0.000616  -0.084103  0  3.959701  0
C  C34  1  0.52053799  0.23748804  0.67946180  1  0.060936  0  0.004542  -0.099266  0  3.923609  0
C  C35  1  0.49988576  0.29327625  0.70672732  1  0.086122  0  0.013616  0.108897  0  4.087177  0
C  C36  1  0.47914360  0.32053567  0.76251330  1  0.059673  0  0.004561  -0.09905  0  3.923476  0
C  C37  1  0.51259023  0.29290745  0.79020725  1  -0.072383  0  -0.000678  -0.084644  0  3.960061  0
C  C38  1  0.49988786  0.32125283  0.67874590  1  -0.319258  0  -0.028132  -0.069518  0  4.064003  0
C  C39  1  0.49997107  0.34540027  0.65454268  1  0.052742  0  -0.026828  -0.067583  0  4.06273  0
C  C40  1  0.49998218  0.37337589  0.62656704  1  0.152274  0  0.013484  0.108819  0  4.086477  0
C  C41  1  0.47931548  0.34610593  0.57077924  1  0.003565  0  0.004415  -0.098847  0  3.921128  0
C  C42  1  0.51279786  0.37373171  0.54308564  1  -0.045989  0  -0.00077  -0.084676  0  3.960439  0
C  C43  1  0.50005393  0.42951089  0.57044253  1  0.11451  0  0.011524  -0.038962  0  3.865243  0
C  C44  1  0.48728089  0.45686489  0.62621918  1  -0.046735  0  -0.000558  -0.084505  0  3.959424  0
C  C45  1  0.52067574  0.42916267  0.65383671  1  0.009002  0  0.004401  -0.098698  0  3.920857  0
C  C46  1  0.49992006  0.02571906  0.76287750  1  0.114201  0  0.011246  -0.040193  0  3.866927  0
C  C47  1  0.48711530  0.99729155  0.79023012  1  -0.073457  0  -0.000693  -0.084256  0  3.95989  0
C  C48  1  0.52051407  0.94197542  0.76251998  1  0.034462  0  0.004701  -0.098948  0  3.923194  0
C  C49  1  0.49981611  0.91344994  0.70673252  1  0.095345  0  0.01345  0.108868  0  4.087027  0
C  C50  1  0.47910224  0.94197950  0.67947424  1  0.019656  0  0.004683  -0.099059  0  3.923432  0
C  C51  1  0.51255816  0.99729616  0.70709803  1  0.003732  0  -0.000544  -0.084526  0  3.960668  0
C  C52  1  0.49979562  0.85748987  0.67875180  1  -0.248309  0  -0.027943  -0.069397  0  4.062364  0
C  C53  1  0.49988533  0.80914316  0.65459106  1  -0.046982  0  -0.026869  -0.06759  0  4.061348  0
C  C54  1  0.49990539  0.75319178  0.62660992  1  0.316822  0  0.013718  0.108922  0  4.086314  0
C  C55  1  0.47924193  0.72467307  0.65387865  1  -0.063161  0  0.004411  -0.09887  0  3.921034  0
C  C56  1  0.51271501  0.66935899  0.62625706  1  0.105383  0  -0.000582  -0.084313  0  3.960803  0
C  C57  1  0.50002445  0.64093319  0.57048126  1  -0.001481  0  0.011471  -0.03936  0  3.865854  0
C  C58  1  0.48726850  0.66935526  0.54312852  1  -0.043363  0  -0.000791  -0.084561  0  3.960029  0
C  C59  1  0.52061403  0.72466993  0.57082293  1  -0.039688  0  0.00431  -0.098895  0  3.921102  0
C  C60  1  0.49983977  0.23714643  0.97429116  1  0.051163  0  0.011084  -0.040509  0  3.866809  0
C  C61  1  0.48698863  0.29292561  0.00272434  1  0.004593  0  -0.000593  -0.084045  0  3.959763  0
C  C62  1  0.52051229  0.32054097  0.05803957  1  0.020187  0  0.004503  -0.09936  0  3.923549  0
C  C63  1  0.49992263  0.29326602  0.08655521  1  0.11152  0  0.013676  0.109103  0  4.0868  0
C  C64  1  0.47920454  0.23748265  0.05802398  1  0.035612  0  0.004563  -0.099076  0  3.923535  0
C  C65  1  0.51258965  0.20977924  0.00270399  1  -0.075136  0  -0.000501  -0.084379  0  3.960476  0
C  C66  1  0.49997705  0.32126422  0.14251500  1  -0.060112  0  -0.027823  -0.069271  0  4.062143  0
C  C67  1  0.49999109  0.34544451  0.19086633  1  -0.14889  0  -0.026929  -0.067664  0  4.061474  0
C  C68  1  0.49994416  0.37343915  0.24681938  1  0.21475  0  0.013483  0.108783  0  4.086499  0
C  C69  1  0.47926915  0.42922373  0.27533912  1  -0.040394  0  0.004714  -0.098555  0  3.92109  0
C  C70  1  0.51270944  0.45692824  0.33065388  1  -0.042846  0  -0.000806  -0.084648  0  3.960828  0
C  C71  1  0.49998534  0.42957002  0.35907350  1  -0.001726  0  0.011455  -0.039034  0  3.865806  0
C  C72  1  0.48719132  0.37379571  0.33064855  1  0.105988  0  -0.000498  -0.084538  0  3.959901  0
C  C73  1  0.52062145  0.34616449  0.27533334  1  -0.062669  0  0.004149  -0.099184  0  3.921494  0
C  C74  1  0.40521226  0.15202076  0.67376534  1  1.604693  0  0.250451  0.609536  0  4.112412  0
C  C75  1  0.59379631  0.32620484  0.84798728  1  1.606795  0  0.250313  0.608776  0  4.113699  0
C  C76  1  0.37854278  0.37775969  0.79066238  1  1.588534  0  0.252114  0.610229  0  4.132202  0
C  C77  1  0.62097422  0.20934075  0.62223072  1  1.586873  0  0.252179  0.609787  0  4.132178  0
C  C78  1  0.37875764  0.28887341  0.54260096  1  1.592226  0  0.252201  0.609349  0  4.13253  0
C  C79  1  0.62122924  0.45733352  0.71106206  1  1.590674  0  0.25216  0.609203  0  4.132253  0
C  C80  1  0.40603184  0.51464521  0.65950153  1  1.598834  0  0.250125  0.607928  0  4.114449  0
C  C81  1  0.59417741  0.34044060  0.48531234  1  1.595645  0  0.250963  0.6092  0  4.114892  0
C  C82  1  0.40533222  0.02175545  0.84798257  1  1.601929  0  0.250408  0.609653  0  4.112537  0
C  C83  1  0.59380539  0.02178571  0.67381352  1  1.596605  0  0.250422  0.609135  0  4.114478  0
C  C84  1  0.37853993  0.91289240  0.62225502  1  1.592099  0  0.252083  0.610359  0  4.132408  0
C  C85  1  0.62098453  0.91287549  0.79064633  1  1.58989  0  0.252125  0.609713  0  4.133047  0
C  C86  1  0.37869287  0.75373891  0.71110749  1  1.592485  0  0.251953  0.609401  0  4.132798  0
C  C87  1  0.62118964  0.75373187  0.54266100  1  1.590482  0  0.251976  0.609081  0  4.13279  0
C  C88  1  0.40597044  0.64485042  0.48535393  1  1.605366  0  0.250232  0.608338  0  4.114922  0
C  C89  1  0.59409398  0.64486386  0.65953070  1  1.604455  0  0.250397  0.608533  0  4.115655  0
C  C90  1  0.40512730  0.32622305  0.97827534  1  1.594292  0  0.250499  0.609987  0  4.112537  0
C  C91  1  0.59397539  0.15200736  0.97822087  1  1.604253  0  0.250324  0.609213  0  4.113665  0
C  C92  1  0.37869838  0.20934191  0.08710490  1  1.591684  0  0.252017  0.610281  0  4.132704  0
C  C93  1  0.62095506  0.37777320  0.08713653  1  1.591887  0  0.252232  0.609905  0  4.132102  0
C  C94  1  0.37873376  0.45739195  0.24627888  1  1.590915  0  0.251978  0.609455  0  4.133171  0
C  C95  1  0.62120895  0.28893589  0.24627182  1  1.592269  0  0.252274  0.609439  0  4.131603  0
C  C96  1  0.40600864  0.34051481  0.35514283  1  1.607395  0  0.249963  0.607985  0  4.115219  0
C  C97  1  0.59409967  0.51469719  0.35513709  1  1.60345  0  0.250789  0.609081  0  4.114814  0
O  O98  1  0.73511879  0.55849578  0.54510138  1  -1.249103  0  -0.230595  -0.598429  0  2.346535  0
O  O99  1  0.73516026  0.48661997  0.44151643  1  -1.250126  0  -0.230696  -0.598754  0  2.346943  0
O  O100  1  0.73516784  0.45489897  0.51339101  1  -1.246147  0  -0.230606  -0.598529  0  2.346844  0
O  O101  1  0.26500960  0.55849804  0.51340679  1  -1.25025  0  -0.230571  -0.598577  0  2.346773  0
O  O102  1  0.26503641  0.48659921  0.54509093  1  -1.245816  0  -0.230691  -0.598699  0  2.347163  0
O  O103  1  0.26506702  0.45491685  0.44150529  1  -1.248544  0  -0.230706  -0.598647  0  2.346855  0
O  O104  1  0.73503517  0.18009106  0.89184732  1  -1.247989  0  -0.230913  -0.598608  0  2.346554  0
O  O105  1  0.73505240  0.21175043  0.81990869  1  -1.249678  0  -0.23104  -0.598606  0  2.346506  0
O  O106  1  0.73506765  0.10815127  0.78825350  1  -1.246582  0  -0.230974  -0.598612  0  2.346309  0
O  O107  1  0.26492837  0.21178333  0.89183939  1  -1.246759  0  -0.230918  -0.598513  0  2.346386  0
O  O108  1  0.26494299  0.10817768  0.81996300  1  -1.248496  0  -0.230719  -0.598404  0  2.346297  0
O  O109  1  0.26494549  0.18003875  0.78822323  1  -1.250364  0  -0.230854  -0.598583  0  2.346471  0
O  O110  1  0.60407392  0.11738153  0.64217707  1  -1.15138  0  -0.300505  -0.436832  0  2.309423  0
O  O111  1  0.14035947  0.13956733  0.67387099  1  -1.152906  0  -0.268553  -0.478099  0  2.250943  0
O  O112  1  0.39456528  0.35776730  0.88255513  1  -1.147201  0  -0.301569  -0.437679  0  2.309527  0
O  O113  1  0.85836758  0.32610520  0.86057753  1  -1.154774  0  -0.268055  -0.476959  0  2.251595  0
O  O114  1  0.56598414  0.41750821  0.81446980  1  -1.156062  0  -0.299413  -0.43379  0  2.267065  0
O  O115  1  0.10469882  0.38452194  0.78995790  1  -1.149394  0  -0.269453  -0.4907  0  2.231255  0
O  O116  1  0.43346519  0.18554481  0.58248868  1  -1.15484  0  -0.299559  -0.4336  0  2.267192  0
O  O117  1  0.89476183  0.21006428  0.61543434  1  -1.14739  0  -0.269383  -0.489915  0  2.231325  0
O  O118  1  0.56624847  0.24913666  0.51872607  1  -1.146628  0  -0.299121  -0.433055  0  2.269138  0
O  O119  1  0.10497709  0.28207891  0.54333094  1  -1.14706  0  -0.269491  -0.490048  0  2.229906  0
O  O120  1  0.43372048  0.48122014  0.75079671  1  -1.14512  0  -0.299057  -0.432897  0  2.268875  0
O  O121  1  0.89498055  0.45657507  0.71786294  1  -1.147628  0  -0.269631  -0.49016  0  2.229561  0
O  O122  1  0.60522368  0.54922033  0.69104800  1  -1.145786  0  -0.30092  -0.436784  0  2.309833  0
O  O123  1  0.14137872  0.52720669  0.65942132  1  -1.153626  0  -0.267955  -0.476692  0  2.251591  0
O  O124  1  0.39508693  0.30886925  0.45072397  1  -1.146091  0  -0.301172  -0.437607  0  2.309753  0
O  O125  1  0.85886199  0.34053870  0.47277150  1  -1.153605  0  -0.26849  -0.477489  0  2.251254  0
O  O126  1  0.60423735  0.02478148  0.88260368  1  -1.134254  0  -0.300634  -0.437001  0  2.309012  0
O  O127  1  0.14051430  0.03432404  0.86046365  1  -1.15237  0  -0.268676  -0.478256  0  2.250889  0
O  O128  1  0.39459652  0.02477740  0.64224108  1  -1.137975  0  -0.301684  -0.438036  0  2.30967  0
O  O129  1  0.85838780  0.03445940  0.67389496  1  -1.152977  0  -0.268136  -0.477166  0  2.251413  0
O  O130  1  0.56599969  0.89696921  0.58250602  1  -1.136032  0  -0.299462  -0.4339  0  2.267115  0
O  O131  1  0.10470928  0.90542455  0.61548319  1  -1.151214  0  -0.269508  -0.490846  0  2.231231  0
O  O132  1  0.43348762  0.89693474  0.81445164  1  -1.1346  0  -0.299476  -0.433546  0  2.267464  0
O  O133  1  0.89477939  0.90537495  0.78994306  1  -1.147971  0  -0.269423  -0.490006  0  2.231468  0
O  O134  1  0.56617658  0.76957915  0.75084105  1  -1.153861  0  -0.29887  -0.432785  0  2.269513  0
O  O135  1  0.10491476  0.76126179  0.71791239  1  -1.1483  0  -0.269556  -0.490148  0  2.22969  0
O  O136  1  0.43370261  0.76957135  0.51876338  1  -1.145365  0  -0.298978  -0.432976  0  2.26926  0
O  O137  1  0.89494494  0.76127870  0.54340163  1  -1.146753  0  -0.269542  -0.490025  0  2.2292  0
O  O138  1  0.60513229  0.64183335  0.45077523  1  -1.160432  0  -0.300852  -0.43685  0  2.31031  0
O  O139  1  0.14129827  0.63222854  0.47279993  1  -1.152818  0  -0.268111  -0.47687  0  2.251211  0
O  O140  1  0.39497460  0.64184685  0.69110110  1  -1.163941  0  -0.300897  -0.437174  0  2.31001  0
O  O141  1  0.85877869  0.63223513  0.65945156  1  -1.151883  0  -0.268241  -0.477104  0  2.251213  0
O  O142  1  0.60395083  0.35780796  0.97521358  1  -1.137132  0  -0.300679  -0.436883  0  2.309538  0
O  O143  1  0.14026775  0.32611879  0.96571914  1  -1.152036  0  -0.268562  -0.478258  0  2.250561  0
O  O144  1  0.39480914  0.11743858  0.97522652  1  -1.133003  0  -0.301341  -0.437635  0  2.30944  0
O  O145  1  0.85858837  0.13943055  0.96555580  1  -1.151885  0  -0.268221  -0.477506  0  2.251536  0
O  O146  1  0.56616173  0.18553181  0.10304482  1  -1.135517  0  -0.29927  -0.433704  0  2.267477  0
O  O147  1  0.10487653  0.21004597  0.09459053  1  -1.150048  0  -0.269541  -0.490821  0  2.231142  0
O  O148  1  0.43342084  0.41751058  0.10305832  1  -1.136056  0  -0.299541  -0.433592  0  2.267001  0
O  O149  1  0.89474515  0.38456557  0.09464187  1  -1.150146  0  -0.269351  -0.490082  0  2.231527  0
O  O150  1  0.56621607  0.48125725  0.23040383  1  -1.145898  0  -0.299055  -0.43308  0  2.269506  0
O  O151  1  0.10496490  0.45666842  0.23874901  1  -1.147688  0  -0.269605  -0.490302  0  2.22972  0
O  O152  1  0.43372313  0.24920463  0.23043739  1  -1.152142  0  -0.298816  -0.432743  0  2.268901  0
O  O153  1  0.89498932  0.28214009  0.23874297  1  -1.149024  0  -0.269635  -0.49004  0  2.22921  0
O  O154  1  0.60519803  0.30897168  0.35818264  1  -1.162407  0  -0.30081  -0.436593  0  2.310194  0
O  O155  1  0.14135553  0.34059244  0.36778412  1  -1.15436  0  -0.26803  -0.476845  0  2.251509  0
O  O156  1  0.39496693  0.54927313  0.35813334  1  -1.160551  0  -0.301092  -0.437463  0  2.310013  0
O  O157  1  0.85877409  0.52724472  0.36776946  1  -1.152533  0  -0.268217  -0.477279  0  2.251164  0
