# generated using pymatgen
data_AgH12C16S(NO)3
_symmetry_space_group_name_H-M   'P 1'
_cell_length_a   10.08541294
_cell_length_b   10.91897718
_cell_length_c   14.62942387
_cell_angle_alpha   90.00003328
_cell_angle_beta   90.00002795
_cell_angle_gamma   92.04498862
_symmetry_Int_Tables_number   1
_chemical_formula_structural   AgH12C16S(NO)3
_chemical_formula_sum   'Ag4 H48 C64 S4 N12 O12'
_cell_volume   1610.00113753
_cell_formula_units_Z   4
loop_
 _symmetry_equiv_pos_site_id
 _symmetry_equiv_pos_as_xyz
  1  'x, y, z'
loop_
 _atom_site_type_symbol
 _atom_site_label
 _atom_site_symmetry_multiplicity
 _atom_site_fract_x
 _atom_site_fract_y
 _atom_site_fract_z
 _atom_site_occupancy
 _atom_site_hle17_bader_spin_density
 _atom_site_hle17_ddec_charge
 _atom_site_hle17_ddec_spin_density
 _atom_site_hle17_ddec_sum_bond_order
 _atom_site_hle17_magmom
 _atom_site_hse06_10hf_bader_spin_density
 _atom_site_hse06_10hf_ddec_charge
 _atom_site_hse06_10hf_ddec_spin_density
 _atom_site_hse06_10hf_ddec_sum_bond_order
 _atom_site_hse06_10hf_magmom
 _atom_site_hse06_bader_spin_density
 _atom_site_hse06_ddec_charge
 _atom_site_hse06_ddec_spin_density
 _atom_site_hse06_ddec_sum_bond_order
 _atom_site_hse06_magmom
 _atom_site_pbe_bader_spin_density
 _atom_site_pbe_cm5_charge
 _atom_site_pbe_ddec_charge
 _atom_site_pbe_ddec_spin_density
 _atom_site_pbe_ddec_sum_bond_order
 _atom_site_pbe_magmom
Ag  Ag0  1  0.93686502  0.62989561  0.75021302  1  0  0.535396  0  1.614225  0  0  0.418422  0  2.104291  0  0  0.439403  0  2.055569  0  0  0.464964  0.404862  0  2.1381  0
Ag  Ag1  1  0.56313462  0.87010531  0.25020973  1  0  0.535342  0  1.614405  0  0  0.418361  0  2.104493  0  0  0.43934  0  2.055771  0  0  0.464956  0.404804  0  2.1383  0
Ag  Ag2  1  0.06313551  0.37010483  0.24978710  1  0  0.535368  0  1.614286  0  0  0.418402  0  2.104351  0  0  0.439381  0  2.05563  0  0  0.464954  0.404842  0  2.138161  0
Ag  Ag3  1  0.43686587  0.12989422  0.74979039  1  0  0.535327  0  1.614314  0  0  0.418346  0  2.104384  0  0  0.439326  0  2.055664  0  0  0.464948  0.404786  0  2.138193  0
H  H4  1  0.84522368  0.44680591  0.07945792  1  0  0.110494  0  0.947839  0  0  0.1193  0  1.009961  0  0  0.122502  0  1.008113  0  0  0.109398  0.117026  0  1.011214  0
H  H5  1  0.65477628  0.05318961  0.57945561  1  0  0.110471  0  0.947802  0  0  0.119285  0  1.009931  0  0  0.122483  0  1.008082  0  0  0.109406  0.117017  0  1.011188  0
H  H6  1  0.15477677  0.55319270  0.92054289  1  0  0.110502  0  0.947843  0  0  0.119316  0  1.009963  0  0  0.122516  0  1.008113  0  0  0.109407  0.117044  0  1.011215  0
H  H7  1  0.34522223  0.94680992  0.42054451  1  0  0.110492  0  0.94782  0  0  0.119304  0  1.009949  0  0  0.122501  0  1.008104  0  0  0.109424  0.117036  0  1.011206  0
H  H8  1  0.73671625  0.31186541  0.19615351  1  0  0.091386  0  0.983487  0  0  0.09611  0  1.057444  0  0  0.099115  0  1.056205  0  0  0.096358  0.093881  0  1.058541  0
H  H9  1  0.76328291  0.18813295  0.69614994  1  0  0.091348  0  0.983536  0  0  0.09605  0  1.057519  0  0  0.099057  0  1.056283  0  0  0.096303  0.093806  0  1.058629  0
H  H10  1  0.26328424  0.68813411  0.80384798  1  0  0.091365  0  0.983444  0  0  0.096087  0  1.057407  0  0  0.099089  0  1.056173  0  0  0.096331  0.093847  0  1.058511  0
H  H11  1  0.23671662  0.81186749  0.30384882  1  0  0.091341  0  0.983493  0  0  0.096054  0  1.057466  0  0  0.099057  0  1.05623  0  0  0.096314  0.093818  0  1.058568  0
H  H12  1  0.52152455  0.20362728  0.16151982  1  0  0.101601  0  0.960001  0  0  0.110545  0  1.020608  0  0  0.112906  0  1.019694  0  0  0.106701  0.108712  0  1.021428  0
H  H13  1  0.97847264  0.29637197  0.66151774  1  0  0.101595  0  0.960033  0  0  0.11055  0  1.020618  0  0  0.112915  0  1.019705  0  0  0.106704  0.108718  0  1.021436  0
H  H14  1  0.47847396  0.79637224  0.83848098  1  0  0.10162  0  0.959988  0  0  0.110577  0  1.02058  0  0  0.112939  0  1.019667  0  0  0.106701  0.108745  0  1.021399  0
H  H15  1  0.02152590  0.70362847  0.33848170  1  0  0.101602  0  0.960025  0  0  0.11058  0  1.020594  0  0  0.112942  0  1.019682  0  0  0.10671  0.108748  0  1.02141  0
H  H16  1  0.40942916  0.23622110  0.01223847  1  0  0.109824  0  0.938416  0  0  0.123513  0  0.992194  0  0  0.125926  0  0.992246  0  0  0.108597  0.121776  0  0.992287  0
H  H17  1  0.09056901  0.26377592  0.51223761  1  0  0.109836  0  0.938452  0  0  0.123523  0  0.992227  0  0  0.125936  0  0.992279  0  0  0.108603  0.121785  0  0.992321  0
H  H18  1  0.59057137  0.76377934  0.98776234  1  0  0.109825  0  0.938425  0  0  0.123511  0  0.992206  0  0  0.125925  0  0.992258  0  0  0.108587  0.121774  0  0.992299  0
H  H19  1  0.90942847  0.73622268  0.48776252  1  0  0.109854  0  0.938407  0  0  0.123557  0  0.992165  0  0  0.125949  0  0.992244  0  0  0.108597  0.12182  0  0.992259  0
H  H20  1  0.49385175  0.48961486  0.86221938  1  0  0.105288  0  0.954726  0  0  0.121938  0  1.014811  0  0  0.121954  0  1.017548  0  0  0.102909  0.12187  0  1.013085  0
H  H21  1  0.00614971  0.01038428  0.36221728  1  0  0.105272  0  0.954756  0  0  0.121945  0  1.014817  0  0  0.12196  0  1.017557  0  0  0.102943  0.121878  0  1.01309  0
H  H22  1  0.50614969  0.51038375  0.13778143  1  0  0.105258  0  0.954741  0  0  0.121897  0  1.014844  0  0  0.121912  0  1.017582  0  0  0.10292  0.12183  0  1.013116  0
H  H23  1  0.99385181  0.98961616  0.63778285  1  0  0.10525  0  0.95474  0  0  0.121912  0  1.014818  0  0  0.121928  0  1.017556  0  0  0.102923  0.121845  0  1.013091  0
H  H24  1  0.38465898  0.35920274  0.87743046  1  0  0.113937  0  0.94988  0  0  0.126277  0  1.014604  0  0  0.127953  0  1.013949  0  0  0.101697  0.124977  0  1.015265  0
H  H25  1  0.11534154  0.14079732  0.37743050  1  0  0.113937  0  0.949861  0  0  0.126285  0  1.014593  0  0  0.127961  0  1.013939  0  0  0.1017  0.124984  0  1.015255  0
H  H26  1  0.61534257  0.64079861  0.12257035  1  0  0.113931  0  0.949844  0  0  0.12627  0  1.014576  0  0  0.127945  0  1.013921  0  0  0.101703  0.124968  0  1.015239  0
H  H27  1  0.88465701  0.85920312  0.62256962  1  0  0.113896  0  0.94987  0  0  0.12624  0  1.014611  0  0  0.127916  0  1.013956  0  0  0.101689  0.12494  0  1.015271  0
H  H28  1  0.40181338  0.44435574  0.70046316  1  0  0.123788  0  0.967825  0  0  0.134305  0  1.033434  0  0  0.136906  0  1.031773  0  0  0.103712  0.132304  0  1.034839  0
H  H29  1  0.09818907  0.05564602  0.20046315  1  0  0.123732  0  0.967884  0  0  0.134253  0  1.033483  0  0  0.136851  0  1.031818  0  0  0.103695  0.13225  0  1.034891  0
H  H30  1  0.59818715  0.55564470  0.29953697  1  0  0.123809  0  0.967827  0  0  0.134322  0  1.033429  0  0  0.136924  0  1.031767  0  0  0.103709  0.13232  0  1.034838  0
H  H31  1  0.90181146  0.94435442  0.79953697  1  0  0.123743  0  0.967877  0  0  0.134263  0  1.033479  0  0  0.136861  0  1.031817  0  0  0.103702  0.132261  0  1.034887  0
H  H32  1  0.56365043  0.51971865  0.70315914  1  0  0.111243  0  0.928839  0  0  0.126784  0  0.984805  0  0  0.127954  0  0.985227  0  0  0.1034  0.126051  0  0.984384  0
H  H33  1  0.93635118  0.98028315  0.20315738  1  0  0.111235  0  0.928826  0  0  0.126764  0  0.984821  0  0  0.12793  0  0.985241  0  0  0.103396  0.12603  0  0.9844  0
H  H34  1  0.43635013  0.48028271  0.29684030  1  0  0.111282  0  0.928832  0  0  0.126807  0  0.984812  0  0  0.127975  0  0.985235  0  0  0.103416  0.126075  0  0.984391  0
H  H35  1  0.06364831  0.01971638  0.79684206  1  0  0.111224  0  0.928848  0  0  0.12677  0  0.984821  0  0  0.127942  0  0.985241  0  0  0.103393  0.126036  0  0.9844  0
H  H36  1  0.34304844  0.29187881  0.58715448  1  0  0.106124  0  0.955687  0  0  0.114033  0  1.021038  0  0  0.117496  0  1.018784  0  0  0.102864  0.111478  0  1.022929  0
H  H37  1  0.15695393  0.20812286  0.08715456  1  0  0.106179  0  0.95565  0  0  0.114064  0  1.021041  0  0  0.117529  0  1.018786  0  0  0.102905  0.111509  0  1.022932  0
H  H38  1  0.65695110  0.70812163  0.41284564  1  0  0.106111  0  0.955786  0  0  0.114031  0  1.021128  0  0  0.117494  0  1.018874  0  0  0.102892  0.111476  0  1.023018  0
H  H39  1  0.84304664  0.79187850  0.91284624  1  0  0.106183  0  0.955668  0  0  0.114093  0  1.021023  0  0  0.117555  0  1.01877  0  0  0.102909  0.111536  0  1.022915  0
H  H40  1  0.38185665  0.20902281  0.42951805  1  0  0.0962  0  0.965335  0  0  0.102266  0  1.032266  0  0  0.105819  0  1.02956  0  0  0.099009  0.099585  0  1.034342  0
H  H41  1  0.11814592  0.29097821  0.92951721  1  0  0.096184  0  0.965371  0  0  0.102279  0  1.032283  0  0  0.105808  0  1.0296  0  0  0.099009  0.099594  0  1.034364  0
H  H42  1  0.61814391  0.79097854  0.57048207  1  0  0.096225  0  0.965264  0  0  0.102272  0  1.032228  0  0  0.105802  0  1.029544  0  0  0.099  0.099585  0  1.034308  0
H  H43  1  0.88185361  0.70902223  0.07048223  1  0  0.096203  0  0.965372  0  0  0.102309  0  1.032271  0  0  0.105832  0  1.029593  0  0  0.099016  0.099621  0  1.034347  0
H  H44  1  0.59195798  0.25510314  0.35025523  1  0  0.102819  0  0.946624  0  0  0.1117  0  1.007876  0  0  0.114959  0  1.006445  0  0  0.103616  0.109379  0  1.008955  0
H  H45  1  0.90804239  0.24489810  0.85025652  1  0  0.102827  0  0.946681  0  0  0.1117  0  1.007924  0  0  0.114959  0  1.006494  0  0  0.103614  0.109378  0  1.009004  0
H  H46  1  0.40804056  0.74489730  0.64974489  1  0  0.102751  0  0.946659  0  0  0.111638  0  1.007919  0  0  0.114899  0  1.006486  0  0  0.103585  0.109317  0  1.008998  0
H  H47  1  0.09195810  0.75510143  0.14974428  1  0  0.10283  0  0.946668  0  0  0.111704  0  1.007912  0  0  0.114963  0  1.006483  0  0  0.103617  0.109383  0  1.008991  0
H  H48  1  0.76579984  0.39223125  0.42363822  1  0  0.11505  0  0.960338  0  0  0.126658  0  1.019497  0  0  0.12979  0  1.017113  0  0  0.108388  0.124379  0  1.021252  0
H  H49  1  0.73420356  0.10777004  0.92363871  1  0  0.115062  0  0.96032  0  0  0.12666  0  1.019499  0  0  0.129792  0  1.017114  0  0  0.108375  0.124381  0  1.021254  0
H  H50  1  0.23420072  0.60777011  0.57636053  1  0  0.115046  0  0.960333  0  0  0.126653  0  1.019488  0  0  0.129785  0  1.017104  0  0  0.1084  0.124374  0  1.021244  0
H  H51  1  0.26579693  0.89222948  0.07636073  1  0  0.115064  0  0.960327  0  0  0.126668  0  1.019492  0  0  0.129798  0  1.01711  0  0  0.108374  0.124388  0  1.021248  0
C  C52  1  0.74651397  0.49898936  0.91546759  1  0  0.307311  0  3.726378  0  0  0.289236  0  3.98704  0  0  0.302015  0  4.005522  0  0  0.209408  0.280291  0  3.975096  0
C  C53  1  0.75349045  0.00101284  0.41547035  1  0  0.307302  0  3.726018  0  0  0.289232  0  3.986685  0  0  0.302017  0  4.005171  0  0  0.209419  0.280283  0  3.97474  0
C  C54  1  0.25348850  0.50101016  0.08453253  1  0  0.307257  0  3.726304  0  0  0.289185  0  3.986984  0  0  0.301964  0  4.005469  0  0  0.209402  0.280241  0  3.975037  0
C  C55  1  0.24651521  0.99899218  0.58453524  1  0  0.307211  0  3.726545  0  0  0.289132  0  3.987201  0  0  0.301908  0  4.005684  0  0  0.209384  0.280189  0  3.975257  0
C  C56  1  0.68573090  0.41970368  0.98143394  1  0  -0.03888  0  3.853245  0  0  -0.019069  0  4.080212  0  0  -0.023914  0  4.102538  0  0  9.8e-05  -0.015927  0  4.06534  0
C  C57  1  0.81426950  0.08029583  0.48142991  1  0  -0.03889  0  3.853514  0  0  -0.019092  0  4.08049  0  0  -0.02394  0  4.102813  0  0  0.000101  -0.015946  0  4.065623  0
C  C58  1  0.31427055  0.58029493  0.01856687  1  0  -0.0388  0  3.853192  0  0  -0.019014  0  4.080158  0  0  -0.02386  0  4.102482  0  0  0.000147  -0.015872  0  4.065285  0
C  C59  1  0.18572901  0.91970370  0.51856884  1  0  -0.038935  0  3.853281  0  0  -0.019108  0  4.08023  0  0  -0.023952  0  4.102552  0  0  0.000105  -0.015965  0  4.065361  0
C  C60  1  0.74961539  0.40095276  0.06537394  1  0  -0.066754  0  3.697861  0  0  -0.089102  0  3.944503  0  0  -0.089178  0  3.965104  0  0  -0.070784  -0.08898  0  3.930736  0
C  C61  1  0.75038467  0.09904549  0.56537101  1  0  -0.066791  0  3.697759  0  0  -0.089153  0  3.94444  0  0  -0.08922  0  3.965036  0  0  -0.070828  -0.089038  0  3.930667  0
C  C62  1  0.25038510  0.59904676  0.93462686  1  0  -0.066825  0  3.697856  0  0  -0.089187  0  3.944519  0  0  -0.089257  0  3.965113  0  0  -0.070836  -0.089069  0  3.930757  0
C  C63  1  0.24961483  0.90095403  0.43462843  1  0  -0.066769  0  3.697745  0  0  -0.089155  0  3.944433  0  0  -0.089226  0  3.96503  0  0  -0.070823  -0.089038  0  3.930659  0
C  C64  1  0.68883634  0.32445396  0.13028898  1  0  -0.07217  0  3.750589  0  0  -0.089715  0  4.009309  0  0  -0.09404  0  4.031381  0  0  -0.087787  -0.086938  0  3.994701  0
C  C65  1  0.81116273  0.17554343  0.63028679  1  0  -0.072063  0  3.750546  0  0  -0.089588  0  4.009273  0  0  -0.093917  0  4.031331  0  0  -0.087741  -0.086799  0  3.99468  0
C  C66  1  0.31116415  0.67554556  0.86971251  1  0  -0.072126  0  3.750558  0  0  -0.08966  0  4.00928  0  0  -0.093985  0  4.03135  0  0  -0.08776  -0.086874  0  3.994677  0
C  C67  1  0.18883581  0.82445701  0.36971265  1  0  -0.072091  0  3.750492  0  0  -0.089612  0  4.009227  0  0  -0.093934  0  4.031293  0  0  -0.087765  -0.08683  0  3.994626  0
C  C68  1  0.56726967  0.26469729  0.11089447  1  0  -0.028804  0  3.713327  0  0  -0.043915  0  3.962392  0  0  -0.0424  0  3.981514  0  0  -0.074177  -0.044664  0  3.949377  0
C  C69  1  0.93273042  0.23530100  0.61089235  1  0  -0.028811  0  3.713404  0  0  -0.043924  0  3.962454  0  0  -0.042413  0  3.981582  0  0  -0.074167  -0.044673  0  3.949435  0
C  C70  1  0.43273086  0.73530315  0.88910633  1  0  -0.028805  0  3.713389  0  0  -0.043927  0  3.962444  0  0  -0.042413  0  3.981569  0  0  -0.074161  -0.044675  0  3.949426  0
C  C71  1  0.06726614  0.76469944  0.38910709  1  0  -0.028811  0  3.713446  0  0  -0.043955  0  3.962501  0  0  -0.042439  0  3.981621  0  0  -0.074188  -0.044702  0  3.949481  0
C  C72  1  0.50432599  0.28299742  0.02710101  1  0  -0.114119  0  3.705088  0  0  -0.134511  0  3.954492  0  0  -0.139309  0  3.976252  0  0  -0.082441  -0.131303  0  3.939618  0
C  C73  1  0.99567511  0.21700264  0.52710095  1  0  -0.11418  0  3.70516  0  0  -0.134574  0  3.954571  0  0  -0.139371  0  3.976328  0  0  -0.082461  -0.131366  0  3.9397  0
C  C74  1  0.49567454  0.71700302  0.97289843  1  0  -0.114167  0  3.70516  0  0  -0.134575  0  3.954562  0  0  -0.139371  0  3.976317  0  0  -0.082462  -0.131367  0  3.939687  0
C  C75  1  0.00432343  0.78299780  0.47289849  1  0  -0.114163  0  3.705206  0  0  -0.134575  0  3.954617  0  0  -0.13935  0  3.976374  0  0  -0.08242  -0.13137  0  3.939747  0
C  C76  1  0.56082808  0.36203248  0.96163066  1  0  0.086742  0  3.731856  0  0  0.097532  0  3.974383  0  0  0.098746  0  3.998644  0  0  -6.6e-05  0.096842  0  3.957813  0
C  C77  1  0.93917230  0.13796701  0.46162876  1  0  0.086799  0  3.73193  0  0  0.097608  0  3.97447  0  0  0.098824  0  3.99873  0  0  -6.5e-05  0.096916  0  3.957901  0
C  C78  1  0.43917241  0.63796704  0.03837014  1  0  0.086712  0  3.731963  0  0  0.097555  0  3.97443  0  0  0.098769  0  3.998694  0  0  -6.3e-05  0.096866  0  3.957858  0
C  C79  1  0.06082822  0.86203343  0.53837068  1  0  0.086693  0  3.732076  0  0  0.097494  0  3.974608  0  0  0.098709  0  3.998865  0  0  -0.000114  0.096803  0  3.958037  0
C  C80  1  0.48901452  0.39036881  0.87506129  1  0  -0.197139  0  3.660647  0  0  -0.239355  0  3.91031  0  0  -0.239159  0  3.921455  0  0  -0.147025  -0.239449  0  3.90275  0
C  C81  1  0.01098597  0.10963033  0.37505991  1  0  -0.197061  0  3.660706  0  0  -0.239319  0  3.910401  0  0  -0.239123  0  3.921548  0  0  -0.147015  -0.239412  0  3.90284  0
C  C82  1  0.51098792  0.60962979  0.12494020  1  0  -0.197088  0  3.660699  0  0  -0.2393  0  3.910337  0  0  -0.239103  0  3.921483  0  0  -0.147024  -0.239395  0  3.902776  0
C  C83  1  0.98901456  0.89037011  0.62494090  1  0  -0.196961  0  3.660676  0  0  -0.239199  0  3.910368  0  0  -0.239001  0  3.921515  0  0  -0.146972  -0.239292  0  3.902807  0
C  C84  1  0.50841508  0.43314386  0.68923101  1  0  -0.20098  0  3.649108  0  0  -0.238933  0  3.89338  0  0  -0.2391  0  3.903662  0  0  -0.146839  -0.238738  0  3.886404  0
C  C85  1  0.99158727  0.06685999  0.18923115  1  0  -0.200873  0  3.649166  0  0  -0.238843  0  3.893528  0  0  -0.238991  0  3.903783  0  0  -0.146819  -0.238647  0  3.88655  0
C  C86  1  0.49158449  0.56685749  0.31076911  1  0  -0.201074  0  3.64923  0  0  -0.239023  0  3.893533  0  0  -0.239191  0  3.903816  0  0  -0.146867  -0.238831  0  3.886558  0
C  C87  1  0.00841329  0.93314137  0.81076897  1  0  -0.200892  0  3.649112  0  0  -0.238865  0  3.893469  0  0  -0.239025  0  3.903742  0  0  -0.146822  -0.23867  0  3.886492  0
C  C88  1  0.53230433  0.38686590  0.59473036  1  0  0.088356  0  3.741211  0  0  0.100559  0  3.978046  0  0  0.101695  0  4.002762  0  0  -0.001334  0.09987  0  3.961421  0
C  C89  1  0.96770085  0.11313604  0.09473051  1  0  0.088289  0  3.741338  0  0  0.100472  0  3.978185  0  0  0.101605  0  4.002897  0  0  -0.001343  0.099783  0  3.961557  0
C  C90  1  0.46769719  0.61313454  0.40526908  1  0  0.088384  0  3.741311  0  0  0.100592  0  3.978119  0  0  0.101728  0  4.002836  0  0  -0.001318  0.099902  0  3.961492  0
C  C91  1  0.03229964  0.88686348  0.90526893  1  0  0.088308  0  3.741232  0  0  0.100459  0  3.978136  0  0  0.101593  0  4.002848  0  0  -0.001356  0.099771  0  3.961508  0
C  C92  1  0.43592113  0.31238728  0.55124536  1  0  -0.131416  0  3.741498  0  0  -0.152937  0  3.999289  0  0  -0.157981  0  4.021244  0  0  -0.090406  -0.149705  0  3.984615  0
C  C93  1  0.06408223  0.18761527  0.05124746  1  0  -0.131464  0  3.741507  0  0  -0.152966  0  3.999315  0  0  -0.158012  0  4.021261  0  0  -0.090445  -0.149732  0  3.984635  0
C  C94  1  0.56407939  0.68761316  0.44875271  1  0  -0.131442  0  3.741545  0  0  -0.152974  0  3.999324  0  0  -0.158018  0  4.021273  0  0  -0.090452  -0.149742  0  3.984646  0
C  C95  1  0.93591730  0.81238517  0.94875335  1  0  -0.131409  0  3.741459  0  0  -0.152911  0  3.999274  0  0  -0.157953  0  4.021218  0  0  -0.090409  -0.149679  0  3.984594  0
C  C96  1  0.45751821  0.26581159  0.46392955  1  0  -0.032531  0  3.726099  0  0  -0.050456  0  3.979207  0  0  -0.049591  0  3.999031  0  0  -0.07991  -0.05061  0  3.965541  0
C  C97  1  0.04248539  0.23418946  0.96393002  1  0  -0.032459  0  3.726044  0  0  -0.050416  0  3.979119  0  0  -0.049535  0  3.998967  0  0  -0.079901  -0.050563  0  3.965447  0
C  C98  1  0.54248232  0.73418885  0.53606989  1  0  -0.032522  0  3.725941  0  0  -0.050426  0  3.979039  0  0  -0.049541  0  3.998875  0  0  -0.079894  -0.050574  0  3.965369  0
C  C99  1  0.95751613  0.76581098  0.03607010  1  0  -0.032521  0  3.726074  0  0  -0.050499  0  3.979165  0  0  -0.049612  0  3.999012  0  0  -0.079914  -0.050639  0  3.965486  0
C  C100  1  0.57647026  0.29328610  0.41804397  1  0  -0.059916  0  3.732414  0  0  -0.074204  0  3.988419  0  0  -0.078306  0  4.010126  0  0  -0.085234  -0.071561  0  3.973707  0
C  C101  1  0.92353218  0.20671610  0.91804456  1  0  -0.059966  0  3.732498  0  0  -0.074233  0  3.988519  0  0  -0.078337  0  4.010218  0  0  -0.085235  -0.07159  0  3.973804  0
C  C102  1  0.42352931  0.70671525  0.58195547  1  0  -0.059888  0  3.732334  0  0  -0.074203  0  3.988363  0  0  -0.078307  0  4.010066  0  0  -0.085237  -0.071558  0  3.973647  0
C  C103  1  0.07646834  0.79328434  0.08195557  1  0  -0.059943  0  3.732481  0  0  -0.074207  0  3.988493  0  0  -0.078309  0  4.010191  0  0  -0.085232  -0.071565  0  3.973774  0
C  C104  1  0.67375477  0.36801817  0.45901417  1  0  -0.068734  0  3.70205  0  0  -0.095536  0  3.949442  0  0  -0.095554  0  3.970376  0  0  -0.074429  -0.095246  0  3.935279  0
C  C105  1  0.82624763  0.13198224  0.95901470  1  0  -0.068723  0  3.702098  0  0  -0.09554  0  3.949472  0  0  -0.095556  0  3.970403  0  0  -0.074412  -0.095257  0  3.935326  0
C  C106  1  0.32624377  0.63198227  0.54098459  1  0  -0.068683  0  3.701949  0  0  -0.095467  0  3.949331  0  0  -0.095485  0  3.970269  0  0  -0.074391  -0.095177  0  3.935163  0
C  C107  1  0.17375382  0.86801637  0.04098543  1  0  -0.068779  0  3.70221  0  0  -0.095597  0  3.94958  0  0  -0.095613  0  3.970514  0  0  -0.074434  -0.095313  0  3.935432  0
C  C108  1  0.65160686  0.41470683  0.54710855  1  0  -0.04261  0  3.863114  0  0  -0.021621  0  4.087931  0  0  -0.027091  0  4.11173  0  0  -0.002519  -0.0181  0  4.072067  0
C  C109  1  0.84839428  0.08529416  0.04710933  1  0  -0.042555  0  3.863032  0  0  -0.021549  0  4.087846  0  0  -0.027019  0  4.111645  0  0  -0.002485  -0.018029  0  4.071979  0
C  C110  1  0.34839267  0.58529361  0.45289088  1  0  -0.042616  0  3.863148  0  0  -0.021629  0  4.087957  0  0  -0.0271  0  4.111756  0  0  -0.002527  -0.018108  0  4.072091  0
C  C111  1  0.15160621  0.91470536  0.95289216  1  0  -0.042547  0  3.863118  0  0  -0.021532  0  4.087932  0  0  -0.027001  0  4.111731  0  0  -0.002492  -0.018012  0  4.072065  0
C  C112  1  0.75082778  0.49179235  0.58830775  1  0  0.318146  0  3.738392  0  0  0.301026  0  4.0004  0  0  0.314053  0  4.019114  0  0  0.210719  0.291978  0  3.988281  0
C  C113  1  0.74917046  0.00820959  0.08830914  1  0  0.318124  0  3.738363  0  0  0.301008  0  4.00035  0  0  0.314035  0  4.019063  0  0  0.210714  0.291961  0  3.988231  0
C  C114  1  0.24917275  0.50820809  0.41169169  1  0  0.318135  0  3.738432  0  0  0.301015  0  4.000433  0  0  0.314042  0  4.019148  0  0  0.210725  0.291967  0  3.988314  0
C  C115  1  0.25083003  0.99178993  0.91169098  1  0  0.318068  0  3.738318  0  0  0.300945  0  4.000311  0  0  0.313971  0  4.019025  0  0  0.210684  0.291898  0  3.988194  0
S  S116  1  0.56504706  0.32187594  0.77401493  1  0  0.009173  0  2.604139  0  0  0.044744  0  3.019885  0  0  0.038173  0  3.011402  0  0  -0.005924  0.049333  0  3.025848  0
S  S117  1  0.93495520  0.17812432  0.27401372  1  0  0.009136  0  2.604164  0  0  0.044721  0  3.019932  0  0  0.038142  0  3.011446  0  0  -0.005947  0.049308  0  3.0259  0
S  S118  1  0.43495442  0.67812358  0.22598520  1  0  0.009218  0  2.604172  0  0  0.044787  0  3.019907  0  0  0.03822  0  3.01142  0  0  -0.005923  0.049375  0  3.025872  0
S  S119  1  0.06504532  0.82187612  0.72598572  1  0  0.009133  0  2.604158  0  0  0.04472  0  3.019919  0  0  0.038142  0  3.011439  0  0  -0.005947  0.049307  0  3.025883  0
N  N120  1  0.79483297  0.56494282  0.86119070  1  0  -0.391301  0  2.860739  0  0  -0.342802  0  3.148659  0  0  -0.356631  0  3.15328  0  0  -0.32253  -0.334091  0  3.146365  0
N  N121  1  0.70516334  0.93504719  0.36118406  1  0  -0.391286  0  2.860069  0  0  -0.342801  0  3.148029  0  0  -0.356636  0  3.152659  0  0  -0.32251  -0.334086  0  3.145729  0
N  N122  1  0.20516748  0.43505579  0.13881011  1  0  -0.391265  0  2.860657  0  0  -0.342759  0  3.148576  0  0  -0.356589  0  3.1532  0  0  -0.322534  -0.334047  0  3.146278  0
N  N123  1  0.29483194  0.06494592  0.63880923  1  0  -0.391156  0  2.860868  0  0  -0.342647  0  3.148783  0  0  -0.356476  0  3.153408  0  0  -0.322484  -0.333936  0  3.146485  0
N  N124  1  0.83181485  0.55567104  0.62254631  1  0  -0.415555  0  2.827023  0  0  -0.370358  0  3.112908  0  0  -0.383947  0  3.116431  0  0  -0.332972  -0.361762  0  3.11126  0
N  N125  1  0.66818661  0.94432794  0.12254718  1  0  -0.415551  0  2.82712  0  0  -0.370343  0  3.112993  0  0  -0.383932  0  3.116518  0  0  -0.332989  -0.361748  0  3.111343  0
N  N126  1  0.16818465  0.44432849  0.37745450  1  0  -0.415563  0  2.82708  0  0  -0.370367  0  3.112964  0  0  -0.383957  0  3.116489  0  0  -0.332991  -0.361772  0  3.111316  0
N  N127  1  0.33181488  0.05567158  0.87745294  1  0  -0.415508  0  2.827066  0  0  -0.370298  0  3.112939  0  0  -0.383885  0  3.116464  0  0  -0.332959  -0.361703  0  3.111291  0
N  N128  1  0.14536792  0.41784929  0.75577219  1  0  0.681751  0  4.168255  0  0  0.728424  0  4.442244  0  0  0.743689  0  4.467166  0  0  0.088016  0.709436  0  4.437298  0
N  N129  1  0.35463252  0.08215068  0.25577160  1  0  0.681746  0  4.168376  0  0  0.72842  0  4.442347  0  0  0.743696  0  4.467261  0  0  0.088004  0.709434  0  4.437402  0
N  N130  1  0.85463162  0.58215115  0.24422793  1  0  0.681754  0  4.168258  0  0  0.728453  0  4.442208  0  0  0.743709  0  4.467148  0  0  0.088024  0.709466  0  4.437263  0
N  N131  1  0.64536797  0.91784884  0.74422784  1  0  0.681731  0  4.168316  0  0  0.7284  0  4.442306  0  0  0.743677  0  4.467213  0  0  0.087986  0.709412  0  4.437361  0
O  O132  1  0.03739724  0.43810885  0.79892630  1  0  -0.496874  0  1.81448  0  0  -0.479119  0  2.055883  0  0  -0.493403  0  2.051818  0  0  -0.212561  -0.465781  0  2.061722  0
O  O133  1  0.46260219  0.06189024  0.29892574  1  0  -0.496867  0  1.814533  0  0  -0.479094  0  2.055937  0  0  -0.493385  0  2.051883  0  0  -0.212538  -0.465759  0  2.06178  0
O  O134  1  0.96260225  0.56189068  0.20107382  1  0  -0.496855  0  1.814476  0  0  -0.47912  0  2.055904  0  0  -0.493398  0  2.051838  0  0  -0.212548  -0.465783  0  2.061743  0
O  O135  1  0.53739731  0.93810928  0.70107438  1  0  -0.496826  0  1.814435  0  0  -0.479084  0  2.055882  0  0  -0.493372  0  2.051817  0  0  -0.212539  -0.465749  0  2.061725  0
O  O136  1  0.18858110  0.49457866  0.69720395  1  0  -0.484121  0  1.764836  0  0  -0.480543  0  1.981644  0  0  -0.490779  0  1.979479  0  0  -0.202822  -0.470189  0  1.986572  0
O  O137  1  0.31141929  0.00542126  0.19720263  1  0  -0.484163  0  1.764807  0  0  -0.480578  0  1.981623  0  0  -0.490818  0  1.979455  0  0  -0.202868  -0.470223  0  1.986552  0
O  O138  1  0.81141942  0.50542178  0.30279686  1  0  -0.484149  0  1.764794  0  0  -0.480574  0  1.981594  0  0  -0.490808  0  1.979433  0  0  -0.202846  -0.47022  0  1.986524  0
O  O139  1  0.68858120  0.99457827  0.80279681  1  0  -0.484148  0  1.764782  0  0  -0.480564  0  1.981603  0  0  -0.490805  0  1.979433  0  0  -0.202845  -0.470208  0  1.986532  0
O  O140  1  0.20631748  0.32145682  0.77266485  1  0  -0.472728  0  1.737061  0  0  -0.47119  0  1.954862  0  0  -0.480657  0  1.952741  0  0  -0.200097  -0.460975  0  1.959396  0
O  O141  1  0.29368395  0.17854316  0.27266359  1  0  -0.472688  0  1.737137  0  0  -0.471156  0  1.954906  0  0  -0.480629  0  1.952788  0  0  -0.200064  -0.460941  0  1.959442  0
O  O142  1  0.79368301  0.67854270  0.22733528  1  0  -0.472706  0  1.737089  0  0  -0.471178  0  1.954862  0  0  -0.480642  0  1.952744  0  0  -0.200086  -0.460963  0  1.959395  0
O  O143  1  0.70631558  0.82145728  0.72733584  1  0  -0.4727  0  1.73717  0  0  -0.471149  0  1.954941  0  0  -0.480621  0  1.952818  0  0  -0.200056  -0.460933  0  1.959474  0
