# generated using pymatgen
data_ErH9C10(N2O5)2
_symmetry_space_group_name_H-M   'P 1'
_cell_length_a   9.21214642
_cell_length_b   10.84945039
_cell_length_c   14.14778384
_cell_angle_alpha   104.78134563
_cell_angle_beta   90.00002342
_cell_angle_gamma   89.99998046
_symmetry_Int_Tables_number   1
_chemical_formula_structural   ErH9C10(N2O5)2
_chemical_formula_sum   'Er4 H36 C40 N16 O40'
_cell_volume   1367.22965023
_cell_formula_units_Z   4
loop_
 _symmetry_equiv_pos_site_id
 _symmetry_equiv_pos_as_xyz
  1  'x, y, z'
loop_
 _atom_site_type_symbol
 _atom_site_label
 _atom_site_symmetry_multiplicity
 _atom_site_fract_x
 _atom_site_fract_y
 _atom_site_fract_z
 _atom_site_occupancy
 _atom_site_hle17_bader_spin_density
 _atom_site_hle17_ddec_charge
 _atom_site_hle17_ddec_spin_density
 _atom_site_hle17_ddec_sum_bond_order
 _atom_site_hle17_magmom
 _atom_site_hse06_10hf_bader_spin_density
 _atom_site_hse06_10hf_ddec_charge
 _atom_site_hse06_10hf_ddec_spin_density
 _atom_site_hse06_10hf_ddec_sum_bond_order
 _atom_site_hse06_10hf_magmom
 _atom_site_hse06_bader_spin_density
 _atom_site_hse06_ddec_charge
 _atom_site_hse06_ddec_spin_density
 _atom_site_hse06_ddec_sum_bond_order
 _atom_site_hse06_magmom
 _atom_site_pbe_bader_spin_density
 _atom_site_pbe_cm5_charge
 _atom_site_pbe_ddec_charge
 _atom_site_pbe_ddec_spin_density
 _atom_site_pbe_ddec_sum_bond_order
 _atom_site_pbe_magmom
Er  Er0  1  0.12850196  0.95755449  0.23509752  1  0  2.204675  0  1.696362  0  0  2.041636  0  2.196375  0  0  2.095505  0  2.142672  0  0  1.539567  2.006316  0  2.227461  0
Er  Er1  1  0.37149879  0.45755511  0.73509673  1  0  2.204633  0  1.696486  0  0  2.041491  0  2.19666  0  0  2.095399  0  2.142833  0  0  1.539538  2.006262  0  2.227602  0
Er  Er2  1  0.87149854  0.04244387  0.76490324  1  0  2.204657  0  1.696426  0  0  2.041509  0  2.196638  0  0  2.095453  0  2.14276  0  0  1.539561  2.006344  0  2.227468  0
Er  Er3  1  0.62850171  0.54244516  0.26490370  1  0  2.204638  0  1.696489  0  0  2.041529  0  2.196637  0  0  2.095429  0  2.142816  0  0  1.539573  2.006273  0  2.227611  0
H  H4  1  0.39708673  0.22164270  0.51760912  1  0  0.423265  0  0.846625  0  0  0.389155  0  0.927265  0  0  0.402633  0  0.912725  0  0  0.31484  0.379572  0  0.937618  0
H  H5  1  0.10291290  0.72164018  0.01760883  1  0  0.423321  0  0.846555  0  0  0.389198  0  0.927218  0  0  0.40267  0  0.91269  0  0  0.314864  0.379614  0  0.937575  0
H  H6  1  0.60291269  0.77835852  0.48239078  1  0  0.423251  0  0.846645  0  0  0.389156  0  0.927285  0  0  0.402624  0  0.91276  0  0  0.314837  0.379565  0  0.937648  0
H  H7  1  0.89708760  0.27836580  0.98239341  1  0  0.423373  0  0.846529  0  0  0.389248  0  0.927185  0  0  0.402734  0  0.912644  0  0  0.314908  0.379668  0  0.937536  0
H  H8  1  0.94411205  0.92748209  0.06524873  1  0  0.440274  0  0.85744  0  0  0.409852  0  0.919465  0  0  0.420967  0  0.903228  0  0  0.300011  0.402081  0  0.930767  0
H  H9  1  0.55588466  0.42748373  0.56525017  1  0  0.440305  0  0.857402  0  0  0.409874  0  0.919441  0  0  0.420977  0  0.903224  0  0  0.300009  0.402098  0  0.930752  0
H  H10  1  0.05588410  0.07251531  0.93474972  1  0  0.440246  0  0.857495  0  0  0.409801  0  0.919561  0  0  0.420914  0  0.903328  0  0  0.299957  0.402034  0  0.93086  0
H  H11  1  0.44411476  0.57251558  0.43475007  1  0  0.440348  0  0.857348  0  0  0.409928  0  0.919372  0  0  0.421039  0  0.903142  0  0  0.300028  0.402153  0  0.93068  0
H  H12  1  0.91642597  0.07176834  0.12727740  1  0  0.447151  0  0.849572  0  0  0.41368  0  0.916351  0  0  0.425104  0  0.899721  0  0  0.298472  0.405597  0  0.928073  0
H  H13  1  0.58357309  0.57176713  0.62727759  1  0  0.447186  0  0.849527  0  0  0.413724  0  0.916292  0  0  0.425149  0  0.89966  0  0  0.298508  0.405648  0  0.928004  0
H  H14  1  0.08357670  0.92823193  0.87272373  1  0  0.447157  0  0.849561  0  0  0.413677  0  0.916352  0  0  0.425102  0  0.899718  0  0  0.298458  0.4056  0  0.928065  0
H  H15  1  0.41642633  0.42823123  0.37272388  1  0  0.447143  0  0.849584  0  0  0.413688  0  0.916339  0  0  0.425108  0  0.899715  0  0  0.298473  0.405607  0  0.928058  0
H  H16  1  0.15844962  0.11065545  0.43885069  1  0  0.437185  0  0.868926  0  0  0.402117  0  0.937845  0  0  0.414359  0  0.920231  0  0  0.293047  0.393485  0  0.950277  0
H  H17  1  0.34155032  0.61065704  0.93885079  1  0  0.43721  0  0.868886  0  0  0.402163  0  0.937774  0  0  0.414392  0  0.920183  0  0  0.293063  0.393528  0  0.950211  0
H  H18  1  0.84154980  0.88934386  0.56114884  1  0  0.437179  0  0.868918  0  0  0.402123  0  0.937817  0  0  0.414357  0  0.920219  0  0  0.293048  0.393496  0  0.950243  0
H  H19  1  0.65844909  0.38934322  0.06114963  1  0  0.437207  0  0.86889  0  0  0.402156  0  0.937784  0  0  0.414392  0  0.92018  0  0  0.29307  0.393528  0  0.950209  0
H  H20  1  0.30109173  0.02522015  0.41368019  1  0  0.439511  0  0.835708  0  0  0.413648  0  0.895892  0  0  0.422866  0  0.882246  0  0  0.313475  0.4068  0  0.906148  0
H  H21  1  0.19890714  0.52522273  0.91368115  1  0  0.439649  0  0.835546  0  0  0.413765  0  0.89576  0  0  0.422986  0  0.882105  0  0  0.313505  0.406912  0  0.906023  0
H  H22  1  0.69890660  0.97477725  0.58631897  1  0  0.439612  0  0.835601  0  0  0.41373  0  0.895811  0  0  0.422948  0  0.882158  0  0  0.313486  0.406874  0  0.906078  0
H  H23  1  0.80109228  0.47477658  0.08631909  1  0  0.439641  0  0.835556  0  0  0.413757  0  0.895773  0  0  0.42297  0  0.882126  0  0  0.313506  0.4069  0  0.906041  0
H  H24  1  0.40507394  0.19455712  0.26968832  1  0  0.301193  0  0.938712  0  0  0.269983  0  1.015819  0  0  0.280414  0  1.007066  0  0  0.320235  0.262648  0  1.022039  0
H  H25  1  0.09492912  0.69455400  0.76968885  1  0  0.301183  0  0.938728  0  0  0.269953  0  1.015885  0  0  0.280393  0  1.007126  0  0  0.320214  0.262616  0  1.022106  0
H  H26  1  0.59492765  0.80544219  0.73031192  1  0  0.30119  0  0.938718  0  0  0.269975  0  1.015835  0  0  0.280414  0  1.007077  0  0  0.320227  0.262643  0  1.022052  0
H  H27  1  0.90507355  0.30544341  0.23031243  1  0  0.301143  0  0.938739  0  0  0.269886  0  1.015938  0  0  0.280327  0  1.007184  0  0  0.320201  0.262551  0  1.022155  0
H  H28  1  0.89555143  0.18534373  0.42677767  1  0  0.314983  0  0.872711  0  0  0.288407  0  0.942806  0  0  0.297492  0  0.934904  0  0  0.338242  0.281878  0  0.948664  0
H  H29  1  0.60444886  0.68534156  0.92677698  1  0  0.314954  0  0.872725  0  0  0.288391  0  0.942806  0  0  0.297479  0  0.934905  0  0  0.338267  0.281875  0  0.948654  0
H  H30  1  0.10444907  0.81465749  0.57322294  1  0  0.315  0  0.872718  0  0  0.288431  0  0.942794  0  0  0.297516  0  0.934892  0  0  0.338284  0.281915  0  0.948645  0
H  H31  1  0.39554621  0.31465775  0.07322326  1  0  0.314971  0  0.872655  0  0  0.288457  0  0.942719  0  0  0.297528  0  0.93482  0  0  0.338257  0.281934  0  0.948582  0
H  H32  1  0.66045720  0.94106892  0.05038032  1  0  0.154029  0  0.946961  0  0  0.160265  0  1.008173  0  0  0.164589  0  1.005426  0  0  0.119392  0.157122  0  1.010321  0
H  H33  1  0.83954384  0.44106764  0.55038197  1  0  0.15401  0  0.946945  0  0  0.160251  0  1.008157  0  0  0.164581  0  1.005403  0  0  0.119376  0.157109  0  1.010302  0
H  H34  1  0.33954330  0.05893325  0.94961765  1  0  0.154066  0  0.946894  0  0  0.160303  0  1.008105  0  0  0.164635  0  1.005345  0  0  0.119396  0.157164  0  1.010249  0
H  H35  1  0.16045775  0.55893263  0.44961916  1  0  0.154051  0  0.946901  0  0  0.160289  0  1.008117  0  0  0.164622  0  1.005358  0  0  0.119387  0.15715  0  1.010259  0
H  H36  1  0.55839748  0.91090712  0.34353019  1  0  0.159882  0  0.945853  0  0  0.164708  0  1.01029  0  0  0.169525  0  1.006659  0  0  0.122459  0.161299  0  1.012963  0
H  H37  1  0.94160267  0.41090487  0.84353097  1  0  0.159838  0  0.945925  0  0  0.164682  0  1.01034  0  0  0.169503  0  1.006709  0  0  0.122464  0.161278  0  1.013007  0
H  H38  1  0.44160302  0.08909314  0.65646811  1  0  0.159855  0  0.945863  0  0  0.164674  0  1.010315  0  0  0.169493  0  1.006682  0  0  0.122456  0.161267  0  1.012985  0
H  H39  1  0.05839783  0.58909826  0.15647213  1  0  0.15975  0  0.945979  0  0  0.164602  0  1.010398  0  0  0.169426  0  1.006761  0  0  0.12245  0.161201  0  1.01305  0
C  C40  1  0.35897808  0.81778329  0.05891880  1  0  0.666471  0  3.880576  0  0  0.61126  0  4.182206  0  0  0.645743  0  4.172305  0  0  0.230312  0.58792  0  4.188215  0
C  C41  1  0.14102371  0.31778205  0.55891899  1  0  0.66653  0  3.88043  0  0  0.611342  0  4.182027  0  0  0.645809  0  4.17215  0  0  0.230318  0.587999  0  4.18805  0
C  C42  1  0.64102025  0.18221888  0.94107776  1  0  0.666506  0  3.880415  0  0  0.611352  0  4.181985  0  0  0.645809  0  4.172117  0  0  0.230364  0.588011  0  4.187996  0
C  C43  1  0.85898005  0.68221631  0.44107823  1  0  0.666496  0  3.880456  0  0  0.611261  0  4.182114  0  0  0.645732  0  4.172234  0  0  0.230318  0.58792  0  4.188116  0
C  C44  1  0.43906256  0.93210683  0.11362960  1  0  0.042409  0  3.784872  0  0  0.041802  0  4.048787  0  0  0.040892  0  4.06617  0  0  0.089796  0.042448  0  4.036853  0
C  C45  1  0.06093921  0.43210276  0.61363205  1  0  0.042449  0  3.784778  0  0  0.041779  0  4.048754  0  0  0.04087  0  4.066141  0  0  0.089733  0.04242  0  4.036836  0
C  C46  1  0.56093685  0.06789628  0.88636643  1  0  0.042464  0  3.784783  0  0  0.041781  0  4.048767  0  0  0.040889  0  4.066144  0  0  0.089788  0.042437  0  4.036828  0
C  C47  1  0.93906237  0.56789370  0.38636905  1  0  0.042346  0  3.785009  0  0  0.041733  0  4.048931  0  0  0.040833  0  4.06632  0  0  0.089766  0.042385  0  4.037001  0
C  C48  1  0.57578638  0.98379532  0.10144116  1  0  -0.174355  0  3.636245  0  0  -0.210925  0  3.901586  0  0  -0.214604  0  3.919433  0  0  -0.08717  -0.208127  0  3.889265  0
C  C49  1  0.92421684  0.48379212  0.60144388  1  0  -0.174343  0  3.636257  0  0  -0.210929  0  3.901569  0  0  -0.214602  0  3.91941  0  0  -0.087129  -0.208124  0  3.889243  0
C  C50  1  0.42421303  0.01620780  0.89855628  1  0  -0.174417  0  3.63609  0  0  -0.210961  0  3.901449  0  0  -0.214648  0  3.919268  0  0  -0.087161  -0.208163  0  3.889123  0
C  C51  1  0.07578583  0.51620434  0.39855792  1  0  -0.174371  0  3.63624  0  0  -0.210932  0  3.901576  0  0  -0.214633  0  3.919413  0  0  -0.08716  -0.208139  0  3.889249  0
C  C52  1  0.57540339  0.10415048  0.16746836  1  0  0.047209  0  3.69618  0  0  0.033355  0  3.963768  0  0  0.033481  0  3.981039  0  0  0.093398  0.032806  0  3.952349  0
C  C53  1  0.92459785  0.60414634  0.66747020  1  0  0.047176  0  3.696203  0  0  0.033437  0  3.963658  0  0  0.033555  0  3.980955  0  0  0.093447  0.032887  0  3.952233  0
C  C54  1  0.42459820  0.89585074  0.83253083  1  0  0.047193  0  3.696219  0  0  0.033301  0  3.963808  0  0  0.033446  0  3.98107  0  0  0.093377  0.032749  0  3.952398  0
C  C55  1  0.07540373  0.39585107  0.33253179  1  0  0.047126  0  3.696367  0  0  0.033297  0  3.963942  0  0  0.033452  0  3.981196  0  0  0.093371  0.032751  0  3.952519  0
C  C56  1  0.67622461  0.21439749  0.18800199  1  0  0.671386  0  3.909618  0  0  0.615845  0  4.218359  0  0  0.650907  0  4.206809  0  0  0.226038  0.592035  0  4.225587  0
C  C57  1  0.82377552  0.71439433  0.68800046  1  0  0.671287  0  3.909622  0  0  0.61577  0  4.218283  0  0  0.650813  0  4.206771  0  0  0.226083  0.591976  0  4.225497  0
C  C58  1  0.32377697  0.78560373  0.81200003  1  0  0.671353  0  3.909679  0  0  0.615923  0  4.218271  0  0  0.650945  0  4.206767  0  0  0.226097  0.592108  0  4.225506  0
C  C59  1  0.17622499  0.28560308  0.31200153  1  0  0.67142  0  3.90969  0  0  0.615938  0  4.218335  0  0  0.650981  0  4.206804  0  0  0.226157  0.592135  0  4.225554  0
C  C60  1  0.83841907  0.79438437  0.23983971  1  0  0.709124  0  3.891754  0  0  0.660627  0  4.184116  0  0  0.696345  0  4.171594  0  0  0.236077  0.636621  0  4.191744  0
C  C61  1  0.66157563  0.29438313  0.73984203  1  0  0.709202  0  3.891876  0  0  0.660688  0  4.184235  0  0  0.696414  0  4.171724  0  0  0.236054  0.636678  0  4.191867  0
C  C62  1  0.16158035  0.20561398  0.76015681  1  0  0.708948  0  3.892146  0  0  0.660539  0  4.184379  0  0  0.696265  0  4.171846  0  0  0.235969  0.636537  0  4.192005  0
C  C63  1  0.33842378  0.70561142  0.26016082  1  0  0.709148  0  3.891798  0  0  0.660677  0  4.184152  0  0  0.696404  0  4.171613  0  0  0.236019  0.636678  0  4.191777  0
C  C64  1  0.79213995  0.91851004  0.30547230  1  0  0.030466  0  3.752117  0  0  0.033551  0  4.011816  0  0  0.031674  0  4.029203  0  0  0.096314  0.034637  0  4.000088  0
C  C65  1  0.70786017  0.41850974  0.80547199  1  0  0.030431  0  3.7522  0  0  0.033553  0  4.011846  0  0  0.031644  0  4.029279  0  0  0.096344  0.034651  0  4.000116  0
C  C66  1  0.20786164  0.08149117  0.69452549  1  0  0.03051  0  3.752027  0  0  0.033555  0  4.011717  0  0  0.031688  0  4.029086  0  0  0.096348  0.034649  0  3.999984  0
C  C67  1  0.29213924  0.58149053  0.19453127  1  0  0.030393  0  3.752216  0  0  0.033424  0  4.011957  0  0  0.031587  0  4.029287  0  0  0.096283  0.034514  0  4.000227  0
C  C68  1  0.65967028  0.96341535  0.35045362  1  0  -0.147092  0  3.623831  0  0  -0.193153  0  3.898252  0  0  -0.194767  0  3.915198  0  0  -0.081644  -0.191651  0  3.886493  0
C  C69  1  0.84032876  0.46341502  0.85045404  1  0  -0.147002  0  3.624013  0  0  -0.193101  0  3.898435  0  0  -0.194716  0  3.915403  0  0  -0.081622  -0.191611  0  3.886676  0
C  C70  1  0.34032913  0.03658300  0.64954361  1  0  -0.146922  0  3.623704  0  0  -0.192987  0  3.898162  0  0  -0.194604  0  3.915093  0  0  -0.081579  -0.191492  0  3.886396  0
C  C71  1  0.15966957  0.53658620  0.14954939  1  0  -0.146875  0  3.623976  0  0  -0.192957  0  3.898449  0  0  -0.194578  0  3.915374  0  0  -0.081583  -0.191456  0  3.886684  0
C  C72  1  0.68910553  0.08773154  0.40408824  1  0  0.034082  0  3.700112  0  0  0.019381  0  3.970188  0  0  0.018058  0  3.987244  0  0  0.093524  0.020481  0  3.958442  0
C  C73  1  0.81089479  0.58772838  0.90408952  1  0  0.033968  0  3.70019  0  0  0.019305  0  3.970216  0  0  0.017972  0  3.987296  0  0  0.093447  0.020416  0  3.958473  0
C  C74  1  0.31089389  0.91226872  0.59590865  1  0  0.033925  0  3.700125  0  0  0.019224  0  3.970198  0  0  0.017889  0  3.987267  0  0  0.093429  0.020338  0  3.958453  0
C  C75  1  0.18910354  0.41227284  0.09591321  1  0  0.033855  0  3.700517  0  0  0.019218  0  3.970649  0  0  0.017848  0  3.987726  0  0  0.093445  0.020322  0  3.958918  0
C  C76  1  0.59762630  0.18950894  0.46378242  1  0  0.66395  0  3.813859  0  0  0.607586  0  4.119325  0  0  0.642158  0  4.10762  0  0  0.249391  0.583768  0  4.127169  0
C  C77  1  0.90237292  0.68950957  0.96378518  1  0  0.663935  0  3.813903  0  0  0.607565  0  4.119348  0  0  0.642134  0  4.107641  0  0  0.249372  0.583753  0  4.127188  0
C  C78  1  0.40237311  0.81048941  0.53621480  1  0  0.663929  0  3.813691  0  0  0.607561  0  4.119165  0  0  0.642146  0  4.107445  0  0  0.249425  0.583758  0  4.126991  0
C  C79  1  0.09762106  0.31050690  0.03622052  1  0  0.66403  0  3.813426  0  0  0.607542  0  4.119041  0  0  0.642136  0  4.107326  0  0  0.249331  0.583725  0  4.12689  0
N  N80  1  0.36355376  0.01420937  0.18446099  1  0  -0.350896  0  3.209816  0  0  -0.325109  0  3.491413  0  0  -0.332669  0  3.507128  0  0  -0.32148  -0.31995  0  3.480349  0
N  N81  1  0.13644714  0.51420625  0.68446294  1  0  -0.350936  0  3.209727  0  0  -0.325092  0  3.491346  0  0  -0.332657  0  3.507055  0  0  -0.321428  -0.319949  0  3.480284  0
N  N82  1  0.63644674  0.98579280  0.81553839  1  0  -0.350888  0  3.209713  0  0  -0.325043  0  3.491317  0  0  -0.332614  0  3.507029  0  0  -0.321429  -0.319909  0  3.480249  0
N  N83  1  0.86355445  0.48579116  0.31553904  1  0  -0.350847  0  3.209858  0  0  -0.324997  0  3.491453  0  0  -0.332561  0  3.507173  0  0  -0.32145  -0.319851  0  3.480392  0
N  N84  1  0.44641392  0.11650057  0.21542396  1  0  -0.116977  0  3.488913  0  0  -0.059622  0  3.725409  0  0  -0.069968  0  3.743088  0  0  -0.251093  -0.052833  0  3.713951  0
N  N85  1  0.05358587  0.61649652  0.71542641  1  0  -0.116834  0  3.488798  0  0  -0.059567  0  3.725371  0  0  -0.069913  0  3.743062  0  0  -0.251094  -0.052778  0  3.713923  0
N  N86  1  0.55358658  0.88349969  0.78457505  1  0  -0.116975  0  3.488779  0  0  -0.059637  0  3.725313  0  0  -0.069991  0  3.742996  0  0  -0.251127  -0.052848  0  3.713862  0
N  N87  1  0.94641571  0.38349899  0.28457662  1  0  -0.116881  0  3.48893  0  0  -0.059603  0  3.725585  0  0  -0.069969  0  3.743267  0  0  -0.251074  -0.052815  0  3.714131  0
N  N88  1  0.89578156  0.00957809  0.33035672  1  0  -0.292265  0  3.095555  0  0  -0.271255  0  3.371537  0  0  -0.277697  0  3.38748  0  0  -0.274255  -0.266894  0  3.361007  0
N  N89  1  0.60421873  0.50957878  0.83035659  1  0  -0.292383  0  3.095628  0  0  -0.271366  0  3.371606  0  0  -0.277796  0  3.38754  0  0  -0.274333  -0.267006  0  3.361078  0
N  N90  1  0.10421785  0.99042122  0.66964139  1  0  -0.292348  0  3.09557  0  0  -0.271328  0  3.371568  0  0  -0.277785  0  3.387498  0  0  -0.274309  -0.266974  0  3.361045  0
N  N91  1  0.39578068  0.49042054  0.16964648  1  0  -0.292348  0  3.095439  0  0  -0.271239  0  3.371438  0  0  -0.277724  0  3.38734  0  0  -0.274306  -0.266875  0  3.360906  0
N  N92  1  0.83218292  0.11043746  0.38913830  1  0  -0.104528  0  3.440895  0  0  -0.047028  0  3.677363  0  0  -0.056349  0  3.693469  0  0  -0.240831  -0.040747  0  3.666672  0
N  N93  1  0.66781629  0.61043624  0.88913922  1  0  -0.104341  0  3.440776  0  0  -0.046861  0  3.677222  0  0  -0.056189  0  3.693337  0  0  -0.240792  -0.040615  0  3.66656  0
N  N94  1  0.16781649  0.88956375  0.61085948  1  0  -0.10445  0  3.440945  0  0  -0.046938  0  3.677383  0  0  -0.056254  0  3.693494  0  0  -0.240826  -0.040694  0  3.666732  0
N  N95  1  0.33217987  0.38956403  0.11086474  1  0  -0.104283  0  3.440659  0  0  -0.046938  0  3.677189  0  0  -0.056196  0  3.693257  0  0  -0.240738  -0.040691  0  3.666531  0
O  O96  1  0.22325185  0.81423857  0.08104632  1  0  -0.702352  0  2.041823  0  0  -0.641004  0  2.286473  0  0  -0.668177  0  2.277173  0  0  -0.34533  -0.622294  0  2.291945  0
O  O97  1  0.27674995  0.31423635  0.58104424  1  0  -0.702415  0  2.04189  0  0  -0.641056  0  2.286526  0  0  -0.668228  0  2.277208  0  0  -0.345328  -0.622355  0  2.291993  0
O  O98  1  0.77674757  0.18576264  0.91895146  1  0  -0.702363  0  2.04172  0  0  -0.641057  0  2.286437  0  0  -0.668204  0  2.277056  0  0  -0.345355  -0.622377  0  2.291922  0
O  O99  1  0.72325272  0.68576296  0.41895034  1  0  -0.702318  0  2.041665  0  0  -0.640986  0  2.286357  0  0  -0.668149  0  2.277024  0  0  -0.345353  -0.622305  0  2.29188  0
O  O100  1  0.42486097  0.73472622  0.99444820  1  0  -0.593139  0  2.001224  0  0  -0.53328  0  2.217946  0  0  -0.5578  0  2.207944  0  0  -0.288008  -0.516179  0  2.224471  0
O  O101  1  0.07513678  0.23472654  0.49444704  1  0  -0.593179  0  2.001165  0  0  -0.533283  0  2.217848  0  0  -0.557794  0  2.207848  0  0  -0.287993  -0.51618  0  2.224379  0
O  O102  1  0.57513736  0.26527690  0.00554925  1  0  -0.593141  0  2.001086  0  0  -0.53331  0  2.217823  0  0  -0.557822  0  2.207818  0  0  -0.288065  -0.51621  0  2.224348  0
O  O103  1  0.92486481  0.76527181  0.50555019  1  0  -0.593158  0  2.00115  0  0  -0.533257  0  2.217866  0  0  -0.557773  0  2.207868  0  0  -0.288007  -0.516161  0  2.224395  0
O  O104  1  0.62221765  0.32036016  0.23480376  1  0  -0.720723  0  2.048231  0  0  -0.674449  0  2.320789  0  0  -0.699847  0  2.310004  0  0  -0.391177  -0.657217  0  2.327366  0
O  O105  1  0.87778138  0.82035602  0.73480063  1  0  -0.720749  0  2.048336  0  0  -0.674475  0  2.320877  0  0  -0.699888  0  2.310117  0  0  -0.391242  -0.657265  0  2.327445  0
O  O106  1  0.37778394  0.67964201  0.76519562  1  0  -0.720772  0  2.048305  0  0  -0.674534  0  2.320816  0  0  -0.699934  0  2.310051  0  0  -0.391254  -0.657306  0  2.327395  0
O  O107  1  0.12221695  0.17964139  0.26520136  1  0  -0.720773  0  2.04839  0  0  -0.674526  0  2.320918  0  0  -0.699926  0  2.310156  0  0  -0.391218  -0.657284  0  2.327489  0
O  O108  1  0.80695201  0.19683509  0.15878554  1  0  -0.600759  0  2.018804  0  0  -0.539692  0  2.239745  0  0  -0.564008  0  2.229198  0  0  -0.29471  -0.522847  0  2.246624  0
O  O109  1  0.69304919  0.69683195  0.65878326  1  0  -0.600671  0  2.018732  0  0  -0.539723  0  2.239786  0  0  -0.564017  0  2.229225  0  0  -0.29477  -0.522899  0  2.246678  0
O  O110  1  0.19305066  0.80316422  0.84121541  1  0  -0.600715  0  2.018866  0  0  -0.539717  0  2.239783  0  0  -0.564022  0  2.229256  0  0  -0.294694  -0.522866  0  2.246663  0
O  O111  1  0.30695348  0.30316450  0.34121925  1  0  -0.600687  0  2.018629  0  0  -0.539736  0  2.239669  0  0  -0.564043  0  2.22912  0  0  -0.294788  -0.522915  0  2.246566  0
O  O112  1  0.96651733  0.79128314  0.20525184  1  0  -0.71537  0  2.05864  0  0  -0.66722  0  2.316003  0  0  -0.693055  0  2.304889  0  0  -0.391466  -0.649984  0  2.322644  0
O  O113  1  0.53347952  0.29128193  0.70525626  1  0  -0.715448  0  2.058709  0  0  -0.667264  0  2.316043  0  0  -0.693096  0  2.304927  0  0  -0.391456  -0.650034  0  2.322683  0
O  O114  1  0.03347992  0.20871426  0.79474378  1  0  -0.715339  0  2.058819  0  0  -0.667183  0  2.316115  0  0  -0.693014  0  2.304966  0  0  -0.391413  -0.649962  0  2.322746  0
O  O115  1  0.46652206  0.70871357  0.29474607  1  0  -0.715388  0  2.058662  0  0  -0.667232  0  2.316037  0  0  -0.693081  0  2.304932  0  0  -0.391442  -0.65  0  2.322666  0
O  O116  1  0.75448859  0.69950507  0.22255580  1  0  -0.709561  0  2.078443  0  0  -0.65769  0  2.338069  0  0  -0.683777  0  2.326126  0  0  -0.404258  -0.639946  0  2.345012  0
O  O117  1  0.74550505  0.19950382  0.72256026  1  0  -0.709559  0  2.078504  0  0  -0.657673  0  2.338138  0  0  -0.683777  0  2.326197  0  0  -0.40424  -0.639946  0  2.345071  0
O  O118  1  0.24550757  0.30049328  0.77743931  1  0  -0.709468  0  2.078547  0  0  -0.657619  0  2.338118  0  0  -0.683727  0  2.326186  0  0  -0.404191  -0.639891  0  2.345067  0
O  O119  1  0.25449111  0.80049360  0.27744526  1  0  -0.709522  0  2.078289  0  0  -0.657661  0  2.337889  0  0  -0.683767  0  2.325974  0  0  -0.404191  -0.639923  0  2.344851  0
O  O120  1  0.46397668  0.15126346  0.47737242  1  0  -0.555337  0  2.128249  0  0  -0.495842  0  2.356424  0  0  -0.518868  0  2.340085  0  0  -0.312109  -0.479879  0  2.367964  0
O  O121  1  0.03602652  0.65126036  0.97737152  1  0  -0.555404  0  2.128085  0  0  -0.495902  0  2.356286  0  0  -0.518919  0  2.339949  0  0  -0.312113  -0.479945  0  2.367834  0
O  O122  1  0.53602382  0.84873680  0.52262589  1  0  -0.555305  0  2.128181  0  0  -0.495832  0  2.356348  0  0  -0.518864  0  2.340018  0  0  -0.312081  -0.47987  0  2.367892  0
O  O123  1  0.96397615  0.34874372  0.02262823  1  0  -0.555391  0  2.128268  0  0  -0.495845  0  2.35652  0  0  -0.518893  0  2.340178  0  0  -0.312075  -0.479882  0  2.368062  0
O  O124  1  0.64524928  0.29881237  0.49548516  1  0  -0.535326  0  1.965726  0  0  -0.483393  0  2.174863  0  0  -0.503839  0  2.164262  0  0  -0.263906  -0.46966  0  2.182236  0
O  O125  1  0.85475535  0.79880540  0.99549066  1  0  -0.535225  0  1.965917  0  0  -0.483317  0  2.175086  0  0  -0.503769  0  2.16448  0  0  -0.263841  -0.469591  0  2.182456  0
O  O126  1  0.35475447  0.70118598  0.50450853  1  0  -0.535283  0  1.965695  0  0  -0.48333  0  2.17482  0  0  -0.503774  0  2.164205  0  0  -0.263907  -0.46961  0  2.182194  0
O  O127  1  0.14525275  0.20118820  0.00450988  1  0  -0.535435  0  1.965076  0  0  -0.483406  0  2.17422  0  0  -0.503873  0  2.163615  0  0  -0.263919  -0.469679  0  2.181592  0
O  O128  1  0.98828980  0.00044400  0.11398301  1  0  -0.94014  0  1.892511  0  0  -0.892661  0  2.103169  0  0  -0.913565  0  2.069873  0  0  -0.669721  -0.87821  0  2.125475  0
O  O129  1  0.51170603  0.50044472  0.61398285  1  0  -0.940163  0  1.892448  0  0  -0.892688  0  2.103155  0  0  -0.913597  0  2.069871  0  0  -0.669736  -0.878255  0  2.12546  0
O  O130  1  0.01170636  0.99955436  0.88601916  1  0  -0.940072  0  1.892497  0  0  -0.892586  0  2.103225  0  0  -0.913512  0  2.069942  0  0  -0.669668  -0.878176  0  2.125521  0
O  O131  1  0.48829230  0.49955364  0.38601720  1  0  -0.940166  0  1.892413  0  0  -0.892722  0  2.103143  0  0  -0.913628  0  2.069854  0  0  -0.669719  -0.878277  0  2.125456  0
O  O132  1  0.19827639  0.02698247  0.39765572  1  0  -0.92846  0  1.90585  0  0  -0.884479  0  2.11667  0  0  -0.90367  0  2.083959  0  0  -0.657448  -0.871036  0  2.139725  0
O  O133  1  0.30172030  0.52698598  0.89765406  1  0  -0.928616  0  1.905737  0  0  -0.884626  0  2.116459  0  0  -0.90379  0  2.08374  0  0  -0.65749  -0.87118  0  2.139513  0
O  O134  1  0.80172086  0.97301779  0.60234259  1  0  -0.928558  0  1.905761  0  0  -0.884578  0  2.116529  0  0  -0.903763  0  2.083819  0  0  -0.657456  -0.871147  0  2.139565  0
O  O135  1  0.69827803  0.47301524  0.10234584  1  0  -0.928627  0  1.905762  0  0  -0.884634  0  2.116492  0  0  -0.903797  0  2.083758  0  0  -0.657499  -0.871186  0  2.139532  0
