# generated using pymatgen
data_CuH12C14(NO3)2
_symmetry_space_group_name_H-M   'P 1'
_cell_length_a   8.58663882
_cell_length_b   8.58666183
_cell_length_c   43.36810522
_cell_angle_alpha   90.00001129
_cell_angle_beta   90.00005463
_cell_angle_gamma   90.00044394
_symmetry_Int_Tables_number   1
_chemical_formula_structural   CuH12C14(NO3)2
_chemical_formula_sum   'Cu8 H96 C112 N16 O48'
_cell_volume   3197.55484698
_cell_formula_units_Z   8
loop_
 _symmetry_equiv_pos_site_id
 _symmetry_equiv_pos_as_xyz
  1  'x, y, z'
loop_
 _atom_site_type_symbol
 _atom_site_label
 _atom_site_symmetry_multiplicity
 _atom_site_fract_x
 _atom_site_fract_y
 _atom_site_fract_z
 _atom_site_occupancy
 _atom_site_pbe_bader_charge
 _atom_site_pbe_bader_spin_density
 _atom_site_pbe_cm5_charge
 _atom_site_pbe_ddec_charge
 _atom_site_pbe_ddec_spin_density
 _atom_site_pbe_ddec_sum_bond_order
 _atom_site_pbe_magmom
Cu  Cu0  1  0.66043009  0.07331981  0.10801746  1  1.106274  0.569494  0.7612  0.799761  0.729812  2.250592  0.568
Cu  Cu1  1  0.33956983  0.92667602  0.60801762  1  1.106324  0.569502  0.761181  0.799683  0.729818  2.250787  0.568
Cu  Cu2  1  0.42667601  0.16042970  0.35801845  1  1.106313  0.569493  0.761191  0.799764  0.729805  2.25055  0.568
Cu  Cu3  1  0.57332163  0.83956868  0.85801750  1  1.106264  0.569497  0.761223  0.799794  0.729813  2.250602  0.568
Cu  Cu4  1  0.83956856  0.57331692  0.14198231  1  1.106361  0.569499  0.761192  0.799765  0.729819  2.250606  0.568
Cu  Cu5  1  0.16043734  0.42667894  0.64198196  1  1.106442  0.5695  0.761215  0.799863  0.729815  2.250528  0.568
Cu  Cu6  1  0.07332794  0.66043545  0.89198273  1  1.106341  0.569497  0.761171  0.799807  0.729809  2.250614  0.568
Cu  Cu7  1  0.92667103  0.33956878  0.39198286  1  1.106185  0.569497  0.761158  0.799777  0.729811  2.250645  0.568
H  H8  1  0.20317449  0.71809246  0.10113265  1  0.590812  0.000294  0.298939  0.319511  0.00022  0.981695  0.0
H  H9  1  0.79683238  0.28190103  0.60113241  1  0.590438  0.000294  0.298933  0.319518  0.00022  0.981635  0.0
H  H10  1  0.78189159  0.70317982  0.35113141  1  0.590751  0.000294  0.298945  0.319513  0.00022  0.981743  0.0
H  H11  1  0.21810368  0.29682554  0.85113267  1  0.590528  0.000294  0.29892  0.319497  0.000221  0.981677  0.0
H  H12  1  0.29682049  0.21809528  0.14886681  1  0.590552  0.000294  0.298934  0.319455  0.000221  0.981794  0.0
H  H13  1  0.70317613  0.78189592  0.64886749  1  0.59055  0.000294  0.298904  0.319415  0.000221  0.981872  0.0
H  H14  1  0.71809652  0.20317760  0.89886733  1  0.590537  0.000294  0.298947  0.3195  0.00022  0.981744  0.0
H  H15  1  0.28190830  0.79682431  0.39886806  1  0.590802  0.000294  0.298916  0.31948  0.000221  0.981738  0.0
H  H16  1  0.26348076  0.91126792  0.18200800  1  0.620833  0.000123  0.293936  0.329156  5.2e-05  0.967426  0.0
H  H17  1  0.73653466  0.08872797  0.68200865  1  0.620695  0.000124  0.293924  0.329181  5.2e-05  0.967337  0.0
H  H18  1  0.58869768  0.76346447  0.43200580  1  0.620582  0.000124  0.293826  0.329103  5.2e-05  0.967443  0.0
H  H19  1  0.41128168  0.23653281  0.93200802  1  0.620721  0.000124  0.293961  0.329199  5.2e-05  0.967248  0.0
H  H20  1  0.23652853  0.41128068  0.06799263  1  0.620712  0.000124  0.29398  0.329248  5.2e-05  0.967266  0.0
H  H21  1  0.76347236  0.58872210  0.56799193  1  0.620723  0.000123  0.293926  0.329118  5.2e-05  0.967451  0.0
H  H22  1  0.91127692  0.26347299  0.81799248  1  0.620743  0.000124  0.293966  0.329233  5.2e-05  0.967287  0.0
H  H23  1  0.08874032  0.73652652  0.31799132  1  0.620862  0.000124  0.293985  0.329231  5.2e-05  0.967292  0.0
H  H24  1  0.51912786  0.31224682  0.14784903  1  0.135914  0.002483  0.125165  0.099366  0.001205  1.020128  0.001
H  H25  1  0.48086759  0.68774555  0.64784921  1  0.135814  0.002481  0.125132  0.099301  0.001204  1.020149  0.001
H  H26  1  0.18774155  0.01912824  0.39785046  1  0.135792  0.002482  0.125159  0.099304  0.001204  1.020112  0.001
H  H27  1  0.81225744  0.98087017  0.89784979  1  0.13582  0.002482  0.125147  0.099309  0.001204  1.020141  0.001
H  H28  1  0.98087265  0.81225197  0.10215053  1  0.135885  0.002482  0.125196  0.09939  0.001204  1.020052  0.001
H  H29  1  0.01913656  0.18774734  0.60214990  1  0.135847  0.00248  0.125134  0.099288  0.001203  1.020216  0.001
H  H30  1  0.31225780  0.51913814  0.85214910  1  0.135784  0.00248  0.125159  0.099351  0.001203  1.020305  0.001
H  H31  1  0.68774446  0.48086722  0.35215058  1  0.135738  0.00248  0.125158  0.099321  0.001203  1.020274  0.001
H  H32  1  0.45638528  0.34019576  0.20274444  1  0.082658  0.001215  0.107289  0.108273  0.000643  1.016595  0.001
H  H33  1  0.54360928  0.65980015  0.70274416  1  0.082605  0.001215  0.107288  0.108312  0.000643  1.016584  0.001
H  H34  1  0.15980074  0.95638529  0.45274589  1  0.082712  0.001216  0.107284  0.108266  0.000643  1.016616  0.001
H  H35  1  0.84019736  0.04361550  0.95274496  1  0.082629  0.001215  0.107297  0.108287  0.000643  1.016606  0.001
H  H36  1  0.04361182  0.84020330  0.04725526  1  0.082628  0.001216  0.107292  0.108351  0.000643  1.016449  0.001
H  H37  1  0.95639363  0.15980179  0.54725527  1  0.082729  0.001215  0.107306  0.108279  0.000643  1.016631  0.001
H  H38  1  0.34019968  0.45639440  0.79725461  1  0.082727  0.001216  0.107289  0.10829  0.000643  1.016555  0.001
H  H39  1  0.65980000  0.54361324  0.29725632  1  0.082598  0.001215  0.107283  0.108299  0.000643  1.016632  0.001
H  H40  1  0.75829857  0.94397989  0.21979964  1  0.084375  0.001282  0.109209  0.111476  0.000688  1.013076  0.001
H  H41  1  0.24170538  0.05602070  0.71979905  1  0.084408  0.001282  0.109207  0.111502  0.000688  1.013087  0.001
H  H42  1  0.55602762  0.25830297  0.46979877  1  0.084362  0.001283  0.109183  0.111431  0.000688  1.013013  0.001
H  H43  1  0.44397289  0.74170365  0.96979871  1  0.084376  0.001283  0.109196  0.111471  0.000688  1.013088  0.001
H  H44  1  0.74169830  0.44397402  0.03020085  1  0.084378  0.001283  0.109179  0.111398  0.000688  1.01303  0.001
H  H45  1  0.25829775  0.55602872  0.53020074  1  0.084343  0.001283  0.109194  0.111447  0.000688  1.013073  0.001
H  H46  1  0.94396674  0.75829170  0.78020020  1  0.084378  0.001283  0.109155  0.111366  0.000688  1.013052  0.001
H  H47  1  0.05602121  0.24170661  0.28020017  1  0.084467  0.001283  0.109203  0.111464  0.000688  1.013055  0.001
H  H48  1  0.79878103  0.92690936  0.16393578  1  0.158717  0.002284  0.119726  0.090277  0.000897  1.033043  0.002
H  H49  1  0.20122265  0.07309351  0.66393518  1  0.158713  0.002285  0.119725  0.090221  0.000898  1.033033  0.002
H  H50  1  0.57308437  0.29878557  0.41393491  1  0.158801  0.002284  0.119767  0.090342  0.000897  1.033044  0.002
H  H51  1  0.42691004  0.70121752  0.91393484  1  0.158702  0.002284  0.119738  0.090299  0.000897  1.033029  0.002
H  H52  1  0.70121920  0.42690556  0.08606494  1  0.158661  0.002284  0.119731  0.09028  0.000897  1.033076  0.002
H  H53  1  0.29878411  0.57309374  0.58606484  1  0.158734  0.002284  0.119744  0.090299  0.000897  1.03305  0.002
H  H54  1  0.92691146  0.79878120  0.83606407  1  0.158716  0.002284  0.119727  0.090272  0.000897  1.033083  0.002
H  H55  1  0.07308840  0.20121833  0.33606427  1  0.158763  0.002285  0.119732  0.090279  0.000898  1.032999  0.002
H  H56  1  0.71515266  0.96367657  0.26524409  1  0.079888  0.001261  0.111427  0.117241  0.000667  1.001103  0.001
H  H57  1  0.28484337  0.03632289  0.76524397  1  0.07985  0.001261  0.11142  0.117199  0.000667  1.001211  0.001
H  H58  1  0.53633534  0.21515227  0.51524438  1  0.079768  0.001261  0.111428  0.117235  0.000667  1.001026  0.001
H  H59  1  0.46366646  0.78485046  0.01524467  1  0.0798  0.001261  0.111372  0.117206  0.000667  1.001075  0.001
H  H60  1  0.78484795  0.46367260  0.98475604  1  0.079816  0.001261  0.111396  0.117199  0.000667  1.001143  0.001
H  H61  1  0.21515263  0.53633171  0.48475628  1  0.079743  0.001261  0.111416  0.117215  0.000667  1.001224  0.001
H  H62  1  0.96368197  0.71515625  0.73475529  1  0.079893  0.001261  0.111446  0.117261  0.000667  1.001194  0.001
H  H63  1  0.03631507  0.28483969  0.23475663  1  0.079863  0.001261  0.111399  0.117236  0.000667  1.001086  0.001
H  H64  1  0.38959789  0.33802821  0.24667626  1  0.06343  0.001298  0.108663  0.113288  0.000687  1.010692  0.001
H  H65  1  0.61039921  0.66197007  0.74667646  1  0.063436  0.001298  0.108625  0.113268  0.000687  1.010674  0.001
H  H66  1  0.16196791  0.88960267  0.49667679  1  0.063313  0.001299  0.108605  0.11318  0.000688  1.010638  0.001
H  H67  1  0.83803157  0.11040515  0.99667609  1  0.063431  0.001298  0.108626  0.113267  0.000688  1.010661  0.001
H  H68  1  0.11040152  0.83803157  0.00332390  1  0.063399  0.001298  0.108643  0.113279  0.000687  1.010659  0.001
H  H69  1  0.88960256  0.16196999  0.50332344  1  0.063266  0.001298  0.108633  0.113274  0.000687  1.010703  0.001
H  H70  1  0.33802733  0.38959891  0.75332348  1  0.063418  0.001298  0.108617  0.113234  0.000687  1.01073  0.001
H  H71  1  0.66196863  0.61040054  0.25332334  1  0.063447  0.001298  0.10864  0.113267  0.000687  1.010722  0.001
H  H72  1  0.33875782  0.55339687  0.12640261  1  0.121292  4.2e-05  0.109894  0.074979  8e-05  0.994738  0.0
H  H73  1  0.66124918  0.44659432  0.62640304  1  0.121339  4.2e-05  0.109889  0.074931  8e-05  0.994748  0.0
H  H74  1  0.94659108  0.83875120  0.37640530  1  0.121365  4.2e-05  0.109881  0.074975  8e-05  0.994844  0.0
H  H75  1  0.05340664  0.16124952  0.87640445  1  0.121315  4.2e-05  0.109909  0.074993  8e-05  0.99492  0.0
H  H76  1  0.16124870  0.05339628  0.12359361  1  0.121191  4.2e-05  0.109902  0.074993  8e-05  0.99472  0.0
H  H77  1  0.83875595  0.94659257  0.62359617  1  0.121376  4.2e-05  0.109901  0.074987  8e-05  0.994766  0.0
H  H78  1  0.55340506  0.33875583  0.87359575  1  0.121338  4.1e-05  0.109893  0.07499  8e-05  0.99481  0.0
H  H79  1  0.44659963  0.66124023  0.37359789  1  0.121333  4.1e-05  0.109904  0.075022  8e-05  0.99476  0.0
H  H80  1  0.33439328  0.61928161  0.17763335  1  0.039923  0.000695  0.099587  0.056987  0.00035  0.961144  0.0
H  H81  1  0.66560931  0.38070845  0.67763401  1  0.039983  0.000695  0.099515  0.056956  0.00035  0.961038  0.0
H  H82  1  0.88067133  0.83439654  0.42763557  1  0.040236  0.000695  0.099482  0.056925  0.00035  0.96104  0.0
H  H83  1  0.11929986  0.16561238  0.92763519  1  0.040064  0.000694  0.099483  0.056955  0.00035  0.961092  0.0
H  H84  1  0.16560793  0.11929732  0.07236311  1  0.039944  0.000694  0.099503  0.056972  0.00035  0.961034  0.0
H  H85  1  0.83439298  0.88070546  0.57236566  1  0.039981  0.000695  0.099525  0.056931  0.00035  0.961074  0.0
H  H86  1  0.61929450  0.33439115  0.82236525  1  0.040005  0.000695  0.099509  0.056956  0.00035  0.961076  0.0
H  H87  1  0.38072625  0.66560370  0.32236737  1  0.045892  0.000683  0.099575  0.057021  0.00035  0.961091  0.0
H  H88  1  0.63652255  0.97968484  0.32031221  1  0.189491  0.00207  0.123036  0.108394  0.000941  1.028038  0.002
H  H89  1  0.36346559  0.02031700  0.82031233  1  0.189415  0.00207  0.123026  0.108325  0.000941  1.028112  0.002
H  H90  1  0.52031726  0.13652331  0.57031157  1  0.189409  0.002066  0.123037  0.108386  0.000939  1.028203  0.002
H  H91  1  0.47968248  0.86347598  0.07031187  1  0.189453  0.002069  0.123079  0.108387  0.000941  1.028145  0.002
H  H92  1  0.86347003  0.47968027  0.92968724  1  0.189458  0.002071  0.123033  0.108366  0.000942  1.028048  0.002
H  H93  1  0.13653145  0.52032632  0.42968746  1  0.189252  0.002072  0.123016  0.108308  0.000942  1.028079  0.002
H  H94  1  0.97969013  0.63652969  0.67968740  1  0.18944  0.002069  0.123046  0.108354  0.000941  1.02802  0.002
H  H95  1  0.02031014  0.36346504  0.17968875  1  0.189438  0.002069  0.123059  0.108337  0.000941  1.02815  0.002
H  H96  1  0.33313009  0.34394766  0.30263143  1  0.132921  0.002123  0.123651  0.098031  0.00092  0.998244  0.001
H  H97  1  0.66686495  0.65605649  0.80263210  1  0.132935  0.002123  0.123675  0.098071  0.00092  0.998216  0.001
H  H98  1  0.15605282  0.83314301  0.55263220  1  0.132937  0.00212  0.123726  0.09817  0.000918  0.998292  0.001
H  H99  1  0.84394800  0.16687140  0.05263208  1  0.132904  0.002123  0.123643  0.098035  0.00092  0.998194  0.001
H  H100  1  0.16686480  0.84395302  0.94736838  1  0.133002  0.002124  0.123653  0.098053  0.00092  0.998157  0.001
H  H101  1  0.83313444  0.15605126  0.44736779  1  0.132945  0.002124  0.123656  0.098027  0.000921  0.998164  0.001
H  H102  1  0.34395013  0.33313459  0.69736784  1  0.132947  0.002124  0.123663  0.098054  0.00092  0.998173  0.001
H  H103  1  0.65605488  0.66686131  0.19736747  1  0.132918  0.002122  0.123685  0.098097  0.00092  0.998243  0.001
C  C104  1  0.54393411  0.69252391  0.13019805  1  1.610816  0.000521  0.207906  0.590574  0.000304  4.131639  -0.001
C  C105  1  0.45607407  0.30746961  0.63019798  1  1.610804  0.000522  0.207846  0.590455  0.000305  4.131414  -0.001
C  C106  1  0.80745208  0.04393189  0.38019723  1  1.61097  0.000524  0.208092  0.590914  0.000306  4.131184  -0.001
C  C107  1  0.19254217  0.95607116  0.88019782  1  1.610539  0.000526  0.208029  0.590832  0.000306  4.131235  -0.001
C  C108  1  0.95605965  0.19253026  0.11980196  1  1.610705  0.000524  0.208063  0.590855  0.000304  4.131179  -0.001
C  C109  1  0.04393451  0.80745859  0.61980298  1  1.610844  0.000523  0.207921  0.590663  0.000306  4.13149  -0.001
C  C110  1  0.69252431  0.54393272  0.86980151  1  1.61085  0.000522  0.207938  0.590699  0.000304  4.131347  -0.001
C  C111  1  0.30746989  0.45606566  0.36980245  1  1.610841  0.000523  0.207859  0.590659  0.000305  4.131315  -0.001
C  C112  1  0.56235986  0.22777528  0.16451013  1  0.462669  -0.001753  0.051629  0.096855  -0.002358  3.930919  -0.001
C  C113  1  0.43763801  0.77221710  0.66450961  1  0.462722  -0.001753  0.051653  0.096957  -0.002359  3.930496  -0.001
C  C114  1  0.27221370  0.06235958  0.41450972  1  0.462713  -0.001753  0.05162  0.097033  -0.002359  3.930593  -0.001
C  C115  1  0.72778188  0.93764118  0.91451064  1  0.462708  -0.001752  0.051664  0.097072  -0.002357  3.930744  -0.001
C  C116  1  0.93764116  0.72778125  0.08548966  1  0.462704  -0.001753  0.051665  0.096981  -0.002358  3.930677  -0.001
C  C117  1  0.06236331  0.27221222  0.58549043  1  0.462694  -0.001753  0.05173  0.097129  -0.002358  3.93049  -0.001
C  C118  1  0.22779182  0.56235949  0.83549192  1  0.462104  -0.001754  0.051625  0.096965  -0.002359  3.9305  -0.001
C  C119  1  0.77220920  0.43764353  0.33549272  1  0.462105  -0.001754  0.051634  0.096889  -0.00236  3.930438  -0.001
C  C120  1  0.53095423  0.24409933  0.19569410  1  0.034864  0.004905  -0.079643  -0.161371  0.003347  3.927841  0.004
C  C121  1  0.46904379  0.75589657  0.69569474  1  0.034879  0.004905  -0.07966  -0.161375  0.003347  3.927741  0.004
C  C122  1  0.25590110  0.03095734  0.44569531  1  0.034811  0.004907  -0.07963  -0.161328  0.003348  3.927664  0.004
C  C123  1  0.74409929  0.96904810  0.94569439  1  0.034833  0.004905  -0.079648  -0.161415  0.003347  3.927937  0.004
C  C124  1  0.96903993  0.74409620  0.05430568  1  0.034893  0.004906  -0.079688  -0.161478  0.003347  3.927967  0.004
C  C125  1  0.03096090  0.25589841  0.55430483  1  0.034779  0.004906  -0.079615  -0.161287  0.003347  3.927756  0.004
C  C126  1  0.24409719  0.53095968  0.80430471  1  0.035368  0.004907  -0.079715  -0.161446  0.003348  3.927522  0.004
C  C127  1  0.75589553  0.46904797  0.30430505  1  0.035373  0.004905  -0.07964  -0.161313  0.003347  3.92749  0.004
C  C128  1  0.59585238  0.13950481  0.21704228  1  -0.092403  -0.003707  0.009861  0.094289  -0.004236  3.978648  -0.002
C  C129  1  0.40414924  0.86049228  0.71704176  1  -0.092579  -0.003707  0.00988  0.094202  -0.004235  3.978717  -0.002
C  C130  1  0.36049646  0.09585492  0.46704165  1  -0.09248  -0.003707  0.009876  0.094173  -0.004236  3.978749  -0.002
C  C131  1  0.63950170  0.90415171  0.96704187  1  -0.092641  -0.003707  0.009955  0.094298  -0.004236  3.978632  -0.002
C  C132  1  0.90414679  0.63950465  0.03295911  1  -0.09252  -0.003707  0.009807  0.094113  -0.004235  3.978974  -0.002
C  C133  1  0.09585626  0.36049809  0.53295851  1  -0.092437  -0.003707  0.009872  0.094208  -0.004236  3.978797  -0.002
C  C134  1  0.13950116  0.59585526  0.78295837  1  -0.092427  -0.003707  0.009845  0.094091  -0.004235  3.978815  -0.002
C  C135  1  0.86049262  0.40414887  0.28295873  1  -0.09251  -0.003707  0.009798  0.094137  -0.004235  3.978933  -0.002
C  C136  1  0.69714300  0.02639955  0.20507013  1  0.007129  0.006235  -0.075626  -0.157549  0.004142  3.912139  0.005
C  C137  1  0.30286088  0.97359986  0.70507074  1  0.007574  0.006234  -0.075574  -0.157473  0.004143  3.911983  0.005
C  C138  1  0.47359696  0.19714151  0.45506996  1  0.00766  0.006234  -0.075611  -0.157417  0.004143  3.912178  0.005
C  C139  1  0.52639766  0.80286278  0.95507015  1  0.007627  0.006234  -0.075661  -0.157589  0.004143  3.912115  0.005
C  C140  1  0.80286112  0.52640327  0.04492988  1  0.007305  0.006235  -0.075529  -0.157276  0.004143  3.912171  0.005
C  C141  1  0.19714083  0.47360065  0.54492999  1  0.007261  0.006236  -0.07558  -0.157402  0.004143  3.912274  0.005
C  C142  1  0.02640145  0.69713516  0.79492984  1  0.007564  0.006235  -0.07559  -0.157366  0.004143  3.912332  0.005
C  C143  1  0.97359355  0.30286432  0.29493021  1  0.007658  0.006235  -0.075575  -0.157467  0.004143  3.912244  0.005
C  C144  1  0.72082036  0.01491087  0.17344297  1  0.520301  -0.001028  0.061197  0.122468  -0.001293  3.886635  0.0
C  C145  1  0.27918453  0.98508617  0.67344289  1  0.520018  -0.001026  0.061144  0.1225  -0.001293  3.886468  0.0
C  C146  1  0.48508808  0.22082595  0.42344327  1  0.519675  -0.001026  0.061056  0.122277  -0.001292  3.886595  0.0
C  C147  1  0.51491104  0.77918064  0.92344230  1  0.519847  -0.001026  0.061184  0.122553  -0.001293  3.886548  0.0
C  C148  1  0.77917668  0.51490629  0.07655727  1  0.520162  -0.001027  0.061153  0.12238  -0.001293  3.886571  0.0
C  C149  1  0.22082658  0.48509183  0.57655715  1  0.52014  -0.001027  0.061137  0.122388  -0.001293  3.886777  0.0
C  C150  1  0.01491051  0.72082304  0.82655653  1  0.51992  -0.001026  0.061171  0.122461  -0.001293  3.886671  0.0
C  C151  1  0.98508232  0.27918230  0.32655668  1  0.519956  -0.001026  0.061134  0.122439  -0.001292  3.886649  0.0
C  C152  1  0.55810780  0.14836028  0.25028215  1  -0.01471  -0.003199  0.01377  0.10643  -0.003671  3.975519  -0.002
C  C153  1  0.44188815  0.85164034  0.75028255  1  -0.014951  -0.003199  0.013741  0.106491  -0.003672  3.975447  -0.002
C  C154  1  0.35164194  0.05810798  0.50028267  1  -0.014491  -0.0032  0.013849  0.106603  -0.003673  3.975712  -0.002
C  C155  1  0.64835397  0.94189590  0.00028232  1  -0.014215  -0.0032  0.013778  0.106555  -0.003673  3.975577  -0.002
C  C156  1  0.94188920  0.64835966  0.99971682  1  -0.01512  -0.003199  0.013769  0.106515  -0.003671  3.975606  -0.002
C  C157  1  0.05811029  0.35164350  0.49971703  1  -0.015048  -0.003199  0.013765  0.10647  -0.003672  3.975461  -0.002
C  C158  1  0.14836354  0.55810604  0.74971643  1  -0.014631  -0.003198  0.013749  0.106485  -0.003671  3.975617  -0.002
C  C159  1  0.85163823  0.44189225  0.24971817  1  -0.015164  -0.0032  0.013767  0.106476  -0.003672  3.975466  -0.002
C  C160  1  0.62751763  0.04873627  0.27199188  1  -0.039359  0.005287  -0.078841  -0.166717  0.0035  3.920614  0.004
C  C161  1  0.37247609  0.95126203  0.77199205  1  -0.039529  0.005288  -0.078726  -0.166558  0.0035  3.920716  0.004
C  C162  1  0.45126681  0.12751719  0.52199218  1  -0.039103  0.005285  -0.078837  -0.166717  0.003499  3.9207  0.004
C  C163  1  0.54873153  0.87248555  0.02199204  1  -0.039567  0.005288  -0.078853  -0.166751  0.0035  3.920576  0.004
C  C164  1  0.87248092  0.54873510  0.97800824  1  -0.039392  0.005289  -0.078816  -0.166687  0.003501  3.920785  0.004
C  C165  1  0.12752312  0.45127153  0.47800799  1  -0.039479  0.005289  -0.078871  -0.166766  0.003501  3.920622  0.004
C  C166  1  0.04874037  0.62752377  0.72800784  1  -0.039592  0.005288  -0.078818  -0.166721  0.0035  3.920515  0.004
C  C167  1  0.95125896  0.37247566  0.22800844  1  -0.039203  0.005287  -0.07883  -0.166746  0.0035  3.920396  0.004
C  C168  1  0.44898639  0.25591504  0.26176500  1  -0.037111  0.004567  -0.084161  -0.180758  0.003106  3.95634  0.004
C  C169  1  0.55101311  0.74408907  0.76176473  1  -0.036735  0.004568  -0.084131  -0.180781  0.003106  3.956285  0.004
C  C170  1  0.24409810  0.94899278  0.51176531  1  -0.037128  0.004567  -0.084169  -0.180702  0.003105  3.956634  0.004
C  C171  1  0.75590485  0.05101810  0.01176609  1  -0.037063  0.004566  -0.084115  -0.18081  0.003105  3.956592  0.004
C  C172  1  0.05101131  0.75591372  0.98823526  1  -0.036767  0.004568  -0.084165  -0.180843  0.003106  3.956453  0.004
C  C173  1  0.94898696  0.24408943  0.48823517  1  -0.036645  0.004567  -0.084147  -0.180788  0.003106  3.956468  0.004
C  C174  1  0.25591158  0.44898837  0.73823634  1  -0.036821  0.004568  -0.084159  -0.180732  0.003106  3.956431  0.004
C  C175  1  0.74409014  0.55101223  0.23823438  1  -0.037065  0.004567  -0.084172  -0.180803  0.003106  3.95649  0.004
C  C176  1  0.36704877  0.67699914  0.13013071  1  0.418402  0.01044  -0.008435  0.043882  0.007406  3.866539  0.008
C  C177  1  0.63295824  0.32299321  0.63013135  1  0.417701  0.010439  -0.008346  0.044074  0.007405  3.866492  0.008
C  C178  1  0.82300035  0.86703878  0.38013176  1  0.417648  0.010438  -0.008228  0.044154  0.007404  3.866303  0.008
C  C179  1  0.17699623  0.13296311  0.88013232  1  0.417967  0.010437  -0.008315  0.04401  0.007405  3.866403  0.008
C  C180  1  0.13296103  0.17699950  0.11986691  1  0.417959  0.010444  -0.008308  0.044026  0.007409  3.866387  0.008
C  C181  1  0.86704244  0.82299983  0.61986831  1  0.418067  0.010442  -0.008324  0.044011  0.007407  3.866161  0.008
C  C182  1  0.67699835  0.36704669  0.86986814  1  0.41831  0.010441  -0.008349  0.043884  0.007406  3.866522  0.008
C  C183  1  0.32299585  0.63295053  0.36986956  1  0.418288  0.010443  -0.008375  0.043827  0.007408  3.86656  0.008
C  C184  1  0.30199212  0.71783783  0.16234354  1  0.496497  0.010785  -0.011041  0.052786  0.007539  3.906763  0.009
C  C185  1  0.69801622  0.28215106  0.66234259  1  0.497033  0.010785  -0.011086  0.052599  0.00754  3.906804  0.009
C  C186  1  0.78213319  0.80199008  0.41234229  1  0.49677  0.010784  -0.011086  0.052538  0.007538  3.907068  0.009
C  C187  1  0.21785422  0.19801534  0.91234309  1  0.496851  0.010784  -0.011063  0.052554  0.007539  3.906759  0.009
C  C188  1  0.19800869  0.21785031  0.08765569  1  0.496849  0.010786  -0.011016  0.052505  0.007539  3.906954  0.009
C  C189  1  0.80198997  0.78214899  0.58765708  1  0.496622  0.010782  -0.011068  0.052727  0.007538  3.906694  0.009
C  C190  1  0.71785219  0.30199129  0.83765691  1  0.496627  0.010787  -0.011072  0.052592  0.007541  3.906976  0.009
C  C191  1  0.28216049  0.69800824  0.33765648  1  0.490839  0.010797  -0.011104  0.052499  0.00754  3.907125  0.009
C  C192  1  0.12289179  0.72344117  0.16121851  1  1.544855  0.001015  0.193208  0.530408  0.000862  4.237597  0.0
C  C193  1  0.87711770  0.27655587  0.66121897  1  1.545087  0.001016  0.193234  0.530429  0.000861  4.23751  0.0
C  C194  1  0.77653077  0.62287971  0.41121888  1  1.544868  0.001016  0.193223  0.530542  0.000861  4.237451  0.0
C  C195  1  0.22345781  0.37712105  0.91121876  1  1.544801  0.001016  0.193325  0.530713  0.000861  4.237299  0.0
C  C196  1  0.37711605  0.22345854  0.08878026  1  1.544806  0.001016  0.193231  0.530629  0.000862  4.237364  0.0
C  C197  1  0.62288728  0.77654543  0.58878116  1  1.54478  0.001016  0.193234  0.530538  0.000861  4.237336  0.0
C  C198  1  0.72345089  0.12288678  0.83878124  1  1.544524  0.001016  0.193236  0.530602  0.000862  4.237433  0.0
C  C199  1  0.27656296  0.87710925  0.33878150  1  1.545054  0.001014  0.193136  0.53039  0.000862  4.237962  0.0
C  C200  1  0.58581225  0.05665655  0.30292337  1  0.500761  -0.00122  0.055688  0.109599  -0.001568  3.885102  -0.001
C  C201  1  0.41417814  0.94334178  0.80292331  1  0.500895  -0.001219  0.055589  0.109496  -0.001567  3.885267  -0.001
C  C202  1  0.44335792  0.08582926  0.55292298  1  0.500299  -0.001217  0.055555  0.109429  -0.001566  3.885149  -0.001
C  C203  1  0.55665221  0.91418282  0.05292353  1  0.500799  -0.00122  0.055643  0.10955  -0.001568  3.88513  -0.001
C  C204  1  0.91418754  0.55665800  0.94707698  1  0.500821  -0.001219  0.055673  0.109566  -0.001567  3.885251  -0.001
C  C205  1  0.08581402  0.44334628  0.44707696  1  0.501015  -0.001219  0.05563  0.109588  -0.001567  3.885218  -0.001
C  C206  1  0.05666291  0.58582190  0.69707590  1  0.500905  -0.001219  0.055681  0.109642  -0.001567  3.884946  -0.001
C  C207  1  0.94333977  0.41417168  0.19707627  1  0.500585  -0.001218  0.055643  0.10962  -0.001567  3.88509  -0.001
C  C208  1  0.41475888  0.25957642  0.29302737  1  0.471819  -0.001208  0.050721  0.092604  -0.001672  3.957255  -0.001
C  C209  1  0.58523611  0.74042656  0.79302780  1  0.471617  -0.001209  0.050686  0.092484  -0.001673  3.957278  -0.001
C  C210  1  0.24041325  0.91475479  0.54302699  1  0.47172  -0.00121  0.050597  0.092359  -0.001673  3.957005  -0.001
C  C211  1  0.75957471  0.08524447  0.04302639  1  0.471762  -0.001209  0.050685  0.092563  -0.001672  3.957036  -0.001
C  C212  1  0.08523651  0.75957533  0.95697266  1  0.471513  -0.00121  0.050746  0.092642  -0.001673  3.957118  -0.001
C  C213  1  0.91476743  0.24043129  0.45697302  1  0.471023  -0.001209  0.050732  0.092622  -0.001674  3.957258  -0.001
C  C214  1  0.25957520  0.41476436  0.70697212  1  0.471622  -0.00121  0.050809  0.092654  -0.001674  3.957028  -0.001
C  C215  1  0.74042171  0.58523854  0.20697246  1  0.471813  -0.001209  0.050695  0.09252  -0.001672  3.957113  -0.001
N  N216  1  0.65105998  0.11162804  0.15345362  1  -1.202256  0.090795  -0.33535  -0.193586  0.060422  3.591073  0.079
N  N217  1  0.34893783  0.88836899  0.65345309  1  -1.202422  0.090791  -0.335391  -0.193695  0.06042  3.591095  0.079
N  N218  1  0.38836190  0.15106504  0.40345368  1  -1.202055  0.09082  -0.335259  -0.193623  0.060438  3.590881  0.079
N  N219  1  0.61163246  0.84893803  0.90345320  1  -1.202219  0.090806  -0.335386  -0.193784  0.060429  3.591107  0.079
N  N220  1  0.84893897  0.61162868  0.09654662  1  -1.202125  0.090811  -0.335362  -0.193659  0.060432  3.590984  0.079
N  N221  1  0.15107137  0.38837180  0.59654672  1  -1.202125  0.090812  -0.335463  -0.193887  0.060433  3.591133  0.079
N  N222  1  0.11163265  0.65106756  0.84654658  1  -1.20215  0.09081  -0.335297  -0.193593  0.060432  3.590865  0.079
N  N223  1  0.88836843  0.34893314  0.34654694  1  -1.202252  0.090803  -0.335298  -0.193557  0.060427  3.59099  0.079
N  N224  1  0.48099518  0.16095861  0.31320741  1  -1.206398  0.086868  -0.341179  -0.207558  0.057925  3.596474  0.076
N  N225  1  0.51899758  0.83904089  0.81320806  1  -1.206356  0.086875  -0.341122  -0.207376  0.057929  3.596566  0.076
N  N226  1  0.33904004  0.98099862  0.56320912  1  -1.205955  0.08689  -0.341041  -0.207296  0.057941  3.595812  0.076
N  N227  1  0.66095734  0.01900415  0.06320803  1  -1.206292  0.086884  -0.341164  -0.207442  0.057936  3.59607  0.076
N  N228  1  0.01899829  0.66095816  0.93679285  1  -1.206376  0.086878  -0.341171  -0.207487  0.057931  3.596436  0.076
N  N229  1  0.98100322  0.33904728  0.43679276  1  -1.20563  0.086878  -0.341125  -0.207419  0.057932  3.596616  0.076
N  N230  1  0.16096523  0.48100275  0.68679162  1  -1.206488  0.086868  -0.341212  -0.207589  0.057926  3.596551  0.076
N  N231  1  0.83903973  0.51899431  0.18679174  1  -1.206217  0.086877  -0.341103  -0.207413  0.057931  3.596255  0.076
O  O232  1  0.61252714  0.80768417  0.11931518  1  -1.185839  0.002413  -0.31174  -0.564389  0.000574  2.321727  0.003
O  O233  1  0.38747982  0.19230701  0.61931601  1  -1.185815  0.002414  -0.311788  -0.564415  0.000575  2.321537  0.003
O  O234  1  0.69231879  0.11251339  0.36931756  1  -1.186039  0.002403  -0.311734  -0.564382  0.000567  2.322168  0.003
O  O235  1  0.30768123  0.88748966  0.86931725  1  -1.185877  0.002406  -0.311738  -0.564356  0.00057  2.321939  0.003
O  O236  1  0.88748148  0.30767021  0.13068230  1  -1.185878  0.002407  -0.311724  -0.564393  0.00057  2.321861  0.003
O  O237  1  0.11251505  0.69231749  0.63068402  1  -1.185925  0.002408  -0.311729  -0.564345  0.000571  2.322081  0.003
O  O238  1  0.80768841  0.61252327  0.88068510  1  -1.18577  0.002415  -0.311757  -0.564448  0.000575  2.321557  0.003
O  O239  1  0.19229885  0.38748211  0.38068601  1  -1.186022  0.002417  -0.31182  -0.564573  0.000577  2.321421  0.003
O  O240  1  0.61088886  0.57324266  0.14298280  1  -1.148029  0.100859  -0.336802  -0.576904  0.064392  2.368794  0.091
O  O241  1  0.38911938  0.42674970  0.64298294  1  -1.147985  0.100859  -0.336712  -0.576794  0.064392  2.368627  0.091
O  O242  1  0.92674701  0.11088970  0.39298613  1  -1.147897  0.100896  -0.336931  -0.577187  0.064414  2.368264  0.091
O  O243  1  0.07325196  0.88911221  0.89298578  1  -1.147962  0.100889  -0.336906  -0.57715  0.06441  2.368462  0.091
O  O244  1  0.88910630  0.07323917  0.10701606  1  -1.147809  0.100884  -0.336945  -0.577074  0.064408  2.368522  0.091
O  O245  1  0.11089012  0.92674501  0.60701525  1  -1.147927  0.100887  -0.336752  -0.576917  0.064409  2.368427  0.091
O  O246  1  0.57324853  0.61088959  0.85701653  1  -1.148122  0.100852  -0.336786  -0.576898  0.064388  2.368765  0.091
O  O247  1  0.42674094  0.38910879  0.35701887  1  -1.147931  0.100836  -0.336683  -0.576763  0.06438  2.368864  0.091
O  O248  1  0.30189668  0.76916392  0.10587186  1  -1.112069  0.004817  -0.397662  -0.465469  0.00286  2.263626  0.004
O  O249  1  0.69810788  0.23082376  0.60587206  1  -1.111558  0.004817  -0.397656  -0.465491  0.00286  2.263351  0.004
O  O250  1  0.73082427  0.80190018  0.35587037  1  -1.111805  0.004818  -0.397744  -0.465587  0.002861  2.263308  0.004
O  O251  1  0.26917452  0.19810518  0.85587233  1  -1.111515  0.004818  -0.397668  -0.4655  0.002861  2.263316  0.004
O  O252  1  0.19809637  0.26916364  0.14412737  1  -1.111625  0.004819  -0.397753  -0.465501  0.002861  2.263711  0.004
O  O253  1  0.80189791  0.73082290  0.64412807  1  -1.111561  0.004818  -0.39771  -0.465488  0.002861  2.263425  0.004
O  O254  1  0.76917275  0.30189951  0.89412768  1  -1.111777  0.004818  -0.397676  -0.46543  0.002861  2.26347  0.004
O  O255  1  0.23083205  0.69810822  0.39412816  1  -1.112026  0.004818  -0.397632  -0.465357  0.00286  2.263623  0.004
O  O256  1  0.06314269  0.61583917  0.14431460  1  -1.117728  0.09074  -0.328012  -0.550781  0.057664  2.463162  0.082
O  O257  1  0.93686206  0.38415669  0.64431370  1  -1.117648  0.090744  -0.327931  -0.550656  0.057664  2.462923  0.082
O  O258  1  0.88414187  0.56313862  0.39431476  1  -1.117304  0.090723  -0.327909  -0.550703  0.057651  2.462933  0.082
O  O259  1  0.11585361  0.43686212  0.89431486  1  -1.117568  0.090721  -0.327951  -0.550805  0.05765  2.463149  0.082
O  O260  1  0.43685616  0.11584885  0.10568485  1  -1.117433  0.090735  -0.327922  -0.550753  0.057659  2.462893  0.082
O  O261  1  0.56314492  0.88415046  0.60568598  1  -1.117534  0.090734  -0.327949  -0.55074  0.057659  2.463039  0.082
O  O262  1  0.61584631  0.06314372  0.85568466  1  -1.117558  0.090745  -0.327923  -0.550731  0.057665  2.463135  0.082
O  O263  1  0.38416645  0.93685349  0.35568703  1  -1.117691  0.09076  -0.327914  -0.550675  0.057674  2.463182  0.082
O  O264  1  0.05441608  0.82832451  0.17592286  1  -1.17397  0.002008  -0.331094  -0.551539  0.00048  2.11786  0.002
O  O265  1  0.94559232  0.17168069  0.67592402  1  -1.174398  0.002007  -0.331151  -0.551597  0.00048  2.118075  0.002
O  O266  1  0.67165947  0.55440567  0.42592207  1  -1.174328  0.002005  -0.331198  -0.551687  0.000478  2.118118  0.002
O  O267  1  0.32833500  0.44559394  0.92592106  1  -1.174171  0.002007  -0.331257  -0.551802  0.000479  2.118012  0.002
O  O268  1  0.44558908  0.32833424  0.07407961  1  -1.17412  0.002006  -0.331198  -0.551705  0.000478  2.118099  0.002
O  O269  1  0.55440602  0.67166971  0.57407818  1  -1.174081  0.002006  -0.331182  -0.551687  0.000479  2.11792  0.002
O  O270  1  0.82833331  0.05441238  0.82407851  1  -1.173754  0.002008  -0.331215  -0.551745  0.00048  2.117864  0.002
O  O271  1  0.17168746  0.94558480  0.32407783  1  -1.174161  0.002007  -0.331149  -0.551594  0.000479  2.118209  0.002
O  O272  1  0.35942611  0.85973837  0.17469687  1  -1.144692  0.005162  -0.416075  -0.490027  0.003095  2.232756  0.004
O  O273  1  0.64058345  0.14024937  0.67469613  1  -1.144591  0.005163  -0.416063  -0.490018  0.003095  2.232634  0.004
O  O274  1  0.64021645  0.85941697  0.42469099  1  -1.14453  0.005162  -0.415973  -0.489975  0.003095  2.232617  0.004
O  O275  1  0.35975472  0.14058263  0.92469619  1  -1.144595  0.005162  -0.416113  -0.490028  0.003094  2.23257  0.004
O  O276  1  0.14057579  0.35975272  0.07530306  1  -1.144628  0.005162  -0.416145  -0.490083  0.003094  2.232668  0.004
O  O277  1  0.85942281  0.64024773  0.57530376  1  -1.144713  0.005161  -0.416073  -0.490009  0.003094  2.232706  0.004
O  O278  1  0.85975191  0.35942509  0.82530338  1  -1.144756  0.005164  -0.416098  -0.490051  0.003095  2.232679  0.004
O  O279  1  0.14026653  0.64057908  0.32530177  1  -1.144973  0.005163  -0.416108  -0.489993  0.003095  2.232875  0.004
