# generated using pymatgen
data_CdH15C16S3(N2O3)2
_symmetry_space_group_name_H-M   'P 1'
_cell_length_a   8.41182216
_cell_length_b   11.66091449
_cell_length_c   11.96687227
_cell_angle_alpha   106.53912811
_cell_angle_beta   106.31955108
_cell_angle_gamma   94.30154305
_symmetry_Int_Tables_number   1
_chemical_formula_structural   CdH15C16S3(N2O3)2
_chemical_formula_sum   'Cd2 H30 C32 S6 N8 O12'
_cell_volume   1064.48509977
_cell_formula_units_Z   2
loop_
 _symmetry_equiv_pos_site_id
 _symmetry_equiv_pos_as_xyz
  1  'x, y, z'
loop_
 _atom_site_type_symbol
 _atom_site_label
 _atom_site_symmetry_multiplicity
 _atom_site_fract_x
 _atom_site_fract_y
 _atom_site_fract_z
 _atom_site_occupancy
 _atom_site_hle17_bader_spin_density
 _atom_site_hle17_ddec_charge
 _atom_site_hle17_ddec_spin_density
 _atom_site_hle17_ddec_sum_bond_order
 _atom_site_hle17_magmom
 _atom_site_hse06_10hf_bader_spin_density
 _atom_site_hse06_10hf_ddec_charge
 _atom_site_hse06_10hf_ddec_spin_density
 _atom_site_hse06_10hf_ddec_sum_bond_order
 _atom_site_hse06_10hf_magmom
 _atom_site_hse06_bader_spin_density
 _atom_site_hse06_ddec_charge
 _atom_site_hse06_ddec_spin_density
 _atom_site_hse06_ddec_sum_bond_order
 _atom_site_hse06_magmom
 _atom_site_pbe_bader_spin_density
 _atom_site_pbe_cm5_charge
 _atom_site_pbe_ddec_charge
 _atom_site_pbe_ddec_spin_density
 _atom_site_pbe_ddec_sum_bond_order
 _atom_site_pbe_magmom
Cd  Cd0  1  0.14839486  0.17195260  0.28397739  1  0  1.209481  0  1.630451  0  0  1.02907  0  2.082077  0  0  1.087572  0  2.023914  0  0  0.781654  0.986945  0  2.122389  0
Cd  Cd1  1  0.85161140  0.82805282  0.71602575  1  0  1.209583  0  1.63028  0  0  1.029181  0  2.08193  0  0  1.087681  0  2.023764  0  0  0.781716  0.987064  0  2.122237  0
H  H2  1  0.03880955  0.61150717  0.74753347  1  0  0.082522  0  0.9417  0  0  0.0906  0  1.005814  0  0  0.093187  0  1.003245  0  0  0.112651  0.08872  0  1.007664  0
H  H3  1  0.96119986  0.38850087  0.25245179  1  0  0.082561  0  0.941703  0  0  0.09066  0  1.005784  0  0  0.093247  0  1.003217  0  0  0.112619  0.088781  0  1.007626  0
H  H4  1  0.14568062  0.90720523  0.21387205  1  0  0.397907  0  0.881701  0  0  0.371337  0  0.948861  0  0  0.380115  0  0.935978  0  0  0.291924  0.364956  0  0.958246  0
H  H5  1  0.85431845  0.09282239  0.78614583  1  0  0.397776  0  0.881791  0  0  0.371209  0  0.949023  0  0  0.379985  0  0.936144  0  0  0.291822  0.364828  0  0.958409  0
H  H6  1  0.00898931  0.91326492  0.09407824  1  0  0.438728  0  0.859635  0  0  0.406641  0  0.923784  0  0  0.418463  0  0.906799  0  0  0.285316  0.398255  0  0.935793  0
H  H7  1  0.99099637  0.08675488  0.90594155  1  0  0.438984  0  0.859307  0  0  0.406951  0  0.923366  0  0  0.41877  0  0.906384  0  0  0.285397  0.398564  0  0.935378  0
H  H8  1  0.55271358  0.15173326  0.32971896  1  0  0.307456  0  0.911767  0  0  0.289874  0  0.974778  0  0  0.297372  0  0.96897  0  0  0.31236  0.284534  0  0.978986  0
H  H9  1  0.44728434  0.84825598  0.67029144  1  0  0.307519  0  0.911806  0  0  0.289925  0  0.974854  0  0  0.297424  0  0.969043  0  0  0.312366  0.284581  0  0.97906  0
H  H10  1  0.61982511  0.60849420  0.46353755  1  0  0.071892  0  0.944215  0  0  0.079529  0  1.010321  0  0  0.080874  0  1.009941  0  0  0.10901  0.078506  0  1.010666  0
H  H11  1  0.38016406  0.39150351  0.53646429  1  0  0.071873  0  0.944206  0  0  0.079532  0  1.010288  0  0  0.080871  0  1.009924  0  0  0.108983  0.078509  0  1.010628  0
H  H12  1  0.58825212  0.38459068  0.36503939  1  0  0.12246  0  0.962767  0  0  0.127635  0  1.031354  0  0  0.131316  0  1.030134  0  0  0.10399  0.12497  0  1.03244  0
H  H13  1  0.41172723  0.61540734  0.63496229  1  0  0.122513  0  0.96272  0  0  0.127649  0  1.031353  0  0  0.13132  0  1.030154  0  0  0.10402  0.124988  0  1.032443  0
H  H14  1  0.02503730  0.38917669  0.66393799  1  0  0.120846  0  0.949418  0  0  0.128422  0  1.012003  0  0  0.132093  0  1.010384  0  0  0.107191  0.125846  0  1.013187  0
H  H15  1  0.97497685  0.61083486  0.33604916  1  0  0.120878  0  0.94924  0  0  0.128427  0  1.011857  0  0  0.132097  0  1.010239  0  0  0.10722  0.125854  0  1.013035  0
H  H16  1  0.91644056  0.20838511  0.46377530  1  0  0.109749  0  0.929353  0  0  0.124749  0  0.987637  0  0  0.126432  0  0.985919  0  0  0.120903  0.123415  0  0.988985  0
H  H17  1  0.08357036  0.79162380  0.53621467  1  0  0.109783  0  0.929354  0  0  0.124815  0  0.987589  0  0  0.126488  0  0.985874  0  0  0.120926  0.123476  0  0.988931  0
H  H18  1  0.74708851  0.19369580  0.52221112  1  0  0.070578  0  0.952138  0  0  0.080885  0  1.025681  0  0  0.081565  0  1.024995  0  0  0.10287  0.080321  0  1.026328  0
H  H19  1  0.25294356  0.80630885  0.47779769  1  0  0.070668  0  0.952058  0  0  0.080965  0  1.025609  0  0  0.081645  0  1.024922  0  0  0.102956  0.08039  0  1.026256  0
H  H20  1  0.41177906  0.00752160  0.18334225  1  0  0.086009  0  0.982998  0  0  0.091246  0  1.058092  0  0  0.094777  0  1.055487  0  0  0.099685  0.088994  0  1.059489  0
H  H21  1  0.58822490  0.99249304  0.81666131  1  0  0.086013  0  0.982982  0  0  0.09125  0  1.058067  0  0  0.094785  0  1.055457  0  0  0.099695  0.088998  0  1.059455  0
H  H22  1  0.77569014  0.11397361  0.02376812  1  0  0.11609  0  0.950881  0  0  0.122294  0  1.015805  0  0  0.126778  0  1.012349  0  0  0.107832  0.119026  0  1.018379  0
H  H23  1  0.22431292  0.88603373  0.97622740  1  0  0.116083  0  0.95086  0  0  0.122271  0  1.01581  0  0  0.126758  0  1.012345  0  0  0.107821  0.119002  0  1.018389  0
H  H24  1  0.44273552  0.00584169  0.59034064  1  0  0.134535  0  0.967827  0  0  0.145169  0  1.031188  0  0  0.148392  0  1.029828  0  0  0.106611  0.142901  0  1.032105  0
H  H25  1  0.55724516  0.99414805  0.40965734  1  0  0.134534  0  0.967604  0  0  0.145118  0  1.031044  0  0  0.148344  0  1.029685  0  0  0.106562  0.142855  0  1.031959  0
H  H26  1  0.32022257  0.09756637  0.66969908  1  0  0.142066  0  0.91514  0  0  0.152002  0  0.97273  0  0  0.155119  0  0.970841  0  0  0.111272  0.149447  0  0.974835  0
H  H27  1  0.67975934  0.90242334  0.33030164  1  0  0.142063  0  0.915136  0  0  0.152055  0  0.972618  0  0  0.155176  0  0.970726  0  0  0.111284  0.149504  0  0.974725  0
H  H28  1  0.67718834  0.82788966  0.07098735  1  0  0.140616  0  0.921087  0  0  0.157008  0  0.974671  0  0  0.158615  0  0.975397  0  0  0.11372  0.155578  0  0.974925  0
H  H29  1  0.32280352  0.17210434  0.92902402  1  0  0.140571  0  0.921019  0  0  0.156931  0  0.97466  0  0  0.158537  0  0.975391  0  0  0.113701  0.155501  0  0.974909  0
H  H30  1  0.75204645  0.68922677  0.04702438  1  0  0.139029  0  0.926084  0  0  0.148279  0  0.988102  0  0  0.151345  0  0.985662  0  0  0.108269  0.146283  0  0.989699  0
H  H31  1  0.24794100  0.31076918  0.95298165  1  0  0.139012  0  0.925992  0  0  0.148269  0  0.987995  0  0  0.151338  0  0.985553  0  0  0.10822  0.146269  0  0.989597  0
C  C32  1  0.93951774  0.55764554  0.66386133  1  0  0.129915  0  3.739401  0  0  0.097861  0  3.997947  0  0  0.105031  0  4.01738  0  0  0.03904  0.093274  0  3.984575  0
C  C33  1  0.06048678  0.44236265  0.33612718  1  0  0.129956  0  3.739309  0  0  0.097867  0  3.997892  0  0  0.105035  0  4.017328  0  0  0.039088  0.093278  0  3.984511  0
C  C34  1  0.70715617  0.55621590  0.50488369  1  0  0.142555  0  3.718484  0  0  0.113473  0  3.97237  0  0  0.121208  0  3.992187  0  0  0.044239  0.108442  0  3.958974  0
C  C35  1  0.29283824  0.44378713  0.49511479  1  0  0.14219  0  3.718413  0  0  0.1131  0  3.972296  0  0  0.120831  0  3.992118  0  0  0.044107  0.108072  0  3.958896  0
C  C36  1  0.68961311  0.43122962  0.45044594  1  0  -0.17312  0  3.682221  0  0  -0.190528  0  3.929173  0  0  -0.199341  0  3.95111  0  0  -0.090225  -0.184893  0  3.914677  0
C  C37  1  0.31037445  0.56877545  0.54955260  1  0  -0.172883  0  3.682215  0  0  -0.190285  0  3.929151  0  0  -0.199098  0  3.951088  0  0  -0.090189  -0.184664  0  3.914674  0
C  C38  1  0.80312965  0.36753354  0.50727578  1  0  0.137384  0  3.699154  0  0  0.151058  0  3.940232  0  0  0.155366  0  3.962835  0  0  0.013484  0.148388  0  3.924847  0
C  C39  1  0.19687562  0.63247282  0.49272157  1  0  0.137426  0  3.69939  0  0  0.151182  0  3.940372  0  0  0.155492  0  3.96297  0  0  0.01348  0.148493  0  3.924995  0
C  C40  1  0.93073342  0.43321225  0.61636240  1  0  -0.179953  0  3.715703  0  0  -0.197921  0  3.966686  0  0  -0.207206  0  3.98988  0  0  -0.089265  -0.191821  0  3.950949  0
C  C41  1  0.06927454  0.56679493  0.38362986  1  0  -0.180107  0  3.715434  0  0  -0.198064  0  3.966437  0  0  -0.207354  0  3.989636  0  0  -0.089336  -0.191964  0  3.950709  0
C  C42  1  0.72659284  0.14691349  0.23733427  1  0  0.561787  0  3.831666  0  0  0.507453  0  4.119074  0  0  0.538584  0  4.116558  0  0  0.24986  0.486291  0  4.120387  0
C  C43  1  0.27339151  0.85308895  0.76267044  1  0  0.561786  0  3.831877  0  0  0.507508  0  4.119306  0  0  0.538641  0  4.11678  0  0  0.249813  0.486346  0  4.120622  0
C  C44  1  0.79126662  0.23163182  0.45968265  1  0  0.002568  0  3.656714  0  0  -0.057276  0  3.903751  0  0  -0.052489  0  3.912516  0  0  -0.051678  -0.060398  0  3.897777  0
C  C45  1  0.20874746  0.76837062  0.54031952  1  0  0.002356  0  3.656784  0  0  -0.057543  0  3.903954  0  0  -0.052741  0  3.912708  0  0  -0.051807  -0.060622  0  3.897918  0
C  C46  1  0.60640924  0.07019660  0.11673891  1  0  -0.053408  0  3.769094  0  0  -0.031891  0  4.002311  0  0  -0.036992  0  4.023101  0  0  -0.012445  -0.028568  0  3.988249  0
C  C47  1  0.39360121  0.92981052  0.88326050  1  0  -0.05335  0  3.768731  0  0  -0.032012  0  4.002172  0  0  -0.037112  0  4.022963  0  0  -0.012456  -0.028687  0  3.988108  0
C  C48  1  0.45159809  0.00526252  0.10380378  1  0  -0.07785  0  3.741523  0  0  -0.102677  0  3.998533  0  0  -0.103511  0  4.018542  0  0  -0.087232  -0.102074  0  3.984484  0
C  C49  1  0.54840825  0.99474747  0.89619980  1  0  -0.077908  0  3.741658  0  0  -0.102683  0  3.99875  0  0  -0.103514  0  4.018746  0  0  -0.087295  -0.102091  0  3.984715  0
C  C50  1  0.65445625  0.06377149  0.01213095  1  0  -0.07412  0  3.717042  0  0  -0.096802  0  3.96798  0  0  -0.097505  0  3.98628  0  0  -0.084222  -0.095956  0  3.955153  0
C  C51  1  0.34554930  0.93623578  0.98787005  1  0  -0.074153  0  3.716679  0  0  -0.096745  0  3.967641  0  0  -0.097451  0  3.985939  0  0  -0.084247  -0.095893  0  3.95481  0
C  C52  1  0.75219315  0.77748766  0.90890096  1  0  0.687601  0  3.905661  0  0  0.639454  0  4.204499  0  0  0.672123  0  4.20081  0  0  0.191364  0.617337  0  4.205855  0
C  C53  1  0.24784154  0.22252153  0.09112549  1  0  0.687673  0  3.905297  0  0  0.639627  0  4.204006  0  0  0.672293  0  4.200312  0  0  0.191417  0.61751  0  4.205366  0
C  C54  1  0.31165911  0.11844931  0.49381332  1  0  0.688638  0  3.891433  0  0  0.643805  0  4.186329  0  0  0.676291  0  4.182713  0  0  0.189651  0.621876  0  4.18759  0
C  C55  1  0.68831956  0.88152494  0.50617915  1  0  0.688668  0  3.891507  0  0  0.643893  0  4.186284  0  0  0.676381  0  4.182666  0  0  0.189759  0.62195  0  4.187559  0
C  C56  1  0.40221553  0.09496589  0.61273384  1  0  -0.2901  0  3.593787  0  0  -0.319694  0  3.841666  0  0  -0.324945  0  3.846792  0  0  -0.148344  -0.316104  0  3.83824  0
C  C57  1  0.59776446  0.90501289  0.38726098  1  0  -0.290204  0  3.593726  0  0  -0.319724  0  3.841433  0  0  -0.324992  0  3.846587  0  0  -0.1483  -0.316128  0  3.83801  0
C  C58  1  0.51872885  0.32737184  0.76107903  1  0  0.05011  0  3.848753  0  0  0.045056  0  4.168024  0  0  0.054351  0  4.182598  0  0  0.105312  0.038696  0  4.158414  0
C  C59  1  0.48126500  0.67261655  0.23890194  1  0  0.050423  0  3.848641  0  0  0.045432  0  4.167829  0  0  0.054725  0  4.182411  0  0  0.105537  0.039061  0  4.158239  0
C  C60  1  0.46842724  0.52338224  0.86094179  1  0  0.071228  0  3.796091  0  0  0.067189  0  4.110738  0  0  0.07829  0  4.124557  0  0  0.112808  0.059629  0  4.101257  0
C  C61  1  0.53157064  0.47661152  0.13904311  1  0  0.071151  0  3.795832  0  0  0.067213  0  4.110302  0  0  0.078313  0  4.124123  0  0  0.11289  0.059657  0  4.100815  0
C  C62  1  0.67527411  0.74374335  0.99926234  1  0  -0.314799  0  3.62238  0  0  -0.342809  0  3.872172  0  0  -0.3475  0  3.878284  0  0  -0.150535  -0.339856  0  3.868273  0
C  C63  1  0.32473437  0.25626111  0.00074598  1  0  -0.314623  0  3.621969  0  0  -0.342689  0  3.871846  0  0  -0.347383  0  3.877965  0  0  -0.150436  -0.339733  0  3.86794  0
S  S64  1  0.59809784  0.19818757  0.70124810  1  0  0.045923  0  2.433818  0  0  0.045995  0  2.765967  0  0  0.04321  0  2.762517  0  0  0.039106  0.047774  0  2.768534  0
S  S65  1  0.40189448  0.80179540  0.29874025  1  0  0.04585  0  2.43401  0  0  0.045844  0  2.766133  0  0  0.043065  0  2.762693  0  0  0.039041  0.047631  0  2.768709  0
S  S66  1  0.64672024  0.46896000  0.83387260  1  0  0.095563  0  2.443777  0  0  0.098172  0  2.746102  0  0  0.100664  0  2.745202  0  0  0.10098  0.095903  0  2.747288  0
S  S67  1  0.35327348  0.53102380  0.16609787  1  0  0.095409  0  2.443877  0  0  0.097987  0  2.746118  0  0  0.100475  0  2.745225  0  0  0.100857  0.095726  0  2.747307  0
S  S68  1  0.45795271  0.67105442  0.93876811  1  0  0.102178  0  2.498296  0  0  0.092509  0  2.846827  0  0  0.086995  0  2.849381  0  0  0.05496  0.096303  0  2.845281  0
S  S69  1  0.54205121  0.32893457  0.06121248  1  0  0.102172  0  2.49829  0  0  0.092526  0  2.846737  0  0  0.087015  0  2.849293  0  0  0.054932  0.096316  0  2.845187  0
N  N70  1  0.82933496  0.61896527  0.60970663  1  0  -0.355946  0  3.262661  0  0  -0.283408  0  3.529974  0  0  -0.304238  0  3.549283  0  0  -0.333715  -0.269052  0  3.516403  0
N  N71  1  0.17066389  0.38104036  0.39028592  1  0  -0.355744  0  3.262559  0  0  -0.283213  0  3.529933  0  0  -0.304029  0  3.549216  0  0  -0.333609  -0.268855  0  3.51636  0
N  N72  1  0.67600815  0.17184955  0.33706537  1  0  -0.403631  0  3.32626  0  0  -0.343314  0  3.573099  0  0  -0.364432  0  3.581301  0  0  -0.412817  -0.328972  0  3.567445  0
N  N73  1  0.32399963  0.82814394  0.66293644  1  0  -0.403808  0  3.326159  0  0  -0.343444  0  3.572916  0  0  -0.364573  0  3.581116  0  0  -0.41283  -0.329106  0  3.567246  0
N  N74  1  0.36087270  0.32789986  0.75684100  1  0  -0.208501  0  3.060343  0  0  -0.189368  0  3.352518  0  0  -0.196955  0  3.366673  0  0  -0.21957  -0.184263  0  3.343088  0
N  N75  1  0.63911037  0.67208978  0.24314404  1  0  -0.208595  0  3.060378  0  0  -0.189489  0  3.352566  0  0  -0.19708  0  3.36672  0  0  -0.219618  -0.184382  0  3.343147  0
N  N76  1  0.33229473  0.43968300  0.81411905  1  0  -0.230461  0  3.044553  0  0  -0.212787  0  3.340396  0  0  -0.221894  0  3.353383  0  0  -0.225765  -0.206222  0  3.331154  0
N  N77  1  0.66771519  0.56030949  0.18587036  1  0  -0.230421  0  3.044114  0  0  -0.212785  0  3.339967  0  0  -0.221887  0  3.352948  0  0  -0.22588  -0.206222  0  3.330724  0
O  O78  1  0.15600593  0.12014888  0.46788109  1  0  -0.607497  0  1.914252  0  0  -0.552286  0  2.138559  0  0  -0.579289  0  2.129683  0  0  -0.320428  -0.533113  0  2.143688  0
O  O79  1  0.84397363  0.87985829  0.53213402  1  0  -0.607529  0  1.914365  0  0  -0.55238  0  2.138692  0  0  -0.579373  0  2.129795  0  0  -0.320466  -0.533208  0  2.143842  0
O  O80  1  0.07512386  0.96052514  0.18202954  1  0  -0.838553  0  1.85946  0  0  -0.777563  0  2.046897  0  0  -0.798346  0  2.013127  0  0  -0.58879  -0.762974  0  2.070789  0
O  O81  1  0.92486847  0.03949628  0.81798698  1  0  -0.838681  0  1.859201  0  0  -0.77772  0  2.046635  0  0  -0.798501  0  2.012872  0  0  -0.588767  -0.763128  0  2.070523  0
O  O82  1  0.39736335  0.13223093  0.42368300  1  0  -0.689694  0  1.976062  0  0  -0.625744  0  2.21654  0  0  -0.654226  0  2.207571  0  0  -0.34377  -0.605394  0  2.221835  0
O  O83  1  0.60260457  0.86771894  0.57629980  1  0  -0.689567  0  1.975778  0  0  -0.625702  0  2.216286  0  0  -0.654185  0  2.207318  0  0  -0.343798  -0.605341  0  2.221578  0
O  O84  1  0.87250047  0.18650237  0.24321214  1  0  -0.610261  0  2.118499  0  0  -0.547892  0  2.388687  0  0  -0.573872  0  2.377088  0  0  -0.311096  -0.529849  0  2.396151  0
O  O85  1  0.12751316  0.81351565  0.75679842  1  0  -0.610058  0  2.119156  0  0  -0.547687  0  2.38929  0  0  -0.573663  0  2.377694  0  0  -0.310944  -0.529654  0  2.396756  0
O  O86  1  0.66298014  0.75152858  0.79732807  1  0  -0.652417  0  2.04275  0  0  -0.594597  0  2.301962  0  0  -0.624557  0  2.295863  0  0  -0.324573  -0.573334  0  2.305297  0
O  O87  1  0.33707963  0.24845605  0.20268397  1  0  -0.65242  0  2.042975  0  0  -0.594653  0  2.302134  0  0  -0.624619  0  2.296061  0  0  -0.324588  -0.573394  0  2.305467  0
O  O88  1  0.90404939  0.83117490  0.95094201  1  0  -0.645178  0  1.939477  0  0  -0.580291  0  2.157542  0  0  -0.608905  0  2.148396  0  0  -0.321615  -0.559849  0  2.16294  0
O  O89  1  0.09597100  0.16884479  0.04909039  1  0  -0.645346  0  1.939236  0  0  -0.58049  0  2.157253  0  0  -0.609103  0  2.148102  0  0  -0.321642  -0.56005  0  2.162659  0
