# generated using pymatgen
data_NiPH7C8N3ClO3
_symmetry_space_group_name_H-M   'P 1'
_cell_length_a   7.44982054
_cell_length_b   7.60122674
_cell_length_c   10.74590311
_cell_angle_alpha   91.49251353
_cell_angle_beta   110.74582082
_cell_angle_gamma   94.43937061
_symmetry_Int_Tables_number   1
_chemical_formula_structural   NiPH7C8N3ClO3
_chemical_formula_sum   'Ni2 P2 H14 C16 N6 Cl2 O6'
_cell_volume   566.42012957
_cell_formula_units_Z   2
loop_
 _symmetry_equiv_pos_site_id
 _symmetry_equiv_pos_as_xyz
  1  'x, y, z'
loop_
 _atom_site_type_symbol
 _atom_site_label
 _atom_site_symmetry_multiplicity
 _atom_site_fract_x
 _atom_site_fract_y
 _atom_site_fract_z
 _atom_site_occupancy
 _atom_site_hle17_ddec_charge
 _atom_site_hle17_ddec_spin_density
 _atom_site_hle17_ddec_sum_bond_order
 _atom_site_hle17_magmom
 _atom_site_hse06_10hf_ddec_charge
 _atom_site_hse06_10hf_ddec_spin_density
 _atom_site_hse06_10hf_ddec_sum_bond_order
 _atom_site_hse06_10hf_magmom
 _atom_site_hse06_ddec_charge
 _atom_site_hse06_ddec_spin_density
 _atom_site_hse06_ddec_sum_bond_order
 _atom_site_hse06_magmom
 _atom_site_pbe_cm5_charge
 _atom_site_pbe_ddec_charge
 _atom_site_pbe_ddec_spin_density
 _atom_site_pbe_ddec_sum_bond_order
 _atom_site_pbe_magmom
Ni  Ni0  1  0.00000920  0.50002829  0.50000609  1  0.808221  1.750156  2.077042  1.477  0.823387  1.80168  2.456583  1.602  0.919413  1.876401  2.37612  1.698  0.590925  0.752725  1.728645  2.515019  1.515
Ni  Ni1  1  0.50000211  0.49998646  0.49999630  1  0.831137  -1.757871  2.134493  -1.488  0.853956  -1.804686  2.515631  -1.609  0.94696  -1.877494  2.432137  -1.701  0.607723  0.786566  -1.731869  2.574687  -1.522
P  P2  1  0.81946918  0.84472284  0.58486779  1  1.466626  -0.002496  4.805883  -0.003  1.314084  -0.002052  5.313402  -0.003  1.369698  -0.001589  5.272728  -0.002  0.36107  1.274331  -0.002509  5.340532  -0.003
P  P3  1  0.18051692  0.15528850  0.41513076  1  1.466807  -0.002498  4.805964  -0.003  1.314265  -0.002053  5.313529  -0.003  1.369889  -0.001589  5.272841  -0.002  0.361138  1.274515  -0.002512  5.340662  -0.003
H  H4  1  0.90582876  0.11304358  0.52429897  1  0.445948  -0.000178  0.857561  -0.001  0.410812  -0.000128  0.92735  0.0  0.423231  -0.000129  0.909589  0.0  0.305683  0.402007  -0.000121  0.939884  -0.001
H  H5  1  0.09414477  0.88695412  0.47569845  1  0.445869  -0.000178  0.857649  -0.001  0.410755  -0.000128  0.927421  0.0  0.423185  -0.000129  0.909642  0.0  0.305637  0.401946  -0.000121  0.939959  -0.001
H  H6  1  0.20589111  0.81053116  0.78250462  1  0.105543  -0.000483  0.951841  0.0  0.116551  -0.000467  1.01012  0.0  0.120626  -0.000352  1.006983  0.0  0.101023  0.113343  -0.00058  1.01274  0.0
H  H7  1  0.37394961  0.18520792  0.22341509  1  0.109195  0.00048  0.944919  0.0  0.121477  0.000458  1.000919  0.0  0.125442  0.000345  0.997818  0.0  0.104567  0.11837  0.000561  1.003453  0.0
H  H8  1  0.79411258  0.18963451  0.21752122  1  0.105802  -0.000484  0.951363  0.0  0.116631  -0.000467  1.009864  0.0  0.120708  -0.000353  1.006727  0.0  0.101126  0.113422  -0.000581  1.012486  0.0
H  H9  1  0.62602311  0.81466287  0.77656561  1  0.108974  0.000481  0.94523  0.0  0.121315  0.000458  1.001189  0.0  0.125275  0.000346  0.998084  0.0  0.10444  0.118215  0.000562  1.003719  0.0
H  H10  1  0.31865867  0.74537404  0.02013188  1  0.09559  -7e-06  0.953211  0.0  0.110993  0.0  1.006705  0.0  0.113895  -1e-06  1.005345  0.0  0.104271  0.108784  1.5e-05  1.008042  0.0
H  H11  1  0.26354220  0.24600543  0.98455090  1  0.095172  1.1e-05  0.952381  0.0  0.11173  4e-06  1.004724  0.0  0.114481  3e-06  1.0036  0.0  0.104396  0.109653  2e-06  1.005847  0.0
H  H12  1  0.68136626  0.25478999  0.97989230  1  0.095379  -8e-06  0.953515  0.0  0.110861  0.0  1.006929  0.0  0.113753  -1e-06  1.005585  0.0  0.104215  0.108663  1.5e-05  1.00825  0.0
H  H13  1  0.73642843  0.75382511  0.01542083  1  0.094931  1.1e-05  0.952656  0.0  0.111505  4e-06  1.005008  0.0  0.114303  3e-06  1.003799  0.0  0.104344  0.109386  2e-06  1.006192  0.0
H  H14  1  0.82793920  0.64373924  0.20724491  1  0.107897  -0.000703  0.94407  0.0  0.116065  -0.000818  1.007618  0.0  0.120068  -0.000596  1.001572  0.0  0.137803  0.112588  -0.001023  1.012741  0.0
H  H15  1  0.59223499  0.32392052  0.77813674  1  0.111003  0.000475  0.934689  0.0  0.120366  0.000631  0.994996  0.0  0.124185  0.000453  0.989135  0.0  0.142073  0.117009  0.000786  1.000311  0.0
H  H16  1  0.17211106  0.35639501  0.79280736  1  0.107665  -0.000704  0.944127  0.0  0.115939  -0.000818  1.007627  0.0  0.119943  -0.000597  1.001576  0.0  0.137799  0.112463  -0.001024  1.012752  0.0
H  H17  1  0.40774852  0.67591918  0.22180321  1  0.111016  0.000476  0.934681  0.0  0.120383  0.000632  0.99494  0.0  0.124202  0.000453  0.989082  0.0  0.142058  0.117018  0.000787  1.000263  0.0
C  C18  1  0.90886357  0.82102383  0.76406510  1  -0.233267  0.000155  3.73546  0.0  -0.198755  0.000119  3.984327  0.0  -0.20918  8.6e-05  4.006226  0.0  -0.026512  -0.192199  -8e-06  3.970262  0.0
C  C19  1  0.09113192  0.17899487  0.23594271  1  -0.233075  0.000163  3.735198  0.0  -0.19871  0.00012  3.98426  0.0  -0.209126  8.6e-05  4.006149  0.0  -0.02646  -0.192171  -8e-06  3.970208  0.0
C  C20  1  0.10424518  0.80380467  0.83483934  1  -0.028632  -0.00068  3.764288  0.0  -0.052437  -0.00064  4.013152  0.0  -0.050889  -0.000478  4.033135  0.0  -0.083651  -0.053344  -0.00086  3.999975  -0.001
C  C21  1  0.22108652  0.19444094  0.16831304  1  -0.018801  0.000505  3.744052  0.0  -0.04375  0.000597  3.993617  0.0  -0.041724  0.000448  4.01314  0.0  -0.078234  -0.044933  0.000701  3.980798  0.0
C  C22  1  0.89575797  0.19628776  0.16517647  1  -0.02888  -0.000689  3.763401  0.0  -0.05252  -0.000641  4.012395  0.0  -0.050972  -0.000478  4.032373  0.0  -0.083751  -0.05342  -0.000861  3.999223  -0.001
C  C23  1  0.77889858  0.80547488  0.83167285  1  -0.018302  0.000514  3.74418  0.0  -0.043328  0.000598  3.993638  0.0  -0.041293  0.000448  4.013171  0.0  -0.07791  -0.044523  0.000702  3.980818  0.0
C  C24  1  0.16739487  0.76473048  0.96856205  1  -0.162606  0.000245  3.754647  0.0  -0.183901  0.000123  4.011971  0.0  -0.189912  6.8e-05  4.033717  0.0  -0.097603  -0.179818  0.000196  3.997032  0.0
C  C25  1  0.15912798  0.23193234  0.03424483  1  -0.15693  -4e-05  3.744464  0.0  -0.179623  -4e-05  4.003486  0.0  -0.185459  -5e-06  4.025359  0.0  -0.09519  -0.175744  -8.5e-05  3.988586  0.0
C  C26  1  0.83261484  0.23533885  0.03144899  1  -0.162322  0.000253  3.754491  0.0  -0.183694  0.000124  4.011747  0.0  -0.189695  6.8e-05  4.03349  0.0  -0.097534  -0.179622  0.000197  3.996799  0.0
C  C27  1  0.84085263  0.76798050  0.96574259  1  -0.156778  -4.7e-05  3.744378  0.0  -0.179502  -4e-05  4.003528  0.0  -0.185362  -5e-06  4.025351  0.0  -0.095319  -0.175592  -8.6e-05  3.988663  0.0
C  C28  1  0.03493833  0.74391488  0.03366704  1  0.188337  -0.000155  3.775631  0.0  0.176703  -7.8e-05  4.031734  0.0  0.183651  -5.3e-05  4.055207  0.0  0.093981  0.17236  -0.000141  4.015349  0.0
C  C29  1  0.96507018  0.25609042  0.96633448  1  0.188124  -0.000162  3.776056  0.0  0.176586  -7.8e-05  4.031994  0.0  0.183533  -5.3e-05  4.055458  0.0  0.093934  0.172244  -0.000141  4.015617  0.0
C  C30  1  0.98186733  0.63702375  0.23748629  1  0.186733  -0.011333  3.592599  -0.013  0.124143  -0.004098  3.864902  -0.004  0.141309  -0.003986  3.872913  -0.005  0.170229  0.112434  -0.004625  3.860294  -0.005
C  C31  1  0.72154294  0.34597132  0.75477881  1  0.194427  0.012561  3.571427  0.014  0.132108  0.004615  3.840878  0.005  0.149142  0.004438  3.848283  0.005  0.175063  0.119512  0.005149  3.837861  0.005
C  C32  1  0.01816283  0.36301342  0.76253565  1  0.186852  -0.011332  3.59236  -0.013  0.124052  -0.004097  3.864835  -0.004  0.141217  -0.003985  3.872842  -0.005  0.170145  0.112345  -0.004623  3.86022  -0.005
C  C33  1  0.27845744  0.65394225  0.24519651  1  0.194311  0.01256  3.571912  0.014  0.132109  0.004616  3.841184  0.005  0.149145  0.004438  3.848598  0.005  0.175077  0.119505  0.005149  3.83816  0.005
N  N34  1  0.08793891  0.57459361  0.35048951  1  -0.197747  0.045071  3.259247  0.069  -0.164379  0.029708  3.561113  0.046  -0.188439  0.025395  3.582207  0.04  -0.232838  -0.149058  0.032865  3.548809  0.05
N  N35  1  0.72586703  0.41514062  0.64508929  1  -0.176123  -0.045057  3.248409  -0.069  -0.145156  -0.030049  3.549988  -0.047  -0.167119  -0.025883  3.569167  -0.041  -0.22669  -0.130775  -0.033142  3.538988  -0.05
N  N36  1  0.91208191  0.42543591  0.64952596  1  -0.197783  0.045069  3.2589  0.069  -0.164411  0.029708  3.560876  0.046  -0.188469  0.025395  3.581965  0.04  -0.232861  -0.149077  0.032865  3.548578  0.05
N  N37  1  0.27414347  0.58482206  0.35490218  1  -0.176273  -0.045059  3.248784  -0.069  -0.145359  -0.030051  3.550326  -0.047  -0.167339  -0.025884  3.569526  -0.041  -0.226866  -0.130934  -0.033144  3.539289  -0.05
N  N38  1  0.09596699  0.68774675  0.16666869  1  -0.111047  -0.000182  3.549677  0.0  -0.02418  -0.000129  3.77013  0.0  -0.040607  -9.6e-05  3.790244  0.0  -0.207248  -0.013318  -0.000114  3.75682  0.0
N  N39  1  0.90404916  0.31223170  0.83332617  1  -0.110995  -0.000182  3.549308  0.0  -0.024034  -0.000129  3.769772  0.0  -0.040456  -9.6e-05  3.789886  0.0  -0.207333  -0.013176  -0.000114  3.756457  0.0
Cl  Cl40  1  0.66896947  0.44927192  0.34517799  1  -0.478728  0.004949  1.065609  0.007  -0.51339  0.002511  1.35857  0.004  -0.556511  0.002133  1.332982  0.003  -0.242666  -0.479342  0.002177  1.375851  0.003
Cl  Cl41  1  0.33104523  0.55073874  0.65482536  1  -0.478795  0.004971  1.065659  0.007  -0.513482  0.002524  1.358612  0.004  -0.556612  0.002141  1.333042  0.003  -0.242716  -0.479436  0.002191  1.375895  0.003
O  O42  1  0.96695966  0.77216276  0.53055533  1  -0.844394  0.040506  2.128066  0.063  -0.7817  0.028456  2.397789  0.044  -0.820438  0.021942  2.379408  0.035  -0.362652  -0.752149  0.034308  2.409451  0.053
O  O43  1  0.38396972  0.24174296  0.47116970  1  -0.792814  -0.041162  2.068344  -0.064  -0.75053  -0.028059  2.354178  -0.043  -0.789183  -0.022007  2.335328  -0.034  -0.364883  -0.721296  -0.033313  2.36585  -0.05
O  O44  1  0.03303788  0.22786636  0.46944251  1  -0.84456  0.040504  2.128215  0.063  -0.781765  0.028454  2.397828  0.044  -0.820485  0.021938  2.379441  0.035  -0.362673  -0.752212  0.034306  2.40949  0.053
O  O45  1  0.61602545  0.75825448  0.52883839  1  -0.79279  -0.041142  2.068369  -0.064  -0.750488  -0.028049  2.354195  -0.043  -0.789135  -0.022001  2.335354  -0.034  -0.364866  -0.721256  -0.033303  2.365862  -0.05
O  O46  1  0.81959540  0.04954601  0.56923145  1  -0.724921  0.001358  2.035786  0.002  -0.655789  0.000828  2.258394  0.001  -0.679359  0.000406  2.233144  0.001  -0.381093  -0.637963  0.001364  2.275463  0.002
O  O47  1  0.18036150  0.95046182  0.43075158  1  -0.724996  0.001355  2.03565  0.002  -0.655893  0.000825  2.258282  0.001  -0.679491  0.000405  2.233036  0.001  -0.381171  -0.638045  0.001361  2.27534  0.002
