# generated using pymatgen
data_CoH18C22(NO)4
_symmetry_space_group_name_H-M   'P 1'
_cell_length_a   10.63167272
_cell_length_b   10.74419858
_cell_length_c   11.62134399
_cell_angle_alpha   110.47539251
_cell_angle_beta   101.20029173
_cell_angle_gamma   110.56037526
_symmetry_Int_Tables_number   1
_chemical_formula_structural   CoH18C22(NO)4
_chemical_formula_sum   'Co2 H36 C44 N8 O8'
_cell_volume   1085.66279242
_cell_formula_units_Z   2
loop_
 _symmetry_equiv_pos_site_id
 _symmetry_equiv_pos_as_xyz
  1  'x, y, z'
loop_
 _atom_site_type_symbol
 _atom_site_label
 _atom_site_symmetry_multiplicity
 _atom_site_fract_x
 _atom_site_fract_y
 _atom_site_fract_z
 _atom_site_occupancy
 _atom_site_hle17_ddec_charge
 _atom_site_hle17_ddec_spin_density
 _atom_site_hle17_ddec_sum_bond_order
 _atom_site_hle17_magmom
 _atom_site_hse06_10hf_ddec_charge
 _atom_site_hse06_10hf_ddec_spin_density
 _atom_site_hse06_10hf_ddec_sum_bond_order
 _atom_site_hse06_10hf_magmom
 _atom_site_hse06_ddec_charge
 _atom_site_hse06_ddec_spin_density
 _atom_site_hse06_ddec_sum_bond_order
 _atom_site_hse06_magmom
 _atom_site_pbe_cm5_charge
 _atom_site_pbe_ddec_charge
 _atom_site_pbe_ddec_spin_density
 _atom_site_pbe_ddec_sum_bond_order
 _atom_site_pbe_magmom
Co  Co0  1  0.72478429  0.25924289  0.83476335  1  0.939934  2.861569  2.026175  2.53  0.877607  2.832692  2.477788  2.587  0.971465  2.88211  2.390188  2.677  0.673861  0.804257  2.784901  2.543464  2.503
Co  Co1  1  0.27521443  0.74075537  0.16523259  1  0.939967  -2.861566  2.02601  -2.53  0.877661  -2.832699  2.47767  -2.587  0.97153  -2.882118  2.390057  -2.677  0.673877  0.804303  -2.784911  2.543357  -2.503
H  H2  1  0.59696646  0.56595613  0.73726061  1  0.090546  -5e-05  0.944612  0.0  0.102577  -4e-06  1.003042  0.0  0.105695  -1.2e-05  1.001235  0.0  0.102114  0.100273  1.3e-05  1.004361  0.0
H  H3  1  0.40303170  0.43404324  0.26274419  1  0.090471  4.7e-05  0.944637  0.0  0.10257  4e-06  1.002995  0.0  0.105692  1.2e-05  1.001187  0.0  0.102112  0.100268  -1.3e-05  1.004317  0.0
H  H4  1  0.47997228  0.30385186  0.57193969  1  0.101541  -7.6e-05  0.973415  0.0  0.110914  -0.000101  1.036371  0.0  0.112836  -9.7e-05  1.037533  0.0  0.104304  0.109443  -9.8e-05  1.035762  0.0
H  H5  1  0.52002348  0.69614416  0.42806100  1  0.101448  7.9e-05  0.973406  0.0  0.110836  0.000101  1.03635  0.0  0.112758  9.7e-05  1.037513  0.0  0.104254  0.109366  9.8e-05  1.035739  0.0
H  H6  1  0.55392175  0.92705695  0.59669442  1  0.128833  0.000178  0.966334  0.001  0.133982  0.000189  1.033769  0.001  0.137517  0.000146  1.031209  0.0  0.124162  0.131284  0.000236  1.035764  0.001
H  H7  1  0.44607503  0.07294353  0.40330531  1  0.128865  -0.000179  0.966306  -0.001  0.134018  -0.000189  1.033735  -0.001  0.137553  -0.000146  1.031174  0.0  0.124178  0.131318  -0.000236  1.035732  -0.001
H  H8  1  0.85644875  0.09539541  0.97560347  1  0.100054  -1.7e-05  0.939233  0.0  0.107906  -1e-05  1.002147  0.0  0.110808  -3.4e-05  0.998727  0.0  0.139966  0.105507  1.9e-05  1.004895  0.0
H  H9  1  0.14354708  0.90460507  0.02439607  1  0.100144  2e-05  0.939079  0.0  0.107977  1e-05  1.002016  0.0  0.110884  3.3e-05  0.998596  0.0  0.13998  0.105575  -1.9e-05  1.004769  0.0
H  H10  1  0.05609442  0.19198998  0.72471669  1  0.099713  -5.2e-05  0.960253  0.0  0.110286  -9e-06  1.020274  0.0  0.113712  -9e-06  1.018334  0.0  0.103998  0.107824  -4e-06  1.021662  0.0
H  H11  1  0.94390672  0.80801164  0.27528163  1  0.099692  5.2e-05  0.960302  0.0  0.110246  9e-06  1.020336  0.0  0.113669  9e-06  1.018399  0.0  0.104004  0.107786  4e-06  1.021725  0.0
H  H12  1  0.80856266  0.05453418  0.56381047  1  0.099964  -0.000124  0.985415  0.0  0.110275  -0.000136  1.04742  0.0  0.112752  -0.000131  1.047295  0.0  0.102676  0.108287  -0.000132  1.047841  0.0
H  H13  1  0.19143799  0.94546632  0.43618741  1  0.099947  0.000123  0.985388  0.0  0.110296  0.000136  1.047349  0.0  0.112773  0.000131  1.047223  0.0  0.102652  0.108309  0.000132  1.047773  0.0
H  H14  1  0.40846912  0.03417415  0.60456563  1  0.124251  0.000109  0.974673  0.001  0.129077  0.000105  1.042325  0.001  0.132803  8.8e-05  1.039463  0.0  0.119225  0.126404  0.000118  1.044131  0.001
H  H15  1  0.59153248  0.96582635  0.39543328  1  0.124209  -0.000111  0.974663  -0.001  0.129018  -0.000105  1.042341  -0.001  0.132744  -8.8e-05  1.039476  0.0  0.119196  0.126345  -0.000117  1.044148  -0.001
H  H16  1  0.55406985  0.42839473  0.95428434  1  0.086327  -4.4e-05  0.991508  0.0  0.092498  0.000109  1.060659  0.0  0.095416  7.2e-05  1.05707  0.0  0.126883  0.089984  0.000149  1.064132  0.0
H  H17  1  0.44593219  0.57160466  0.04571773  1  0.086258  4.1e-05  0.991588  0.0  0.092443  -0.000109  1.060723  0.0  0.095359  -7.2e-05  1.057136  0.0  0.126871  0.089929  -0.000149  1.064196  0.0
H  H18  1  0.77142142  0.57047217  0.52231131  1  0.080935  1.8e-05  0.98325  0.0  0.091019  1.5e-05  1.048629  0.0  0.09271  1e-05  1.049914  0.0  0.090476  0.089863  3.1e-05  1.047755  0.0
H  H19  1  0.22858641  0.42953392  0.47769571  1  0.080907  -1.5e-05  0.983206  0.0  0.090989  -1.5e-05  1.048588  0.0  0.09268  -1e-05  1.049873  0.0  0.090477  0.089829  -3.1e-05  1.047722  0.0
H  H20  1  0.91250445  0.84575999  0.62941020  1  0.078615  -3e-06  0.994285  0.0  0.087548  1e-06  1.061058  0.0  0.088922  -1e-06  1.062758  0.0  0.088275  0.087037  -1e-06  1.059184  0.0
H  H21  1  0.08749666  0.15424162  0.37059156  1  0.078643  8e-06  0.994241  0.0  0.087578  -1e-06  1.061021  0.0  0.088951  0.0  1.062722  0.0  0.088296  0.087067  1e-06  1.059146  0.0
H  H22  1  0.16495360  0.96778374  0.78924150  1  0.079711  9e-06  0.96918  0.0  0.088816  -7e-06  1.031628  0.0  0.091296  -7e-06  1.031393  0.0  0.088943  0.087208  -9e-06  1.031626  0.0
H  H23  1  0.83504896  0.03221900  0.21076002  1  0.079676  -1.2e-05  0.969088  0.0  0.088765  7e-06  1.031561  0.0  0.091244  7e-06  1.031328  0.0  0.088921  0.087158  9e-06  1.031559  0.0
H  H24  1  0.26976620  0.81091296  0.83873704  1  0.088188  5.6e-05  0.943024  0.0  0.100942  8e-05  0.998023  0.0  0.103683  8.2e-05  0.996968  0.0  0.097215  0.099109  7.4e-05  0.998661  0.0
H  H25  1  0.73023251  0.18908753  0.16126219  1  0.088188  -5.1e-05  0.943057  0.0  0.100941  -8e-05  0.99805  0.0  0.103681  -8.1e-05  0.996996  0.0  0.097205  0.099088  -7.4e-05  0.998712  0.0
H  H26  1  0.90183417  0.30637837  0.51683735  1  0.111975  -0.000143  0.95484  0.0  0.125939  4e-06  1.01933  0.0  0.126763  -6e-06  1.021405  0.0  0.102868  0.125607  1.4e-05  1.017542  0.0
H  H27  1  0.09816741  0.69362436  0.48316571  1  0.111964  0.000147  0.954854  0.0  0.125937  -4e-06  1.019348  0.0  0.126765  6e-06  1.021416  0.0  0.102878  0.125604  -1.4e-05  1.017564  0.0
H  H28  1  0.75340539  0.33634346  0.46732872  1  0.109152  0.000344  0.929687  0.001  0.123298  0.000393  0.990088  0.001  0.124698  0.000255  0.99042  0.0  0.100701  0.12246  0.000549  0.989782  0.001
H  H29  1  0.24659423  0.66365704  0.53267584  1  0.109097  -0.000344  0.929721  -0.001  0.123258  -0.000393  0.990135  -0.001  0.124658  -0.000255  0.990469  0.0  0.100684  0.122421  -0.000549  0.989822  -0.001
H  H30  1  0.25443397  0.54654593  0.73358022  1  0.102329  2e-05  0.915614  0.0  0.118069  -0.000131  0.973994  0.0  0.119552  -8.2e-05  0.973594  0.0  0.100972  0.1173  -0.00018  0.974009  0.0
H  H31  1  0.74556764  0.45345457  0.26641783  1  0.102358  -2.2e-05  0.915595  0.0  0.118086  0.000131  0.973955  0.0  0.119569  8.2e-05  0.973554  0.0  0.100972  0.117319  0.000181  0.973969  0.0
H  H32  1  0.08648705  0.39412055  0.68151007  1  0.103824  -0.000119  0.967199  0.0  0.116068  -0.0002  1.03441  0.0  0.11759  -0.000136  1.034802  0.0  0.099271  0.115373  -0.000289  1.033479  0.0
H  H33  1  0.91351025  0.60587659  0.31848266  1  0.103923  0.000121  0.967165  0.0  0.116109  0.000201  1.034407  0.0  0.117627  0.000136  1.034794  0.0  0.099289  0.115416  0.000289  1.033476  0.0
H  H34  1  0.77875646  0.81425310  0.85172785  1  0.311297  0.000358  0.849052  0.001  0.305995  0.000322  0.888069  0.0  0.312088  0.00024  0.884478  0.0  0.346229  0.301596  0.000433  0.89087  0.001
H  H35  1  0.22123651  0.18574960  0.14827101  1  0.311326  -0.000358  0.848865  -0.001  0.306101  -0.000322  0.887802  0.0  0.312194  -0.000241  0.884206  0.0  0.34625  0.301698  -0.000433  0.890606  -0.001
H  H36  1  0.28389102  0.34365386  0.83726277  1  0.308965  0.000243  0.952398  0.001  0.28757  0.000195  1.018112  0.0  0.297376  0.000157  1.010208  0.0  0.29857  0.280743  0.000226  1.023467  0.0
H  H37  1  0.71611297  0.65634553  0.16273709  1  0.308959  -0.000244  0.952357  -0.001  0.287577  -0.000195  1.018076  0.0  0.297386  -0.000157  1.010165  0.0  0.298572  0.28075  -0.000226  1.023433  0.0
C  C38  1  0.55529263  0.53860622  0.63341786  1  -0.10857  0.001382  3.753318  0.002  -0.131486  0.000378  4.008492  0.001  -0.133255  0.000298  4.027426  0.0  -0.090523  -0.129841  0.000419  3.995454  0.001
C  C39  1  0.44471663  0.46139877  0.36658908  1  -0.108436  -0.001367  3.753502  -0.002  -0.1314  -0.000378  4.008687  -0.001  -0.133177  -0.000298  4.02763  0.0  -0.090497  -0.129762  -0.000419  3.995654  -0.001
C  C40  1  0.56743343  0.65168384  0.59508563  1  0.022478  -0.001143  3.840519  -0.002  0.036605  -0.000123  4.078318  0.0  0.036863  -0.000122  4.101086  0.0  -0.009123  0.036235  -8.7e-05  4.063371  0.0
C  C41  1  0.43256427  0.34831664  0.40491771  1  0.022431  0.001146  3.840514  0.002  0.036505  0.000122  4.078373  0.0  0.036765  0.000121  4.101143  0.0  -0.009125  0.036134  8.7e-05  4.063429  0.0
C  C42  1  0.48927309  0.38971149  0.54011585  1  -0.086074  -0.001251  3.707864  -0.002  -0.102895  -0.000225  3.951785  0.0  -0.1048  -0.00021  3.972536  0.0  -0.082993  -0.102264  -0.000302  3.938405  0.0
C  C43  1  0.51073322  0.61028457  0.45988855  1  -0.085993  0.001233  3.708039  0.002  -0.102838  0.000225  3.951942  0.0  -0.104743  0.00021  3.972697  0.0  -0.082928  -0.102208  0.000302  3.938563  0.0
C  C44  1  0.63720630  0.80880676  0.68956726  1  0.12293  0.004135  3.774145  0.006  0.114332  0.001638  4.026653  0.002  0.116844  0.001168  4.048516  0.002  0.086593  0.112305  0.002114  4.013066  0.003
C  C45  1  0.36278567  0.19119370  0.31043242  1  0.122904  -0.004136  3.774445  -0.006  0.114375  -0.001638  4.026909  -0.002  0.116884  -0.001167  4.048772  -0.002  0.086578  0.112346  -0.002114  4.013318  -0.003
C  C46  1  0.62378676  0.92807374  0.67887674  1  -0.034246  -0.003756  3.658767  -0.005  -0.071515  1.6e-05  3.927414  0.0  -0.069376  -0.000193  3.947052  0.0  0.010068  -0.073719  0.000239  3.915026  0.0
C  C47  1  0.37620907  0.07192897  0.32112439  1  -0.034374  0.003759  3.658839  0.005  -0.071657  -1.7e-05  3.927469  0.0  -0.069516  0.000196  3.947104  0.0  0.009985  -0.073858  -0.00024  3.915083  0.0
C  C48  1  0.78044670  0.01943783  0.87568316  1  0.224929  -0.003129  3.650612  -0.004  0.17051  0.002953  3.922409  0.004  0.186776  0.002552  3.933911  0.003  0.149386  0.15922  0.003051  3.91483  0.004
C  C49  1  0.21954913  0.98056488  0.12431796  1  0.22491  0.003125  3.650346  0.004  0.170524  -0.002952  3.922166  -0.004  0.186782  -0.002549  3.933673  -0.003  0.149437  0.159236  -0.00305  3.91458  -0.004
C  C50  1  0.03278475  0.10911428  0.62592338  1  -0.108477  0.001567  3.735071  0.002  -0.127656  0.000511  3.983736  0.001  -0.12959  0.000395  4.002083  0.001  -0.090959  -0.12632  0.000493  3.970911  0.001
C  C51  1  0.96721446  0.89088510  0.37407300  1  -0.108392  -0.001563  3.735038  -0.002  -0.12757  -0.000511  3.983689  -0.001  -0.129504  -0.000394  4.002033  -0.001  -0.090948  -0.126237  -0.000493  3.970872  -0.001
C  C52  1  0.14271421  0.07913723  0.59186307  1  0.029059  -0.0012  3.838757  -0.002  0.045476  -0.000105  4.072924  0.0  0.045574  -0.000106  4.096195  0.0  -0.009916  0.044862  -0.000213  4.057307  0.0
C  C53  1  0.85729079  0.92086663  0.40813668  1  0.028961  0.00119  3.838863  0.002  0.045433  0.000105  4.072952  0.0  0.045531  0.000106  4.096221  0.0  -0.009918  0.04482  0.000213  4.057337  0.0
C  C54  1  0.89263467  0.03113055  0.53544434  1  -0.104373  -0.001247  3.736258  -0.002  -0.122879  -0.000177  3.981733  0.0  -0.124865  -0.000178  4.002031  0.0  -0.089728  -0.121534  -0.000408  3.968096  0.0
C  C55  1  0.10736695  0.96886996  0.46455372  1  -0.104446  0.001251  3.736046  0.002  -0.122963  0.000177  3.981536  0.0  -0.124949  0.000177  4.001833  0.0  -0.08974  -0.121618  0.000408  3.967906  0.0
C  C56  1  0.28989358  0.15726249  0.68449135  1  0.116911  0.004244  3.787128  0.006  0.105335  0.001784  4.039418  0.003  0.107968  0.00125  4.061095  0.002  0.082628  0.103635  0.002349  4.025101  0.003
C  C57  1  0.71011191  0.84274248  0.31550799  1  0.116861  -0.004234  3.786946  -0.006  0.105284  -0.001785  4.039259  -0.003  0.107916  -0.001254  4.060936  -0.002  0.082556  0.103584  -0.002348  4.024942  -0.003
C  C58  1  0.40557544  0.12662624  0.67980915  1  -0.041795  -0.003816  3.666683  -0.005  -0.076377  0.000201  3.936023  0.001  -0.073424  4.1e-05  3.954401  0.0  0.001977  -0.078042  0.000264  3.922836  0.001
C  C59  1  0.59442669  0.87337538  0.32018678  1  -0.041755  0.003814  3.666494  0.005  -0.076305  -0.000201  3.935831  -0.001  -0.07335  -4.1e-05  3.954207  0.0  0.002049  -0.07797  -0.000264  3.922644  -0.001
C  C60  1  0.48235207  0.32965574  0.86211007  1  0.202582  -0.001387  3.695783  -0.002  0.146857  0.003188  3.968032  0.004  0.161469  0.002558  3.982215  0.003  0.131806  0.136617  0.003692  3.959218  0.005
C  C61  1  0.51764904  0.67034365  0.13788925  1  0.202677  0.001396  3.695718  0.002  0.14698  -0.003187  3.967958  -0.004  0.161594  -0.002557  3.982138  -0.003  0.131875  0.13674  -0.003691  3.959144  -0.005
C  C62  1  0.88021288  0.62408461  0.59431284  1  -0.132893  -0.000401  3.766392  -0.001  -0.152325  -0.000165  4.016336  0.0  -0.155656  -0.000142  4.038503  0.0  -0.103809  -0.150067  -0.000153  4.001641  0.0
C  C63  1  0.11978917  0.37591924  0.40569239  1  -0.132743  0.000362  3.766255  0.0  -0.152186  0.000166  4.016187  0.0  -0.155518  0.000144  4.038353  0.0  -0.103765  -0.149928  0.000153  4.001487  0.0
C  C64  1  0.95919028  0.77901821  0.65449603  1  -0.088844  0.000388  3.831603  0.001  -0.107947  0.000185  4.093071  0.0  -0.109312  0.000153  4.115737  0.0  -0.11136  -0.10664  0.000224  4.076836  0.0
C  C65  1  0.04081228  0.22098452  0.34550636  1  -0.089011  -0.00037  3.831454  0.0  -0.108125  -0.000186  4.092948  0.0  -0.109489  -0.000154  4.115614  0.0  -0.111483  -0.106815  -0.000224  4.076712  0.0
C  C66  1  0.10006188  0.84702587  0.74402139  1  -0.100371  -0.000388  3.837897  0.0  -0.115316  -0.000196  4.097219  0.0  -0.11843  -0.000164  4.120006  0.0  -0.110737  -0.113041  -0.000185  4.081148  0.0
C  C67  1  0.89993925  0.15297798  0.25598022  1  -0.100272  0.000373  3.837803  0.0  -0.115202  0.000197  4.097121  0.0  -0.118317  0.000164  4.119912  0.0  -0.110677  -0.112925  0.000185  4.081043  0.0
C  C68  1  0.15888465  0.75856465  0.77094739  1  -0.121632  0.000264  3.773114  0.0  -0.141265  0.00018  4.023929  0.0  -0.142941  0.000206  4.044108  0.0  -0.098561  -0.139828  0.000138  4.010067  0.0
C  C69  1  0.84111456  0.24143473  0.22904985  1  -0.121655  -0.000249  3.773215  0.0  -0.141306  -0.00018  4.024021  0.0  -0.14298  -0.000206  4.044201  0.0  -0.098576  -0.139852  -0.000138  4.010164  0.0
C  C70  1  0.07928862  0.60260563  0.71255596  1  0.08597  -0.000342  3.688919  0.0  0.10194  -0.000315  3.917679  0.0  0.103061  -0.000235  3.939011  0.0  -0.007587  0.100471  -0.000322  3.904364  0.0
C  C71  1  0.92071397  0.39739487  0.28744141  1  0.08602  0.000308  3.688895  0.0  0.101992  0.000315  3.917575  0.0  0.10311  0.000236  3.938907  0.0  -0.007587  0.100522  0.000323  3.904259  0.0
C  C72  1  0.93714270  0.53406721  0.62270255  1  0.079909  0.000718  3.700181  0.001  0.098734  0.000521  3.927028  0.001  0.099695  0.000347  3.949863  0.001  -0.007922  0.097244  0.000738  3.912507  0.001
C  C73  1  0.06286027  0.46593218  0.37730315  1  0.079774  -0.000675  3.700211  -0.001  0.098659  -0.000521  3.926972  -0.001  0.099623  -0.000349  3.949805  -0.001  -0.0079  0.097168  -0.000738  3.912451  -0.001
C  C74  1  0.84276909  0.36782300  0.55454889  1  -0.306301  0.001898  3.717856  0.002  -0.347571  0.000991  3.95168  0.001  -0.353266  0.000424  3.960186  0.0  -0.161191  -0.343507  0.001594  3.94587  0.002
C  C75  1  0.15723102  0.63217861  0.44545612  1  -0.306142  -0.001908  3.717923  -0.003  -0.347435  -0.00099  3.951724  -0.001  -0.353132  -0.000423  3.96023  0.0  -0.161157  -0.343367  -0.001594  3.945904  -0.002
C  C76  1  0.77729651  0.30303485  0.63813964  1  0.676257  -0.002978  3.850032  -0.007  0.635536  0.002009  4.155682  0.0  0.670797  0.001298  4.153234  0.0  0.202158  0.610608  0.002773  4.155165  0.001
C  C77  1  0.22270598  0.69696565  0.36186632  1  0.676209  0.002976  3.85002  0.007  0.635416  -0.00201  4.155804  0.0  0.670685  -0.001297  4.153358  0.0  0.202047  0.610486  -0.002773  4.155293  -0.001
C  C78  1  0.14938611  0.51424291  0.74688564  1  -0.302988  -0.004076  3.70654  -0.006  -0.346251  -0.002171  3.946221  -0.003  -0.35139  -0.001466  3.953352  -0.002  -0.161054  -0.342691  -0.002905  3.941494  -0.004
C  C79  1  0.85061167  0.48575312  0.25310683  1  -0.303156  0.004075  3.706757  0.006  -0.346329  0.002171  3.946325  0.003  -0.351459  0.001467  3.953446  0.002  -0.161034  -0.342771  0.002904  3.941599  0.004
C  C80  1  0.18455974  0.53738677  0.88926156  1  0.720586  0.001828  3.809779  0.005  0.679948  -0.002661  4.113273  -0.002  0.716461  -0.001776  4.106245  -0.001  0.220377  0.653876  -0.003584  4.117234  -0.002
C  C81  1  0.81543657  0.46260591  0.11072956  1  0.720661  -0.001829  3.809731  -0.005  0.680079  0.002662  4.113103  0.002  0.716593  0.001776  4.106068  0.001  0.220431  0.654018  0.003584  4.117059  0.002
N  N82  1  0.73656236  0.87007727  0.81562647  1  -0.324333  0.000834  3.429107  0.001  -0.267333  0.001416  3.663355  0.002  -0.28174  0.001086  3.67496  0.002  -0.373135  -0.258118  0.001577  3.656389  0.002
N  N83  1  0.26343347  0.12992544  0.18437465  1  -0.324371  -0.00083  3.429023  -0.001  -0.26749  -0.001415  3.663271  -0.002  -0.281895  -0.001087  3.674875  -0.002  -0.37316  -0.258264  -0.001577  3.656294  -0.002
N  N84  1  0.71260376  0.05721543  0.79449250  1  -0.363062  0.038892  3.332404  0.059  -0.315765  0.028321  3.648371  0.035  -0.344609  0.022951  3.660379  0.027  -0.356618  -0.29488  0.033214  3.640912  0.042
N  N85  1  0.28739303  0.94278728  0.20550880  1  -0.36303  -0.038894  3.332206  -0.059  -0.315748  -0.02832  3.648201  -0.035  -0.344592  -0.022951  3.660209  -0.027  -0.356626  -0.294865  -0.033213  3.640748  -0.042
N  N86  1  0.34158666  0.28583104  0.80148846  1  -0.330767  0.001582  3.417175  0.003  -0.263962  0.001935  3.645094  0.003  -0.280333  0.001441  3.658093  0.002  -0.376581  -0.25362  0.002375  3.636892  0.004
N  N87  1  0.65841734  0.71416836  0.19850969  1  -0.330744  -0.001585  3.416979  -0.003  -0.264004  -0.001935  3.644953  -0.003  -0.280373  -0.001439  3.657944  -0.002  -0.376604  -0.25366  -0.002375  3.636753  -0.004
N  N88  1  0.52473413  0.23528376  0.79080745  1  -0.387768  0.041927  3.374057  0.062  -0.340991  0.030038  3.696173  0.037  -0.371635  0.024013  3.710111  0.028  -0.370337  -0.31827  0.035477  3.686182  0.044
N  N89  1  0.47526358  0.76471004  0.20918860  1  -0.387817  -0.041926  3.373937  -0.062  -0.341059  -0.030038  3.696079  -0.037  -0.371705  -0.024015  3.710013  -0.028  -0.370405  -0.318338  -0.035476  3.686092  -0.044
O  O90  1  0.18639040  0.65347857  0.97377403  1  -0.6153  -0.051986  2.091664  -0.085  -0.57573  -0.038244  2.372247  -0.056  -0.618651  -0.029477  2.359184  -0.043  -0.317783  -0.542377  -0.046723  2.379681  -0.069
O  O91  1  0.81360777  0.34651189  0.02622103  1  -0.615296  0.051982  2.091613  0.085  -0.575744  0.038243  2.372149  0.056  -0.61866  0.029477  2.359088  0.043  -0.317782  -0.542391  0.046722  2.37958  0.069
O  O92  1  0.21784802  0.44669833  0.91743960  1  -0.643017  -0.003409  1.942905  -0.006  -0.603307  -0.004359  2.167402  -0.007  -0.628881  -0.003079  2.156591  -0.005  -0.331927  -0.584417  -0.005764  2.173762  -0.009
O  O93  1  0.78214733  0.55329211  0.08254891  1  -0.643079  0.003413  1.942776  0.006  -0.603401  0.00436  2.167245  0.007  -0.628981  0.003078  2.156427  0.005  -0.331991  -0.584516  0.005765  2.173602  0.009
O  O94  1  0.84204597  0.37618747  0.76468818  1  -0.591929  0.061734  2.012669  0.098  -0.555381  0.043408  2.284008  0.064  -0.599966  0.032154  2.27377  0.046  -0.319582  -0.52025  0.053896  2.289001  0.079
O  O95  1  0.15795368  0.62381302  0.23531381  1  -0.591935  -0.061742  2.012454  -0.098  -0.555399  -0.043411  2.283858  -0.064  -0.599997  -0.032153  2.273615  -0.046  -0.319565  -0.520264  -0.0539  2.288856  -0.079
O  O96  1  0.66513473  0.17972769  0.58406519  1  -0.634937  0.01615  1.938286  0.027  -0.589655  0.016304  2.177024  0.027  -0.621018  0.011951  2.170606  0.02  -0.314258  -0.565157  0.021095  2.179602  0.034
O  O97  1  0.33486097  0.82026610  0.41593908  1  -0.634887  -0.01614  1.938419  -0.027  -0.589548  -0.016296  2.177147  -0.027  -0.620911  -0.011947  2.170735  -0.02  -0.314173  -0.565044  -0.021086  2.179721  -0.034
