# generated using pymatgen
data_Zn4H34C36N2O13
_symmetry_space_group_name_H-M   'P 1'
_cell_length_a   17.79570141
_cell_length_b   18.64333816
_cell_length_c   23.33517923
_cell_angle_alpha   66.65275647
_cell_angle_beta   69.75964593
_cell_angle_gamma   89.95219496
_symmetry_Int_Tables_number   1
_chemical_formula_structural   Zn4H34C36N2O13
_chemical_formula_sum   'Zn8 H68 C72 N4 O26'
_cell_volume   6585.13324486
_cell_formula_units_Z   2
loop_
 _symmetry_equiv_pos_site_id
 _symmetry_equiv_pos_as_xyz
  1  'x, y, z'
loop_
 _atom_site_type_symbol
 _atom_site_label
 _atom_site_symmetry_multiplicity
 _atom_site_fract_x
 _atom_site_fract_y
 _atom_site_fract_z
 _atom_site_occupancy
 _atom_site_pbe_bader_charge
 _atom_site_pbe_bader_spin_density
 _atom_site_pbe_cm5_charge
 _atom_site_pbe_ddec_charge
 _atom_site_pbe_ddec_spin_density
 _atom_site_pbe_ddec_sum_bond_order
 _atom_site_pbe_magmom
Zn  Zn0  1  0.11775468  0.53130258  0.94114230  1  1.309577  0  0.666944  0.958346  0  2.381517  0
Zn  Zn1  1  0.97156402  0.55951329  0.05148519  1  1.311709  0  0.666822  0.95073  0  2.415808  0
Zn  Zn2  1  0.97525504  0.38934961  0.05157556  1  1.310358  0  0.666233  0.952159  0  2.410491  0
Zn  Zn3  1  0.93841516  0.53064378  0.93485666  1  1.306953  0  0.668988  0.963896  0  2.352986  0
Zn  Zn4  1  0.38499107  0.97696779  0.05061112  1  1.312288  0  0.666418  0.955812  0  2.389277  0
Zn  Zn5  1  0.52896128  0.11603982  0.93615433  1  1.308715  0  0.666629  0.952357  0  2.409874  0
Zn  Zn6  1  0.52326892  0.94630809  0.93697537  1  1.300791  0  0.667143  0.951216  0  2.414325  0
Zn  Zn7  1  0.56685107  0.97298240  0.05104914  1  1.318221  0  0.667922  0.96328  0  2.346615  0
H  H8  1  0.49883212  0.86614031  0.26320227  1  0.101108  0  0.104144  0.114434  0  1.003036  0
H  H9  1  0.43545503  0.80184785  0.38890716  1  0.063738  0  0.101235  0.103245  0  0.993899  0
H  H10  1  0.26195115  0.87250609  0.25354514  1  0.067022  0  0.107017  0.125496  0  0.999351  0
H  H11  1  0.24872711  0.63015054  0.73694533  1  0.088471  0  0.106295  0.124839  0  0.997895  0
H  H12  1  0.01320688  0.63598486  0.72468909  1  0.078594  0  0.104052  0.115066  0  1.003202  0
H  H13  1  0.07809814  0.69740276  0.59905286  1  0.044448  0  0.101331  0.10272  0  0.994889  0
H  H14  1  0.63203271  0.01732112  0.73014306  1  0.12187  0  0.104423  0.115411  0  1.003621  0
H  H15  1  0.70358290  0.07972397  0.60481386  1  0.050947  0  0.101463  0.102949  0  0.994864  0
H  H16  1  0.62853544  0.24763131  0.73039646  1  0.100313  0  0.106934  0.124305  0  0.998052  0
H  H17  1  0.87002616  0.25717137  0.25901148  1  0.077044  0  0.106623  0.124729  0  0.997655  0
H  H18  1  0.87099099  0.48831044  0.25772191  1  0.089698  0  0.104839  0.116149  0  1.002897  0
H  H19  1  0.81413090  0.42675020  0.38368510  1  0.05445  0  0.101925  0.103662  0  0.993535  0
H  H20  1  0.19714235  0.30181991  0.91115614  1  0.034884  0  0.092283  0.087407  0  0.978323  0
H  H21  1  0.12547203  0.23003353  0.98751466  1  0.04531  0  0.092866  0.091099  0  0.982687  0
H  H22  1  0.21483046  0.13831182  0.98457817  1  0.03323  0  0.092991  0.091236  0  0.983347  0
H  H23  1  0.28623089  0.21083809  0.90851830  1  0.036474  0  0.091654  0.08646  0  0.978681  0
H  H24  1  0.21484357  0.12407230  0.09583432  1  0.06296  0  0.091592  0.092289  0  0.988113  0
H  H25  1  0.28674949  0.18488204  0.10013136  1  0.012509  0  0.089104  0.083171  0  0.979553  0
H  H26  1  0.12642488  0.21699824  0.09893618  1  0.058514  0  0.091518  0.092515  0  0.989625  0
H  H27  1  0.19968842  0.27796609  0.10165048  1  0.01568  0  0.089717  0.084457  0  0.978492  0
H  H28  1  0.30146066  0.39111913  0.91439442  1  0.048615  0  0.089756  0.089396  0  0.988217  0
H  H29  1  0.30253577  0.38246640  0.99187574  1  0.023689  0  0.089399  0.085612  0  0.980268  0
H  H30  1  0.39111635  0.28989073  0.99056796  1  0.022208  0  0.088906  0.085342  0  0.980497  0
H  H31  1  0.39071220  0.29949293  0.91272125  1  0.039415  0  0.089946  0.088897  0  0.987345  0
H  H32  1  0.89035965  0.80052803  0.90476949  1  0.046372  0  0.090721  0.084764  0  0.979965  0
H  H33  1  0.88769846  0.78798686  0.98472434  1  0.037054  0  0.091892  0.090652  0  0.985701  0
H  H34  1  0.79878234  0.88048152  0.98591077  1  0.042904  0  0.092264  0.0906  0  0.983611  0
H  H35  1  0.80168526  0.89196105  0.90613307  1  0.037692  0  0.090897  0.086087  0  0.978859  0
H  H36  1  0.69565172  0.77736736  0.09162332  1  0.037275  0  0.092525  0.093196  0  0.985778  0
H  H37  1  0.62343068  0.71585864  0.08827866  1  0.019788  0  0.090044  0.084234  0  0.979449  0
H  H38  1  0.78321474  0.68357546  0.09065995  1  0.041849  0  0.092728  0.09356  0  0.988358  0
H  H39  1  0.71113496  0.62359903  0.08566098  1  0.017172  0  0.08982  0.083699  0  0.977922  0
H  H40  1  0.78883574  0.71287704  0.89708895  1  0.00661  0  0.089771  0.088018  0  0.985426  0
H  H41  1  0.71593786  0.64016945  0.97066411  1  0.018006  0  0.089677  0.086682  0  0.98278  0
H  H42  1  0.62657089  0.73189296  0.97292857  1  0.03212  0  0.089314  0.086273  0  0.98223  0
H  H43  1  0.69929819  0.80429767  0.89914864  1  0.03033  0  0.089929  0.088855  0  0.98576  0
H  H44  1  0.16178287  0.79288466  0.93739240  1  0.008953  0  0.091056  0.085671  0  0.979393  0
H  H45  1  0.24602610  0.75662795  0.89657261  1  0.025701  0  0.092836  0.091884  0  0.984831  0
H  H46  1  0.33326287  0.85215695  0.89446123  1  0.03823  0  0.093598  0.092603  0  0.98306  0
H  H47  1  0.24853675  0.88717166  0.93618374  1  0.022368  0  0.091267  0.085807  0  0.978925  0
H  H48  1  0.39343091  0.74331672  0.96142220  1  0.046585  0  0.092314  0.093524  0  0.988957  0
H  H49  1  0.35250273  0.70210108  0.05029537  1  0.030545  0  0.089546  0.083005  0  0.979928  0
H  H50  1  0.30501701  0.64747094  0.96449087  1  0.022557  0  0.092274  0.093438  0  0.988528  0
H  H51  1  0.26395478  0.60774978  0.05333517  1  0.017485  0  0.089893  0.084293  0  0.980247  0
H  H52  1  0.10146018  0.73492163  0.06545456  1  0.030055  0  0.090242  0.089877  0  0.986259  0
H  H53  1  0.14275551  0.65898348  0.11279230  1  0.036674  0  0.089547  0.086819  0  0.981297  0
H  H54  1  0.23148898  0.75308632  0.11077113  1  0.035928  0  0.089136  0.08578  0  0.980856  0
H  H55  1  0.18960143  0.82904219  0.06404547  1  0.053251  0  0.089615  0.088437  0  0.986344  0
H  H56  1  0.89935767  0.26733502  0.92896208  1  0.010105  0  0.091168  0.086143  0  0.979601  0
H  H57  1  0.85502001  0.34336649  0.88372377  1  0.035007  0  0.093163  0.090955  0  0.980646  0
H  H58  1  0.76875642  0.24780978  0.88496598  1  0.050836  0  0.093535  0.092651  0  0.983871  0
H  H59  1  0.81216125  0.17219248  0.93161135  1  0.039321  0  0.09156  0.086319  0  0.977812  0
H  H60  1  0.64957079  0.29835800  0.94467911  1  0.046058  0  0.091993  0.093896  0  0.988283  0
H  H61  1  0.60657249  0.25759860  0.03346273  1  0.016106  0  0.089153  0.083347  0  0.981086  0
H  H62  1  0.73653654  0.39265334  0.94474895  1  0.053015  0  0.092231  0.093654  0  0.987304  0
H  H63  1  0.69392631  0.35040220  0.03354439  1  0.005623  0  0.089214  0.084292  0  0.980488  0
H  H64  1  0.83954618  0.20556848  0.05696563  1  0.035984  0  0.090128  0.090284  0  0.989103  0
H  H65  1  0.75658031  0.23980611  0.10023843  1  0.029985  0  0.088685  0.084643  0  0.980974  0
H  H66  1  0.66717118  0.14722694  0.10131143  1  0.009747  0  0.089119  0.086147  0  0.981692  0
H  H67  1  0.75016997  0.11149023  0.05971421  1  0.045226  0  0.08974  0.088987  0  0.985517  0
H  H68  1  0.15559195  0.78731319  0.43642020  1  0.43155  0  0.30068  0.295124  0  0.971711  0
H  H69  1  0.14511474  0.82910429  0.35996298  1  0.450229  0  0.314703  0.310314  0  0.933168  0
H  H70  1  0.35697991  0.72880879  0.55423489  1  0.433888  0  0.299694  0.294362  0  0.971725  0
H  H71  1  0.36660757  0.69419782  0.63097576  1  0.435953  0  0.313481  0.308322  0  0.9355  0
H  H72  1  0.72460158  0.35220969  0.54667056  1  0.428739  0  0.300676  0.295358  0  0.971639  0
H  H73  1  0.67894758  0.36274784  0.62029486  1  0.443223  0  0.313729  0.308874  0  0.933894  0
H  H74  1  0.77584699  0.15446949  0.44290477  1  0.466117  0  0.299804  0.293877  0  0.972344  0
H  H75  1  0.80595127  0.14338345  0.36900926  1  0.436099  0  0.312424  0.306741  0  0.936106  0
C  C76  1  0.14120090  0.63476451  0.00362609  1  1.535335  0  0.234643  0.601866  0  4.100106  0
C  C77  1  0.90766404  0.41210213  0.17663363  1  1.581064  0  0.224933  0.601889  0  4.164125  0
C  C78  1  0.14404588  0.36431106  0.00125595  1  1.565975  0  0.234465  0.603498  0  4.099971  0
C  C79  1  0.86111492  0.36595675  0.99000188  1  1.559268  0  0.235437  0.604707  0  4.094837  0
C  C80  1  0.09004908  0.59322994  0.81287854  1  1.512346  0  0.224206  0.60184  0  4.161603  0
C  C81  1  0.86086223  0.64369969  0.98905062  1  1.548526  0  0.233152  0.601071  0  4.101817  0
C  C82  1  0.36010197  0.14209799  0.99659938  1  1.548403  0  0.234363  0.603501  0  4.09906  0
C  C83  1  0.58381944  0.09286699  0.81141751  1  1.529289  0  0.225369  0.601582  0  4.167692  0
C  C84  1  0.35541805  0.86274471  0.99881440  1  1.539623  0  0.234508  0.603059  0  4.096303  0
C  C85  1  0.64405468  0.86574244  0.99211339  1  1.554535  0  0.234991  0.604827  0  4.093862  0
C  C86  1  0.41968731  0.91229776  0.17619042  1  1.550476  0  0.224596  0.601408  0  4.160607  0
C  C87  1  0.64684182  0.14004984  0.99165720  1  1.551577  0  0.232955  0.600382  0  4.097336  0
C  C88  1  0.38344884  0.87317114  0.25147312  1  -0.015998  0  -0.021627  -0.01998  0  4.014134  0
C  C89  1  0.43321129  0.85310316  0.28923881  1  -0.023734  0  -0.103465  -0.133738  0  4.035856  0
C  C90  1  0.39766122  0.81740672  0.35898642  1  -0.063469  0  -0.090731  -0.11934  0  4.014867  0
C  C91  1  0.31253657  0.80033025  0.39308064  1  0.102162  0  -0.013498  0.02838  0  4.091138  0
C  C92  1  0.26217564  0.82010441  0.35451606  1  0.475854  0  0.104585  0.269668  0  4.076206  0
C  C93  1  0.29910539  0.85665588  0.28405156  1  -0.005088  0  -0.099876  -0.221581  0  3.945514  0
C  C94  1  0.27565740  0.76483978  0.46403315  1  -0.31239  0  -0.049254  -0.108639  0  4.146788  0
C  C95  1  0.23810444  0.73433131  0.52525328  1  -0.160949  0  -0.048694  -0.110012  0  4.14712  0
C  C96  1  0.20049480  0.69900831  0.59616084  1  0.196424  0  -0.01414  0.030371  0  4.086201  0
C  C97  1  0.25001036  0.67968312  0.63543913  1  0.413808  0  0.104328  0.269756  0  4.070389  0
C  C98  1  0.21223532  0.64545865  0.70587750  1  0.056253  0  -0.100122  -0.222954  0  3.945226  0
C  C99  1  0.12781443  0.62987060  0.73767675  1  -0.044183  0  -0.020508  -0.018545  0  4.016495  0
C  C100  1  0.07889185  0.64847794  0.69918311  1  -0.086694  0  -0.103477  -0.134751  0  4.037125  0
C  C101  1  0.11527785  0.68254245  0.62949171  1  0.040148  0  -0.090392  -0.118363  0  4.014287  0
C  C102  1  0.62599899  0.12956262  0.73671676  1  0.030041  0  -0.021718  -0.019062  0  4.023394  0
C  C103  1  0.64722771  0.08127215  0.70195923  1  -0.018049  0  -0.103491  -0.135421  0  4.040433  0
C  C104  1  0.68687319  0.11619376  0.63261921  1  -0.011893  0  -0.089549  -0.116251  0  4.018464  0
C  C105  1  0.70631723  0.19922041  0.59624454  1  0.105368  0  -0.014154  0.027787  0  4.094442  0
C  C106  1  0.68576007  0.24812145  0.63179227  1  0.466653  0  0.104935  0.270509  0  4.074797  0
C  C107  1  0.64527793  0.21181062  0.70194054  1  -0.119513  0  -0.09903  -0.220953  0  3.945569  0
C  C108  1  0.74411869  0.23524798  0.52548917  1  -0.153955  0  -0.048458  -0.10848  0  4.155334  0
C  C109  1  0.77503639  0.27129323  0.46399351  1  -0.356213  0  -0.048779  -0.108554  0  4.153791  0
C  C110  1  0.80907370  0.30693067  0.39305570  1  0.135889  0  -0.012779  0.029508  0  4.093988  0
C  C111  1  0.82499181  0.25758428  0.35779957  1  0.410598  0  0.103674  0.267837  0  4.075202  0
C  C112  1  0.85704787  0.29341501  0.28720456  1  0.091675  0  -0.098254  -0.219992  0  3.947555  0
C  C113  1  0.87319881  0.37567362  0.25174504  1  -0.142757  0  -0.021444  -0.019998  0  4.020319  0
C  C114  1  0.85788404  0.42436809  0.28633270  1  0.114338  0  -0.102945  -0.133706  0  4.038523  0
C  C115  1  0.82639394  0.38991546  0.35607125  1  -0.102548  0  -0.089491  -0.117178  0  4.017563  0
C  C116  1  0.18886818  0.25960255  0.96256304  1  -0.054129  0  -0.154886  -0.169428  0  3.848065  0
C  C117  1  0.24811426  0.19876985  0.96081503  1  -0.028744  0  -0.154728  -0.167239  0  3.849364  0
C  C118  1  0.30322712  0.20298172  0.99854721  1  0.049256  0  -0.017006  0.01897  0  3.81388  0
C  C119  1  0.24841594  0.18435478  0.07201091  1  -0.047322  0  -0.159363  -0.172344  0  3.86545  0
C  C120  1  0.18997674  0.24582653  0.07351469  1  -0.0479  0  -0.159376  -0.172539  0  3.864538  0
C  C121  1  0.20385302  0.30580559  0.00110219  1  0.041637  0  -0.016952  0.01961  0  3.81322  0
C  C122  1  0.29208888  0.34808759  0.96566612  1  -0.049118  0  -0.164667  -0.176417  0  3.889566  0
C  C123  1  0.35090483  0.28715215  0.96455246  1  -0.022204  0  -0.164992  -0.175637  0  3.888372  0
C  C124  1  0.84948634  0.78683776  0.95676269  1  -0.059291  0  -0.154742  -0.167475  0  3.8481  0
C  C125  1  0.79038092  0.84801059  0.95767540  1  -0.039497  0  -0.155108  -0.169474  0  3.850455  0
C  C126  1  0.70171062  0.80533514  0.99072221  1  0.05179  0  -0.016845  0.02059  0  3.809126  0
C  C127  1  0.68698797  0.74518501  0.06331182  1  -0.032875  0  -0.159243  -0.172975  0  3.86582  0
C  C128  1  0.74535263  0.68373170  0.06216130  1  -0.025603  0  -0.158729  -0.171539  0  3.858818  0
C  C129  1  0.80127209  0.70244984  0.98880804  1  0.035893  0  -0.01765  0.020518  0  3.809698  0
C  C130  1  0.74908494  0.70033948  0.94900353  1  0.008505  0  -0.164462  -0.176229  0  3.892173  0
C  C131  1  0.68995553  0.76103810  0.95036134  1  -0.027802  0  -0.164853  -0.175968  0  3.884701  0
C  C132  1  0.21847253  0.77091319  0.93996052  1  0.001688  0  -0.15495  -0.170094  0  3.854623  0
C  C133  1  0.27640975  0.83384090  0.93878049  1  -0.030945  0  -0.154541  -0.166857  0  3.852423  0
C  C134  1  0.29647048  0.79991274  0.00309053  1  0.045232  0  -0.017583  0.018834  0  3.811943  0
C  C135  1  0.33645700  0.72574241  0.00547004  1  -0.042073  0  -0.159206  -0.172035  0  3.863193  0
C  C136  1  0.27783648  0.66275690  0.00730369  1  -0.011956  0  -0.160098  -0.175011  0  3.867664  0
C  C137  1  0.19807914  0.69410470  0.00545112  1  0.04359  0  -0.016536  0.023568  0  3.808794  0
C  C138  1  0.15878638  0.71367952  0.06629473  1  -0.025961  0  -0.164687  -0.178131  0  3.885112  0
C  C139  1  0.21727759  0.77611619  0.06509179  1  -0.055988  0  -0.16399  -0.175556  0  3.886367  0
C  C140  1  0.84132518  0.28790768  0.92926003  1  -0.009551  0  -0.153801  -0.1675  0  3.84698  0
C  C141  1  0.78341457  0.22476525  0.93039239  1  -0.070027  0  -0.155336  -0.169726  0  3.848376  0
C  C142  1  0.70367507  0.19987568  0.99314090  1  0.063379  0  -0.016145  0.024016  0  3.808956  0
C  C143  1  0.66435240  0.27460374  0.98999028  1  -0.030918  0  -0.159424  -0.174838  0  3.863669  0
C  C144  1  0.72231884  0.33673920  0.98983299  1  -0.033599  0  -0.161029  -0.176238  0  3.872181  0
C  C145  1  0.80181426  0.30514922  0.99199276  1  0.04838  0  -0.016638  0.021218  0  3.808782  0
C  C146  1  0.78262083  0.22738728  0.05564228  1  -0.030654  0  -0.165479  -0.176983  0  3.88633  0
C  C147  1  0.72380397  0.16549771  0.05673982  1  -0.036734  0  -0.165532  -0.178761  0  3.893335  0
N  N148  1  0.17916729  0.80109824  0.38640002  1  -1.263063  0  -0.59474  -0.618549  0  3.340808  0
N  N149  1  0.33317184  0.69231971  0.60411147  1  -1.217715  0  -0.594117  -0.618326  0  3.338895  0
N  N150  1  0.70783672  0.32892762  0.59742313  1  -1.236777  0  -0.59311  -0.616934  0  3.339695  0
N  N151  1  0.81126933  0.17656404  0.39318142  1  -1.267975  0  -0.593883  -0.616045  0  3.337666  0
O  O152  1  0.00059851  0.50310040  0.99366825  1  -1.227927  0  -0.5739  -1.025866  0  2.547794  0
O  O153  1  0.17131032  0.60664000  0.96021268  1  -1.171327  0  -0.318292  -0.554866  0  2.340157  0
O  O154  1  0.91854735  0.48760456  0.14709190  1  -1.161664  0  -0.316921  -0.545169  0  2.344989  0
O  O155  1  0.07043349  0.33552115  0.04089632  1  -1.180945  0  -0.316959  -0.549963  0  2.351706  0
O  O156  1  0.06762479  0.61907734  0.04430825  1  -1.18034  0  -0.313422  -0.544083  0  2.366135  0
O  O157  1  0.17127632  0.43686302  0.96099101  1  -1.184681  0  -0.314391  -0.549633  0  2.354386  0
O  O158  1  0.92373542  0.36518737  0.14773399  1  -1.172354  0  -0.319085  -0.549387  0  2.340347  0
O  O159  1  0.90094187  0.33934075  0.02805818  1  -1.192768  0  -0.316543  -0.551744  0  2.378025  0
O  O160  1  0.01256309  0.57967830  0.83960063  1  -1.164265  0  -0.317498  -0.548478  0  2.332285  0
O  O161  1  0.86763216  0.43827868  0.94988158  1  -1.176928  0  -0.316299  -0.550742  0  2.32508  0
O  O162  1  0.13846441  0.57839882  0.84438253  1  -1.167073  0  -0.318258  -0.54952  0  2.341972  0
O  O163  1  0.90116086  0.63672766  0.02636800  1  -1.177385  0  -0.318238  -0.553838  0  2.360779  0
O  O164  1  0.86653423  0.60651330  0.95254328  1  -1.175722  0  -0.312404  -0.54576  0  2.343358  0
O  O165  1  0.50114669  0.00253306  0.99495744  1  -1.227212  0  -0.572895  -1.024247  0  2.545057  0
O  O166  1  0.32851700  0.06924348  0.03169232  1  -1.170186  0  -0.317617  -0.552558  0  2.336921  0
O  O167  1  0.56466288  0.13965045  0.84023529  1  -1.166491  0  -0.319782  -0.549868  0  2.3432  0
O  O168  1  0.42692743  0.87818122  0.95423498  1  -1.18231  0  -0.317854  -0.553284  0  2.353518  0
O  O169  1  0.43477445  0.16838629  0.95957309  1  -1.186183  0  -0.313984  -0.547697  0  2.369507  0
O  O170  1  0.32927505  0.89583097  0.03881822  1  -1.163153  0  -0.31332  -0.545217  0  2.350564  0
O  O171  1  0.57031098  0.01730322  0.84081876  1  -1.162727  0  -0.316809  -0.544565  0  2.345509  0
O  O172  1  0.60334629  0.87736572  0.95470595  1  -1.190201  0  -0.314457  -0.547257  0  2.374812  0
O  O173  1  0.49697687  0.92263051  0.14780370  1  -1.184563  0  -0.316671  -0.545623  0  2.317136  0
O  O174  1  0.64093397  0.90010375  0.03047371  1  -1.174341  0  -0.317557  -0.554868  0  2.327094  0
O  O175  1  0.36993638  0.93239536  0.14620613  1  -1.181839  0  -0.319695  -0.551808  0  2.351199  0
O  O176  1  0.61734389  0.16671218  0.94586798  1  -1.171486  0  -0.317595  -0.551301  0  2.351762  0
O  O177  1  0.63329433  0.06861375  0.03532490  1  -1.183164  0  -0.313285  -0.547805  0  2.346951  0
