# generated using pymatgen
data_CuH12C17IN3
_symmetry_space_group_name_H-M   'P 1'
_cell_length_a   12.91746159
_cell_length_b   13.09952426
_cell_length_c   13.05295790
_cell_angle_alpha   76.05599236
_cell_angle_beta   60.34293579
_cell_angle_gamma   60.85613737
_symmetry_Int_Tables_number   1
_chemical_formula_structural   CuH12C17IN3
_chemical_formula_sum   'Cu4 H48 C68 I4 N12'
_cell_volume   1676.39249289
_cell_formula_units_Z   4
loop_
 _symmetry_equiv_pos_site_id
 _symmetry_equiv_pos_as_xyz
  1  'x, y, z'
loop_
 _atom_site_type_symbol
 _atom_site_label
 _atom_site_symmetry_multiplicity
 _atom_site_fract_x
 _atom_site_fract_y
 _atom_site_fract_z
 _atom_site_occupancy
 _atom_site_hle17_bader_spin_density
 _atom_site_hle17_ddec_charge
 _atom_site_hle17_ddec_spin_density
 _atom_site_hle17_ddec_sum_bond_order
 _atom_site_hle17_magmom
 _atom_site_hse06_10hf_bader_spin_density
 _atom_site_hse06_10hf_ddec_charge
 _atom_site_hse06_10hf_ddec_spin_density
 _atom_site_hse06_10hf_ddec_sum_bond_order
 _atom_site_hse06_10hf_magmom
 _atom_site_hse06_bader_spin_density
 _atom_site_hse06_ddec_charge
 _atom_site_hse06_ddec_spin_density
 _atom_site_hse06_ddec_sum_bond_order
 _atom_site_hse06_magmom
 _atom_site_pbe_bader_charge
 _atom_site_pbe_bader_spin_density
 _atom_site_pbe_cm5_charge
 _atom_site_pbe_ddec_charge
 _atom_site_pbe_ddec_spin_density
 _atom_site_pbe_ddec_sum_bond_order
 _atom_site_pbe_magmom
Cu  Cu0  1  0.10423937  0.61297114  0.53491063  1  0  0.209352  0  2.220753  0  0  0.143971  0  2.669698  0  0  0.15381  0  2.617753  0  0.407422  0  0.243588  0.140083  0  2.702758  0
Cu  Cu1  1  0.25190473  0.38790574  0.46621837  1  0  0.207776  0  2.221587  0  0  0.142172  0  2.670863  0  0  0.152513  0  2.618052  0  0.402839  0  0.244095  0.137851  0  2.704791  0
Cu  Cu2  1  0.35917647  0.53452779  0.38864843  1  0  0.20533  0  2.231508  0  0  0.140265  0  2.680557  0  0  0.150639  0  2.627667  0  0.404868  0  0.244093  0.13589  0  2.714554  0
Cu  Cu3  1  0.28317939  0.46551221  0.61189166  1  0  0.206358  0  2.217905  0  0  0.140372  0  2.667116  0  0  0.150945  0  2.61417  0  0.404793  0  0.243985  0.136152  0  2.700724  0
H  H4  1  0.88665687  0.43804004  0.04617451  1  0  0.082733  0  0.971012  0  0  0.090835  0  1.036551  0  0  0.092397  0  1.038081  0  0.064682  0  0.091972  0.089651  0  1.035679  0
H  H5  1  0.37136838  0.56123087  0.95212720  1  0  0.083493  0  0.97179  0  0  0.091526  0  1.037024  0  0  0.093138  0  1.038517  0  0.06551  0  0.092147  0.090316  0  1.036165  0
H  H6  1  0.06967601  0.04748575  0.55871110  1  0  0.082184  0  0.973858  0  0  0.090305  0  1.039526  0  0  0.091826  0  1.041062  0  0.038518  0  0.091819  0.089176  0  1.038562  0
H  H7  1  0.67517537  0.95278224  0.44102145  1  0  0.082195  0  0.973133  0  0  0.090473  0  1.038613  0  0  0.091983  0  1.040187  0  0.081449  0  0.092013  0.089335  0  1.03768  0
H  H8  1  0.12177452  0.29609654  0.93906634  1  0  0.095039  0  0.971267  0  0  0.097572  0  1.046718  0  0  0.100511  0  1.04529  0  0.098427  0  0.095537  0.095354  0  1.047941  0
H  H9  1  0.35632150  0.70452253  0.05997768  1  0  0.095192  0  0.973294  0  0  0.098259  0  1.048028  0  0  0.101244  0  1.046536  0  0.109946  0  0.095923  0.095952  0  1.049344  0
H  H10  1  0.94057216  0.94008695  0.70195471  1  0  0.094631  0  0.972784  0  0  0.097327  0  1.048473  0  0  0.100292  0  1.046978  0  0.102048  0  0.095232  0.095094  0  1.049698  0
H  H11  1  0.58228509  0.06027767  0.29848840  1  0  0.094845  0  0.972814  0  0  0.097331  0  1.048728  0  0  0.100269  0  1.047311  0  0.100295  0  0.095067  0.09511  0  1.049952  0
H  H12  1  0.09806639  0.81720643  0.41521358  1  0  0.100535  0  0.980699  0  0  0.106844  0  1.051063  0  0  0.110902  0  1.047858  0  0.082073  0  0.089423  0.103552  0  1.053839  0
H  H13  1  0.32999055  0.18397429  0.58577788  1  0  0.099659  0  0.980808  0  0  0.106161  0  1.051078  0  0  0.110225  0  1.047836  0  0.101551  0  0.089513  0.102926  0  1.053818  0
H  H14  1  0.48584724  0.41509022  0.18442300  1  0  0.098895  0  0.984176  0  0  0.105482  0  1.054502  0  0  0.109638  0  1.051189  0  0.106677  0  0.088662  0.102147  0  1.057316  0
H  H15  1  0.08843705  0.58262822  0.81565690  1  0  0.099964  0  0.984567  0  0  0.106516  0  1.05468  0  0  0.110523  0  1.051542  0  0.093051  0  0.088369  0.103275  0  1.057407  0
H  H16  1  0.05837990  0.02073974  0.34481543  1  0  0.086812  0  0.976496  0  0  0.097321  0  1.036415  0  0  0.099171  0  1.036684  0  0.074981  0  0.098902  0.095993  0  1.036347  0
H  H17  1  0.42342437  0.98046415  0.65506875  1  0  0.086878  0  0.977947  0  0  0.09721  0  1.037855  0  0  0.099088  0  1.03807  0  0.064171  0  0.099114  0.095883  0  1.037785  0
H  H18  1  0.59663995  0.34523935  0.97930419  1  0  0.087077  0  0.976075  0  0  0.097596  0  1.035924  0  0  0.099309  0  1.036308  0  0.089634  0  0.099152  0.09637  0  1.035767  0
H  H19  1  0.92415118  0.65250135  0.02065581  1  0  0.087513  0  0.971147  0  0  0.098188  0  1.030809  0  0  0.099945  0  1.031131  0  0.104812  0  0.099542  0.096904  0  1.030716  0
H  H20  1  0.60763895  0.79137252  0.77799420  1  0  0.117542  0  0.944775  0  0  0.12634  0  1.004776  0  0  0.130081  0  1.003853  0  0.130216  0  0.111973  0.123693  0  1.005602  0
H  H21  1  0.17742933  0.20754589  0.22320709  1  0  0.118095  0  0.943497  0  0  0.126308  0  1.004377  0  0  0.13008  0  1.003373  0  0.119704  0  0.111835  0.123652  0  1.005252  0
H  H22  1  0.61420273  0.77738788  0.20896666  1  0  0.117145  0  0.945019  0  0  0.125717  0  1.005535  0  0  0.129473  0  1.004588  0  0.120824  0  0.111444  0.123071  0  1.006382  0
H  H23  1  0.59961454  0.22303875  0.79121991  1  0  0.117449  0  0.943799  0  0  0.126016  0  1.004314  0  0  0.12982  0  1.003289  0  0.119066  0  0.111716  0.123343  0  1.005197  0
H  H24  1  0.83921779  0.63684942  0.67786508  1  0  0.063309  0  0.986808  0  0  0.07354  0  1.052244  0  0  0.076482  0  1.048618  0  0.102933  0  0.095905  0.071146  0  1.055097  0
H  H25  1  0.15432781  0.36297394  0.32368885  1  0  0.063752  0  0.988609  0  0  0.073977  0  1.053841  0  0  0.076918  0  1.050213  0  0.107795  0  0.096028  0.071586  0  1.056679  0
H  H26  1  0.48117170  0.67752871  0.36532402  1  0  0.063516  0  0.988263  0  0  0.073937  0  1.053465  0  0  0.076874  0  1.049869  0  0.072077  0  0.096042  0.071554  0  1.056269  0
H  H27  1  0.52399529  0.32227137  0.63501947  1  0  0.063247  0  0.988898  0  0  0.07388  0  1.053789  0  0  0.076815  0  1.050196  0  0.111973  0  0.095959  0.071501  0  1.056607  0
H  H28  1  0.02775139  0.01556964  0.14794781  1  0  0.093432  0  0.96118  0  0  0.103648  0  1.023767  0  0  0.105567  0  1.024659  0  0.075388  0  0.100697  0.102263  0  1.023212  0
H  H29  1  0.19074755  0.98394788  0.85230840  1  0  0.093706  0  0.960852  0  0  0.103998  0  1.023255  0  0  0.105944  0  1.024109  0  0.078497  0  0.100612  0.102594  0  1.022728  0
H  H30  1  0.82335595  0.14802295  0.98495522  1  0  0.092506  0  0.962026  0  0  0.102429  0  1.025059  0  0  0.104317  0  1.026037  0  0.089564  0  0.099883  0.101066  0  1.024446  0
H  H31  1  0.95383300  0.85456836  0.01436033  1  0  0.093171  0  0.962275  0  0  0.103221  0  1.024842  0  0  0.105176  0  1.025682  0  0.031876  0  0.100583  0.101824  0  1.024273  0
H  H32  1  0.72300792  0.36784010  0.20578850  1  0  0.082679  0  0.990983  0  0  0.090248  0  1.058009  0  0  0.092211  0  1.058259  0  0.118959  0  0.088056  0.088689  0  1.05803  0
H  H33  1  0.29781497  0.63043673  0.79258022  1  0  0.082537  0  0.991286  0  0  0.090291  0  1.058244  0  0  0.092242  0  1.058457  0  0.068174  0  0.088086  0.088734  0  1.058307  0
H  H34  1  0.07268685  0.20700985  0.62959060  1  0  0.082329  0  0.992778  0  0  0.089744  0  1.060225  0  0  0.091705  0  1.060426  0  0.07514  0  0.088385  0.088186  0  1.060289  0
H  H35  1  0.90732174  0.79452408  0.36932206  1  0  0.081924  0  0.989752  0  0  0.089723  0  1.056859  0  0  0.091776  0  1.056944  0  0.082135  0  0.088268  0.088054  0  1.057025  0
H  H36  1  0.64992181  0.14652412  0.59717164  1  0  0.076572  0  1.014515  0  0  0.086392  0  1.082329  0  0  0.088254  0  1.081889  0  0.071174  0  0.09133  0.084924  0  1.082814  0
H  H37  1  0.39339017  0.85333288  0.40232464  1  0  0.075592  0  1.016281  0  0  0.085645  0  1.083936  0  0  0.087516  0  1.083476  0  0.052968  0  0.091172  0.08417  0  1.084445  0
H  H38  1  0.75451231  0.59706188  0.85139330  1  0  0.075679  0  1.01788  0  0  0.085641  0  1.085682  0  0  0.087585  0  1.085112  0  0.070358  0  0.090409  0.084184  0  1.086135  0
H  H39  1  0.20315901  0.40247648  0.14926756  1  0  0.075862  0  1.015892  0  0  0.08581  0  1.083747  0  0  0.087612  0  1.083376  0  0.061357  0  0.090645  0.084431  0  1.084118  0
H  H40  1  0.83455125  0.18532624  0.43865701  1  0  0.093038  0  0.936831  0  0  0.105804  0  0.990036  0  0  0.108905  0  0.988925  0  0.091335  0  0.103412  0.103499  0  0.991008  0
H  H41  1  0.45815360  0.81520569  0.56057920  1  0  0.092103  0  0.936983  0  0  0.105303  0  0.989795  0  0  0.108457  0  0.988671  0  0.09032  0  0.102853  0.102959  0  0.990794  0
H  H42  1  0.72801998  0.43901122  0.81278906  1  0  0.092007  0  0.938471  0  0  0.105049  0  0.99133  0  0  0.108214  0  0.990167  0  0.080267  0  0.102857  0.102676  0  0.992386  0
H  H43  1  0.98168652  0.55957946  0.18740809  1  0  0.092757  0  0.937621  0  0  0.105323  0  0.991097  0  0  0.108571  0  0.989833  0  0.061539  0  0.102854  0.102931  0  0.992176  0
H  H44  1  0.49938717  0.11431860  0.71693921  1  0  0.071284  0  0.956086  0  0  0.08002  0  1.025057  0  0  0.08349  0  1.021358  0  0.092017  0  0.112543  0.077307  0  1.028093  0
H  H45  1  0.33106746  0.88485195  0.28215153  1  0  0.072178  0  0.956116  0  0  0.080095  0  1.025837  0  0  0.083632  0  1.022081  0  0.092458  0  0.112589  0.077339  0  1.028918  0
H  H46  1  0.78595890  0.71714387  0.88371881  1  0  0.070862  0  0.95726  0  0  0.079026  0  1.027114  0  0  0.082548  0  1.023386  0  0.085684  0  0.112049  0.076266  0  1.030222  0
H  H47  1  0.38652816  0.28175031  0.11673047  1  0  0.0715  0  0.957417  0  0  0.079991  0  1.026642  0  0  0.083472  0  1.023024  0  0.084787  0  0.11221  0.077264  0  1.029677  0
H  H48  1  0.79353373  0.15666603  0.25237825  1  0  0.089199  0  0.972084  0  0  0.097818  0  1.036721  0  0  0.100207  0  1.037127  0  0.067147  0  0.090463  0.096023  0  1.03654  0
H  H49  1  0.20307470  0.84155720  0.74713478  1  0  0.08868  0  0.971463  0  0  0.097221  0  1.03649  0  0  0.099553  0  1.036915  0  0.06869  0  0.089748  0.095462  0  1.036319  0
H  H50  1  0.95463762  0.25245250  0.84260202  1  0  0.088946  0  0.972362  0  0  0.097315  0  1.037309  0  0  0.099649  0  1.037754  0  0.05795  0  0.089931  0.095536  0  1.037152  0
H  H51  1  0.04674260  0.74990658  0.15601883  1  0  0.089921  0  0.970658  0  0  0.098627  0  1.034982  0  0  0.100955  0  1.035484  0  0.090845  0  0.090952  0.096844  0  1.034793  0
C  C52  1  0.09118588  0.14694557  0.03770766  1  0  0.004107  0  3.7883  0  0  0.018603  0  4.02288  0  0  0.013306  0  4.047671  0  -0.063401  0  -0.012158  0.022211  0  4.006154  0
C  C53  1  0.27515741  0.85308884  0.96192703  1  0  0.006024  0  3.794501  0  0  0.021428  0  4.027753  0  0  0.016136  0  4.052476  0  -0.023043  0  -0.010909  0.025053  0  4.010976  0
C  C54  1  0.87088211  0.03860863  0.85222906  1  0  0.004993  0  3.790488  0  0  0.020172  0  4.02362  0  0  0.014957  0  4.048312  0  -0.004215  0  -0.011801  0.02372  0  4.006898  0
C  C55  1  0.76037215  0.96315782  0.14752906  1  0  0.003709  0  3.789308  0  0  0.01953  0  4.021611  0  0  0.014335  0  4.046283  0  0.017444  0  -0.011644  0.023062  0  4.00493  0
C  C56  1  0.91784245  0.34549052  0.06853005  1  0  -0.079728  0  3.775737  0  0  -0.088007  0  4.018239  0  0  -0.092271  0  4.042472  0  -0.066199  0  -0.095582  -0.085183  0  4.001991  0
C  C57  1  0.33209658  0.65381314  0.93019484  1  0  -0.079603  0  3.774198  0  0  -0.087846  0  4.016854  0  0  -0.09219  0  4.041134  0  -0.087538  0  -0.095585  -0.084969  0  4.000572  0
C  C58  1  0.01540010  0.06958889  0.65205457  1  0  -0.078307  0  3.77603  0  0  -0.086643  0  4.018125  0  0  -0.090935  0  4.0425  0  -0.040051  0  -0.095184  -0.083785  0  4.001793  0
C  C59  1  0.73598192  0.93122904  0.34754927  1  0  -0.079053  0  3.773371  0  0  -0.087581  0  4.015755  0  0  -0.091879  0  4.040097  0  -0.051462  0  -0.095702  -0.084736  0  3.999452  0
C  C60  1  0.22941083  0.06266956  0.97851692  1  0  0.166528  0  3.717265  0  0  0.157753  0  3.974187  0  0  0.169363  0  3.983948  0  0.656953  0  0.159956  0.149587  0  3.967942  0
C  C61  1  0.26985749  0.93774996  0.02144043  1  0  0.162741  0  3.721611  0  0  0.153165  0  3.979259  0  0  0.165003  0  3.988785  0  0.615588  0  0.158188  0.144975  0  3.973017  0
C  C62  1  0.79081367  0.97948419  0.93695316  1  0  0.164062  0  3.713965  0  0  0.155001  0  3.971071  0  0  0.166562  0  3.981041  0  0.648041  0  0.158968  0.146988  0  3.964525  0
C  C63  1  0.70637613  0.02225274  0.06285344  1  0  0.166115  0  3.714488  0  0  0.156749  0  3.971741  0  0  0.168312  0  3.981741  0  0.674431  0  0.158971  0.148666  0  3.965235  0
C  C64  1  0.04953852  0.26667306  0.00852769  1  0  -0.072682  0  3.700522  0  0  -0.09249  0  3.944565  0  0  -0.09306  0  3.966025  0  -0.022952  0  -0.080869  -0.092067  0  3.930202  0
C  C65  1  0.32432051  0.73331970  0.99063888  1  0  -0.073526  0  3.704419  0  0  -0.094219  0  3.948128  0  0  -0.094789  0  3.969563  0  -0.009915  0  -0.081675  -0.09377  0  3.933822  0
C  C66  1  0.94302371  0.00950593  0.73152170  1  0  -0.073912  0  3.702024  0  0  -0.094258  0  3.945784  0  0  -0.094848  0  3.967266  0  -0.020052  0  -0.081434  -0.093818  0  3.931422  0
C  C67  1  0.68320359  0.99142428  0.26841978  1  0  -0.073484  0  3.700354  0  0  -0.093772  0  3.943981  0  0  -0.094314  0  3.965374  0  -0.052242  0  -0.081181  -0.09339  0  3.929698  0
C  C68  1  0.76611836  0.95944057  0.60082498  1  0  -0.011326  0  3.726678  0  0  0.003451  0  3.949842  0  0  -0.000429  0  3.973927  0  -0.035674  0  0.003383  0.005901  0  3.93366  0
C  C69  1  0.32638350  0.04068088  0.39948061  1  0  -0.012688  0  3.729578  0  0  0.002797  0  3.951195  0  0  -0.001036  0  3.975136  0  -0.014915  0  0.002764  0.005188  0  3.935128  0
C  C70  1  0.63386854  0.60027333  0.04016026  1  0  -0.009978  0  3.726189  0  0  0.004712  0  3.949664  0  0  0.000825  0  3.973798  0  -0.029507  0  0.00345  0.007157  0  3.933465  0
C  C71  1  0.27501747  0.39849442  0.96040628  1  0  -0.013652  0  3.724674  0  0  0.000772  0  3.948507  0  0  -0.003086  0  3.972531  0  -0.004233  0  0.002911  0.003206  0  3.93237  0
C  C72  1  0.89622579  0.86496964  0.54848105  1  0  0.195342  0  3.721983  0  0  0.194746  0  3.955209  0  0  0.200831  0  3.976476  0  0.422614  0  0.109159  0.190715  0  3.941234  0
C  C73  1  0.30961176  0.13556802  0.45216219  1  0  0.19564  0  3.722214  0  0  0.195115  0  3.954668  0  0  0.201208  0  3.975987  0  0.411807  0  0.109306  0.191114  0  3.940673  0
C  C74  1  0.55530991  0.54796015  0.13566188  1  0  0.193813  0  3.723751  0  0  0.193675  0  3.956308  0  0  0.199738  0  3.97778  0  0.450877  0  0.108313  0.189676  0  3.942186  0
C  C75  1  0.24021587  0.45055758  0.86485793  1  0  0.196499  0  3.721066  0  0  0.196681  0  3.953588  0  0  0.202781  0  3.974915  0  0.439506  0  0.109357  0.192651  0  3.939596  0
C  C76  1  0.00089909  0.88988785  0.45665304  1  0  -0.13869  0  3.713504  0  0  -0.157201  0  3.960357  0  0  -0.161544  0  3.979636  0  -0.016977  0  -0.089652  -0.15466  0  3.948095  0
C  C77  1  0.34712157  0.11104888  0.54390115  1  0  -0.136924  0  3.713044  0  0  -0.155945  0  3.960318  0  0  -0.160216  0  3.979538  0  -0.037043  0  -0.090129  -0.153492  0  3.948025  0
C  C78  1  0.54214315  0.45648129  0.11089871  1  0  -0.137457  0  3.718176  0  0  -0.156356  0  3.964749  0  0  -0.160761  0  3.983993  0  -0.119616  0  -0.090386  -0.153796  0  3.952508  0
C  C79  1  0.11177934  0.54160515  0.88940335  1  0  -0.14066  0  3.716776  0  0  -0.159373  0  3.963517  0  0  -0.163677  0  3.98277  0  -0.031955  0  -0.091096  -0.156907  0  3.951259  0
C  C80  1  0.97835240  0.00308249  0.41797298  1  0  -0.041367  0  3.748668  0  0  -0.053468  0  3.993107  0  0  -0.053472  0  4.013594  0  -0.017943  0  -0.083468  -0.053277  0  3.979267  0
C  C81  1  0.39903954  0.99783735  0.58201170  1  0  -0.042569  0  3.749551  0  0  -0.05454  0  3.994473  0  0  -0.054479  0  4.014875  0  -0.01137  0  -0.083694  -0.054394  0  3.980701  0
C  C82  1  0.60379697  0.41808306  0.99681358  1  0  -0.042341  0  3.751046  0  0  -0.054638  0  3.99624  0  0  -0.054492  0  4.01672  0  0.037406  0  -0.084167  -0.054535  0  3.982377  0
C  C83  1  0.02100999  0.58001378  0.00338269  1  0  -0.040018  0  3.745623  0  0  -0.051997  0  3.990446  0  0  -0.051811  0  4.010821  0  -0.08902  0  -0.083169  -0.051921  0  3.976698  0
C  C84  1  0.65978043  0.93287922  0.68984069  1  0  0.06687  0  3.750509  0  0  0.072966  0  3.989446  0  0  0.078152  0  4.007929  0  -0.071466  0  0.013067  0.069517  0  3.977155  0
C  C85  1  0.28262240  0.06677562  0.31072144  1  0  0.068068  0  3.752599  0  0  0.074732  0  3.989965  0  0  0.080079  0  4.008258  0  -0.030617  0  0.013645  0.07121  0  3.977767  0
C  C86  1  0.65115424  0.68919275  0.06665489  1  0  0.068439  0  3.751474  0  0  0.074232  0  3.990971  0  0  0.07948  0  4.009469  0  -0.042276  0  0.013353  0.070744  0  3.97869  0
C  C87  1  0.40697602  0.31009483  0.93381379  1  0  0.068267  0  3.744957  0  0  0.074717  0  3.983897  0  0  0.080012  0  4.002243  0  0.010915  0  0.013791  0.071193  0  3.971704  0
C  C88  1  0.68699172  0.81552142  0.71432704  1  0  -0.150434  0  3.711225  0  0  -0.171445  0  3.961957  0  0  -0.1788  0  3.980462  0  -0.011065  0  -0.081768  -0.166919  0  3.949964  0
C  C89  1  0.21703606  0.18396482  0.28672614  1  0  -0.152425  0  3.712155  0  0  -0.173651  0  3.963601  0  0  -0.181048  0  3.981919  0  -0.051546  0  -0.082752  -0.169121  0  3.951721  0
C  C90  1  0.59858461  0.71371580  0.18493962  1  0  -0.1531  0  3.714566  0  0  -0.173956  0  3.966066  0  0  -0.181315  0  3.9844  0  0.01507  0  -0.08266  -0.169445  0  3.954172  0
C  C91  1  0.49682905  0.28612273  0.81542944  1  0  -0.151518  0  3.710718  0  0  -0.17301  0  3.962431  0  0  -0.180383  0  3.980756  0  -0.085123  0  -0.082295  -0.1685  0  3.950569  0
C  C92  1  0.81636715  0.72917150  0.65870886  1  0  0.127546  0  3.719702  0  0  0.096532  0  3.972558  0  0  0.105815  0  3.986232  0  0.482654  0  0.038216  0.090324  0  3.964114  0
C  C93  1  0.20438494  0.27075029  0.34255502  1  0  0.126773  0  3.723787  0  0  0.095866  0  3.976209  0  0  0.105277  0  3.989878  0  0.462421  0  0.03785  0.089615  0  3.967741  0
C  C94  1  0.52406012  0.65819710  0.27226795  1  0  0.126578  0  3.722622  0  0  0.095627  0  3.974632  0  0  0.104989  0  3.988411  0  0.500854  0  0.036579  0.089395  0  3.966064  0
C  C95  1  0.45467852  0.34134681  0.72810199  1  0  0.126574  0  3.719369  0  0  0.095948  0  3.971595  0  0  0.105336  0  3.985356  0  0.477764  0  0.037106  0.089658  0  3.963115  0
C  C96  1  0.99738241  0.10816038  0.12563107  1  0  -0.087204  0  3.710801  0  0  -0.109489  0  3.956547  0  0  -0.110877  0  3.979459  0  -0.029595  0  -0.084855  -0.108364  0  3.940925  0
C  C97  1  0.23076180  0.89132463  0.87419845  1  0  -0.089219  0  3.714215  0  0  -0.111784  0  3.959676  0  0  -0.113174  0  3.982548  0  -0.058583  0  -0.085681  -0.110676  0  3.944092  0
C  C98  1  0.87670458  0.12606009  0.89150949  1  0  -0.085797  0  3.712688  0  0  -0.107817  0  3.957505  0  0  -0.109204  0  3.980343  0  -0.137246  0  -0.084522  -0.106708  0  3.941947  0
C  C99  1  0.89213502  0.87613011  0.10788276  1  0  -0.086558  0  3.711582  0  0  -0.10912  0  3.956635  0  0  -0.11052  0  3.97946  0  -0.07717  0  -0.084768  -0.107992  0  3.941096  0
C  C100  1  0.82588428  0.30633642  0.15734211  1  0  -0.051871  0  3.742018  0  0  -0.06469  0  3.980795  0  0  -0.065574  0  4.003053  0  -0.075675  0  -0.088041  -0.064147  0  3.966059  0
C  C101  1  0.29012273  0.69241821  0.84149209  1  0  -0.052742  0  3.739184  0  0  -0.065783  0  3.977891  0  0  -0.066718  0  4.000344  0  -0.083572  0  -0.088408  -0.065196  0  3.963029  0
C  C102  1  0.01808820  0.15824358  0.69159154  1  0  -0.052681  0  3.743307  0  0  -0.065513  0  3.982215  0  0  -0.06642  0  4.004631  0  -0.065901  0  -0.088949  -0.064957  0  3.967385  0
C  C103  1  0.86612785  0.84317313  0.30756709  1  0  -0.050905  0  3.740069  0  0  -0.064058  0  3.978919  0  0  -0.064948  0  4.001168  0  -0.071131  0  -0.087585  -0.063473  0  3.964239  0
C  C104  1  0.74809248  0.07460844  0.55998324  1  0  -0.108425  0  3.764781  0  0  -0.129785  0  4.013114  0  0  -0.132384  0  4.036575  0  -0.076384  0  -0.092563  -0.127841  0  3.997312  0
C  C105  1  0.38256215  0.92553696  0.43975195  1  0  -0.106476  0  3.762989  0  0  -0.128427  0  4.010931  0  0  -0.131009  0  4.034392  0  0.00334  0  -0.092392  -0.126503  0  3.995146  0
C  C106  1  0.69303901  0.55978921  0.92410212  1  0  -0.109593  0  3.766382  0  0  -0.131039  0  4.014481  0  0  -0.133649  0  4.037876  0  -0.061203  0  -0.093412  -0.129116  0  3.998691  0
C  C107  1  0.17776791  0.43915752  0.07636744  1  0  -0.106495  0  3.761027  0  0  -0.12788  0  4.009301  0  0  -0.130462  0  4.03287  0  -0.047694  0  -0.092906  -0.125997  0  3.993425  0
C  C108  1  0.85148994  0.09630770  0.47051086  1  0  -0.05685  0  3.771861  0  0  -0.070411  0  4.020995  0  0  -0.072356  0  4.041591  0  -0.023973  0  -0.085496  -0.069264  0  4.007227  0
C  C109  1  0.41806006  0.90421562  0.52906564  1  0  -0.056172  0  3.769139  0  0  -0.070038  0  4.018295  0  0  -0.07206  0  4.038941  0  -0.0798  0  -0.085323  -0.068844  0  4.004525  0
C  C110  1  0.67882131  0.47063308  0.90253033  1  0  -0.055182  0  3.773085  0  0  -0.068851  0  4.021768  0  0  -0.070837  0  4.042373  0  -0.046286  0  -0.085059  -0.067674  0  4.00805  0
C  C111  1  0.05369243  0.52791362  0.09772060  1  0  -0.058242  0  3.769412  0  0  -0.071803  0  4.01877  0  0  -0.073847  0  4.039329  0  -0.010857  0  -0.08597  -0.070625  0  4.005096  0
C  C112  1  0.52685376  0.02442010  0.75045047  1  0  0.078229  0  3.656533  0  0  0.047721  0  3.917762  0  0  0.053322  0  3.927063  0  0.625032  0  0.070425  0.043536  0  3.912057  0
C  C113  1  0.30177064  0.97509724  0.24962237  1  0  0.076857  0  3.655733  0  0  0.046691  0  3.916842  0  0  0.052208  0  3.926117  0  0.62969  0  0.069976  0.042538  0  3.911166  0
C  C114  1  0.72386621  0.75024627  0.97444571  1  0  0.078256  0  3.657013  0  0  0.048107  0  3.918967  0  0  0.053633  0  3.928381  0  0.58896  0  0.070616  0.043937  0  3.913229  0
C  C115  1  0.44838621  0.24918237  0.02581051  1  0  0.07878  0  3.653587  0  0  0.048454  0  3.914895  0  0  0.054067  0  3.924164  0  0.639103  0  0.070835  0.044205  0  3.909289  0
C  C116  1  0.86558453  0.18740768  0.18465133  1  0  -0.077843  0  3.778149  0  0  -0.085675  0  4.020541  0  0  -0.089454  0  4.042994  0  -0.031685  0  -0.095382  -0.083209  0  4.005613  0
C  C117  1  0.23781213  0.81138258  0.81479469  1  0  -0.076026  0  3.772875  0  0  -0.083677  0  4.015407  0  0  -0.087418  0  4.037896  0  0.008785  0  -0.095319  -0.081262  0  4.000475  0
C  C118  1  0.95030547  0.18506611  0.81159362  1  0  -0.07865  0  3.777908  0  0  -0.086393  0  4.020468  0  0  -0.090136  0  4.042965  0  0.014295  0  -0.095784  -0.083971  0  4.005508  0
C  C119  1  0.94462623  0.81695058  0.18742572  1  0  -0.079046  0  3.776007  0  0  -0.087144  0  4.018967  0  0  -0.090857  0  4.041428  0  -0.034931  0  -0.095503  -0.084722  0  4.00404  0
I  I120  1  0.18664641  0.56467767  0.31266624  1  0  -0.320916  0  1.556659  0  0  -0.279894  0  1.956056  0  0  -0.294166  0  1.920794  0  -0.403754  0  -0.153369  -0.267754  0  1.978145  0
I  I121  1  0.06276059  0.43693105  0.68791616  1  0  -0.319875  0  1.56657  0  0  -0.278649  0  1.968103  0  0  -0.292984  0  1.932626  0  -0.406885  0  -0.151947  -0.266519  0  1.990356  0
I  I122  1  0.49996584  0.31344047  0.43460960  1  0  -0.317317  0  1.56137  0  0  -0.277033  0  1.962095  0  0  -0.291274  0  1.926712  0  -0.402931  0  -0.15081  -0.264954  0  1.98429  0
I  I123  1  0.24678865  0.68786179  0.56573566  1  0  -0.318093  0  1.569389  0  0  -0.277364  0  1.971828  0  0  -0.291511  0  1.936102  0  -0.401875  0  -0.150322  -0.265368  0  1.994211  0
N  N124  1  0.31573784  0.09355110  0.88811886  1  0  -0.240216  0  2.963388  0  0  -0.222993  0  3.253186  0  0  -0.233305  0  3.266236  0  -0.751453  0  -0.21232  -0.216124  0  3.244653  0
N  N125  1  0.29635824  0.90669269  0.11177942  1  0  -0.23819  0  2.967307  0  0  -0.220698  0  3.257079  0  0  -0.231029  0  3.269901  0  -0.72595  0  -0.211069  -0.213864  0  3.248658  0
N  N126  1  0.79592528  0.88906718  0.90551541  1  0  -0.238852  0  2.960676  0  0  -0.221388  0  3.250474  0  0  -0.231609  0  3.263455  0  -0.731308  0  -0.211519  -0.214618  0  3.241938  0
N  N127  1  0.59009265  0.11187433  0.09434849  1  0  -0.239778  0  2.961114  0  0  -0.222379  0  3.251108  0  0  -0.232635  0  3.264156  0  -0.754758  0  -0.21204  -0.215572  0  3.242571  0
N  N128  1  0.92032676  0.75050570  0.58193324  1  0  -0.29069  0  3.282803  0  0  -0.222714  0  3.562303  0  0  -0.236536  0  3.571903  0  -1.194474  0  -0.348712  -0.214568  0  3.556383  0
N  N129  1  0.25275876  0.24993260  0.41914198  1  0  -0.289443  0  3.289463  0  0  -0.221072  0  3.568221  0  0  -0.235153  0  3.578126  0  -1.194299  0  -0.349779  -0.212823  0  3.562143  0
N  N130  1  0.49696522  0.58144088  0.25096064  1  0  -0.287392  0  3.290889  0  0  -0.218913  0  3.569027  0  0  -0.233055  0  3.579124  0  -1.206851  0  -0.34949  -0.210568  0  3.562765  0
N  N131  1  0.33027979  0.41754751  0.74945867  1  0  -0.288426  0  3.287637  0  0  -0.221016  0  3.567204  0  0  -0.235097  0  3.577088  0  -1.205214  0  -0.350043  -0.212765  0  3.561162  0
N  N132  1  0.43912071  0.99942436  0.84373135  1  0  -0.169318  0  3.069166  0  0  -0.140883  0  3.358792  0  0  -0.146241  0  3.37396  0  -0.755314  0  -0.199943  -0.137078  0  3.348575  0
N  N133  1  0.28159270  0.00068562  0.15686252  1  0  -0.170135  0  3.071971  0  0  -0.141788  0  3.361856  0  0  -0.147063  0  3.376953  0  -0.754449  0  -0.200955  -0.138029  0  3.351698  0
N  N134  1  0.71678702  0.84374363  0.00007229  1  0  -0.169846  0  3.069308  0  0  -0.141463  0  3.359294  0  0  -0.146774  0  3.374461  0  -0.750759  0  -0.20054  -0.137673  0  3.34908  0
N  N135  1  0.56042162  0.15680970  0.99984098  1  0  -0.169889  0  3.065518  0  0  -0.141745  0  3.355679  0  0  -0.147018  0  3.370657  0  -0.761134  0  -0.200082  -0.138025  0  3.345646  0
