# generated using pymatgen
data_ZnH11C14S(NO2)2
_symmetry_space_group_name_H-M   'P 1'
_cell_length_a   10.92383637
_cell_length_b   10.94928854
_cell_length_c   14.71100000
_cell_angle_alpha   90.53423795
_cell_angle_beta   90.53548274
_cell_angle_gamma   98.75923229
_symmetry_Int_Tables_number   1
_chemical_formula_structural   ZnH11C14S(NO2)2
_chemical_formula_sum   'Zn4 H44 C56 S4 N8 O16'
_cell_volume   1738.85625708
_cell_formula_units_Z   4
loop_
 _symmetry_equiv_pos_site_id
 _symmetry_equiv_pos_as_xyz
  1  'x, y, z'
loop_
 _atom_site_type_symbol
 _atom_site_label
 _atom_site_symmetry_multiplicity
 _atom_site_fract_x
 _atom_site_fract_y
 _atom_site_fract_z
 _atom_site_occupancy
 _atom_site_pbe_bader_charge
 _atom_site_pbe_bader_spin_density
 _atom_site_pbe_cm5_charge
 _atom_site_pbe_ddec_charge
 _atom_site_pbe_ddec_spin_density
 _atom_site_pbe_ddec_sum_bond_order
 _atom_site_pbe_magmom
Zn  Zn0  1  0.54533442  0.87397619  0.49627559  1  1.313822  0  0.679545  0.870821  0  2.388024  0
Zn  Zn1  1  0.12595553  0.45506553  0.00363997  1  1.312884  0  0.679184  0.86954  0  2.389124  0
Zn  Zn2  1  0.45466511  0.12602409  0.50372400  1  1.313919  0  0.679568  0.870867  0  2.387974  0
Zn  Zn3  1  0.87404476  0.54493382  0.99636030  1  1.312998  0  0.679218  0.869582  0  2.389036  0
H  H4  1  0.70057424  0.34863307  0.46060334  1  0.12533  0  0.116166  0.116548  0  0.993219  0
H  H5  1  0.65167789  0.29888974  0.03935935  1  0.127167  0  0.115592  0.1164  0  0.993937  0
H  H6  1  0.29942619  0.65136721  0.53939626  1  0.125332  0  0.116162  0.116534  0  0.99321  0
H  H7  1  0.34832072  0.70111054  0.96063956  1  0.127166  0  0.115565  0.116342  0  0.993917  0
H  H8  1  0.70081623  0.40198515  0.57342106  1  0.06728  0  0.109374  0.092941  0  1.008359  0
H  H9  1  0.59809569  0.29871138  0.92659417  1  0.095605  0  0.109328  0.093221  0  1.008386  0
H  H10  1  0.29918223  0.59801421  0.42657852  1  0.067277  0  0.109368  0.092922  0  1.008378  0
H  H11  1  0.40190369  0.70128798  0.07340541  1  0.095601  0  0.109334  0.093191  0  1.008431  0
H  H12  1  0.86884666  0.99436029  0.31222069  1  0.094135  0  0.111491  0.127721  0  0.99655  0
H  H13  1  0.00599651  0.13134156  0.18751826  1  0.094009  0  0.111236  0.127603  0  0.99586  0
H  H14  1  0.13115272  0.00563906  0.68777958  1  0.094151  0  0.111476  0.127706  0  0.996563  0
H  H15  1  0.99400301  0.86865873  0.81248201  1  0.093996  0  0.111226  0.127586  0  0.995871  0
H  H16  1  0.88942661  0.97452839  0.68576269  1  0.112155  0  0.111191  0.126627  0  0.999304  0
H  H17  1  0.02583123  0.11077219  0.81450725  1  0.109093  0  0.111321  0.126979  0  0.999469  0
H  H18  1  0.11057186  0.02547097  0.31423621  1  0.111896  0  0.111179  0.126612  0  0.999329  0
H  H19  1  0.97416815  0.88922717  0.18549234  1  0.109096  0  0.111301  0.126928  0  0.999502  0
H  H20  1  0.09505280  0.66669673  0.39800411  1  0.072289  0  0.091746  0.091682  0  1.049969  0
H  H21  1  0.33314187  0.90513428  0.10213501  1  0.071216  0  0.091838  0.091535  0  1.050663  0
H  H22  1  0.90494595  0.33330447  0.60199684  1  0.07228  0  0.091757  0.091691  0  1.050003  0
H  H23  1  0.66685765  0.09486600  0.89786458  1  0.071227  0  0.091822  0.091496  0  1.050629  0
H  H24  1  0.52998617  0.69228599  0.33026064  1  0.119105  0  0.116925  0.113755  0  1.018226  0
H  H25  1  0.30775487  0.47009749  0.16961203  1  0.120827  0  0.117026  0.114132  0  1.017867  0
H  H26  1  0.47001335  0.30771429  0.66973896  1  0.119128  0  0.116944  0.113796  0  1.018183  0
H  H27  1  0.69224373  0.52990279  0.83038756  1  0.120873  0  0.117014  0.114101  0  1.017821  0
H  H28  1  0.62145048  0.46605163  0.33679187  1  0.126478  0  0.117832  0.11675  0  1.03633  0
H  H29  1  0.53421607  0.37830793  0.16323577  1  0.127198  0  0.117975  0.116871  0  1.036957  0
H  H30  1  0.37854876  0.53394680  0.66320702  1  0.126491  0  0.117839  0.116747  0  1.03634  0
H  H31  1  0.46578253  0.62169236  0.83676450  1  0.127201  0  0.117964  0.116858  0  1.036962  0
H  H32  1  0.67195489  0.57158768  0.65887334  1  0.069342  0  0.096474  0.134251  0  1.017432  0
H  H33  1  0.42859482  0.32806925  0.84116915  1  0.068017  0  0.096449  0.134076  0  1.017167  0
H  H34  1  0.32804463  0.42841260  0.34112557  1  0.069324  0  0.096483  0.134286  0  1.017415  0
H  H35  1  0.57140470  0.67193103  0.15883112  1  0.068015  0  0.096446  0.134073  0  1.01717  0
H  H36  1  0.63831380  0.72579785  0.64827645  1  0.091659  0  0.107992  0.167652  0  0.990625  0
H  H37  1  0.27397965  0.36153398  0.85169131  1  0.093765  0  0.107806  0.167512  0  0.990949  0
H  H38  1  0.36168558  0.27420151  0.35172313  1  0.091592  0  0.107979  0.16764  0  0.990643  0
H  H39  1  0.72602078  0.63846630  0.14830965  1  0.093743  0  0.107801  0.167505  0  0.990955  0
H  H40  1  0.78825821  0.69203925  0.62277456  1  0.082768  0  0.108057  0.162251  0  0.965407  0
H  H41  1  0.30788031  0.21196019  0.87720220  1  0.083525  0  0.107932  0.162084  0  0.965758  0
H  H42  1  0.21174131  0.30796103  0.37722503  1  0.082753  0  0.108041  0.16223  0  0.965424  0
H  H43  1  0.69211998  0.78803916  0.12279875  1  0.083532  0  0.107932  0.162079  0  0.965801  0
H  H44  1  0.86819043  0.61112304  0.40191599  1  0.071465  0  0.100537  0.103161  0  1.015035  0
H  H45  1  0.38868581  0.13144506  0.09817560  1  0.072156  0  0.100251  0.102893  0  1.014591  0
H  H46  1  0.13180881  0.38887539  0.59808359  1  0.071473  0  0.100542  0.103176  0  1.015026  0
H  H47  1  0.61131371  0.86855522  0.90182467  1  0.072168  0  0.100254  0.102888  0  1.014601  0
C  C48  1  0.76539314  0.11068255  0.69086944  1  -0.150141  0  -0.025126  -0.117647  0  3.991981  0
C  C49  1  0.88934101  0.23458298  0.80919949  1  -0.151967  0  -0.02526  -0.117868  0  3.992128  0
C  C50  1  0.23460744  0.88931866  0.30913017  1  -0.15014  0  -0.025154  -0.117724  0  3.992052  0
C  C51  1  0.11066048  0.76541822  0.19080012  1  -0.151989  0  -0.02524  -0.117898  0  3.992176  0
C  C52  1  0.86994535  0.46780102  0.50219585  1  0.00396  0  -0.016029  0.083806  0  3.978026  0
C  C53  1  0.53220368  0.12984908  0.99779011  1  0.004172  0  -0.016008  0.083465  0  3.97783  0
C  C54  1  0.13005312  0.53219834  0.49780508  1  0.00385  0  -0.015986  0.083859  0  3.977973  0
C  C55  1  0.46779753  0.87015028  0.00221085  1  0.004203  0  -0.016  0.083404  0  3.977885  0
C  C56  1  0.74529105  0.13089797  0.30722601  1  -0.193371  0  -0.026527  -0.117756  0  3.996482  0
C  C57  1  0.86915812  0.25468289  0.19271465  1  -0.190774  0  -0.026699  -0.118213  0  3.995641  0
C  C58  1  0.25470847  0.86910231  0.69277358  1  -0.19316  0  -0.026545  -0.117769  0  3.99656  0
C  C59  1  0.13084140  0.74531740  0.80728562  1  -0.190488  0  -0.026681  -0.118191  0  3.995598  0
C  C60  1  0.67108996  0.06524568  0.62114771  1  1.611008  0  0.205604  0.597898  0  4.23862  0
C  C61  1  0.93481567  0.32887972  0.87881335  1  1.60978  0  0.205492  0.598051  0  4.239375  0
C  C62  1  0.32890970  0.93475553  0.37885189  1  1.610997  0  0.205611  0.597897  0  4.238641  0
C  C63  1  0.06518125  0.67112149  0.12118623  1  1.609783  0  0.205447  0.59815  0  4.239268  0
C  C64  1  0.73076903  0.42974520  0.50455640  1  0.293986  0  -0.046832  -0.106594  0  3.875343  0
C  C65  1  0.57033442  0.26876298  0.99546021  1  0.2687  0  -0.046135  -0.106578  0  3.876084  0
C  C66  1  0.26923049  0.57025508  0.49544319  1  0.294164  0  -0.046822  -0.106556  0  3.875374  0
C  C67  1  0.42966538  0.73123915  0.00454076  1  0.268695  0  -0.0461  -0.106444  0  3.876043  0
C  C68  1  0.64787131  0.63104921  0.52274268  1  0.993047  0  0.225572  0.343692  0  3.928223  0
C  C69  1  0.36890204  0.35201078  0.97725168  1  0.995177  0  0.225593  0.34342  0  3.928844  0
C  C70  1  0.35212899  0.36895015  0.47725691  1  0.993041  0  0.225561  0.343705  0  3.92824  0
C  C71  1  0.63109825  0.64798858  0.02274927  1  0.995161  0  0.225558  0.343375  0  3.928864  0
C  C72  1  0.65204817  0.08537238  0.37537657  1  1.583816  0  0.207469  0.602329  0  4.233135  0
C  C73  1  0.91472163  0.34791317  0.12467303  1  1.586732  0  0.207484  0.602325  0  4.232099  0
C  C74  1  0.34795213  0.91462698  0.62462302  1  1.583817  0  0.207468  0.602257  0  4.233239  0
C  C75  1  0.08527437  0.65208803  0.87532790  1  1.586331  0  0.207508  0.602342  0  4.232136  0
C  C76  1  0.84855698  0.07974810  0.28241197  1  -0.01371  0  -0.096527  -0.112752  0  4.000788  0
C  C77  1  0.92045992  0.15159579  0.21738008  1  0.026009  0  -0.096752  -0.112883  0  3.999434  0
C  C78  1  0.15144423  0.92025125  0.71758830  1  -0.013811  0  -0.096484  -0.112706  0  4.00083  0
C  C79  1  0.07953960  0.84840449  0.78262019  1  0.026  0  -0.096763  -0.112886  0  3.999406  0
C  C80  1  0.86867963  0.05974523  0.71646147  1  -0.104827  0  -0.096093  -0.112987  0  4.001137  0
C  C81  1  0.94045655  0.13148110  0.78376428  1  -0.047398  0  -0.096716  -0.114334  0  4.002229  0
C  C82  1  0.13132003  0.94025597  0.28353744  1  -0.10458  0  -0.096103  -0.113  0  4.001142  0
C  C83  1  0.05954466  0.86851826  0.21623532  1  -0.047402  0  -0.096667  -0.114202  0  4.002263  0
C  C84  1  0.05379554  0.59357467  0.44318954  1  -0.012623  0  -0.0953  -0.125719  0  3.986305  0
C  C85  1  0.40634415  0.94627208  0.05687793  1  -0.014224  0  -0.095435  -0.125613  0  3.986538  0
C  C86  1  0.94620306  0.40642561  0.55681072  1  -0.012629  0  -0.09532  -0.125716  0  3.98633  0
C  C87  1  0.59365600  0.05372635  0.94312301  1  -0.0143  0  -0.095418  -0.12559  0  3.986497  0
C  C88  1  0.57368575  0.64872141  0.38502060  1  0.429137  0  -0.00679  -0.036293  0  4.025188  0
C  C89  1  0.35136615  0.42632036  0.11491235  1  0.429699  0  -0.006864  -0.036692  0  4.026455  0
C  C90  1  0.42631391  0.35127979  0.61497832  1  0.429168  0  -0.006914  -0.036485  0  4.025137  0
C  C91  1  0.64863415  0.57367900  0.88508860  1  0.429672  0  -0.00686  -0.036643  0  4.026365  0
C  C92  1  0.61765198  0.53805273  0.38723732  1  0.253457  0  -0.002771  -0.113064  0  3.964197  0
C  C93  1  0.46206397  0.38203403  0.11278470  1  0.250699  0  -0.003625  -0.113879  0  3.966025  0
C  C94  1  0.38234754  0.46194756  0.61276295  1  0.253426  0  -0.002712  -0.112944  0  3.96409  0
C  C95  1  0.53793541  0.61796532  0.88721557  1  0.25072  0  -0.003626  -0.113901  0  3.966045  0
C  C96  1  0.68859684  0.65621059  0.61850276  1  -0.068897  0  -0.227044  -0.468374  0  3.946497  0
C  C97  1  0.34372975  0.31139973  0.88148824  1  -0.070451  0  -0.226983  -0.468015  0  3.947243  0
C  C98  1  0.31140177  0.34378969  0.38149683  1  -0.068818  0  -0.227043  -0.468401  0  3.946537  0
C  C99  1  0.65627055  0.68859962  0.11851203  1  -0.070455  0  -0.226957  -0.467986  0  3.947333  0
C  C100  1  0.92530875  0.56186303  0.44536798  1  -0.125596  0  -0.095953  -0.136518  0  3.998963  0
C  C101  1  0.43805464  0.07450087  0.05467187  1  -0.126566  0  -0.095905  -0.136242  0  3.999028  0
C  C102  1  0.07469077  0.43813726  0.55463161  1  -0.125595  0  -0.095935  -0.136516  0  3.998965  0
C  C103  1  0.56194579  0.92549941  0.94532909  1  -0.126587  0  -0.095881  -0.136168  0  3.99907  0
S  S104  1  0.73500737  0.26483819  0.25005209  1  0.233983  0  0.095843  0.140906  0  2.963252  0
S  S105  1  0.26499201  0.73516117  0.74994818  1  0.233877  0  0.095835  0.140896  0  2.963219  0
S  S106  1  0.75492181  0.24489262  0.74995398  1  0.236845  0  0.098574  0.137547  0  2.968423  0
S  S107  1  0.24507877  0.75510859  0.25004494  1  0.236871  0  0.098571  0.137547  0  2.96842  0
N  N108  1  0.66348718  0.52766824  0.47437954  1  -1.221366  0  -0.239291  -0.010719  0  3.739135  0
N  N109  1  0.47233072  0.33604268  0.02569971  1  -1.225776  0  -0.238616  -0.009732  0  3.739644  0
N  N110  1  0.33651128  0.47233112  0.52561936  1  -1.221514  0  -0.239289  -0.010773  0  3.739139  0
N  N111  1  0.52766852  0.66395575  0.97430122  1  -1.225742  0  -0.238584  -0.009695  0  3.739592  0
N  N112  1  0.59246341  0.70529317  0.46952488  1  -1.229334  0  -0.352217  -0.330863  0  3.488371  0
N  N113  1  0.29472638  0.40768798  0.03038821  1  -1.229223  0  -0.353027  -0.330694  0  3.49033  0
N  N114  1  0.40753702  0.29470711  0.53047335  1  -1.229359  0  -0.352165  -0.330782  0  3.488271  0
N  N115  1  0.70527391  0.59231138  0.96961206  1  -1.229247  0  -0.35303  -0.330719  0  3.490327  0
O  O116  1  0.60031388  0.14183786  0.59680836  1  -1.179513  0  -0.320593  -0.56434  0  2.354521  0
O  O117  1  0.85805854  0.39957224  0.90307281  1  -1.177985  0  -0.320741  -0.564754  0  2.352768  0
O  O118  1  0.39968578  0.85816334  0.40319192  1  -1.179486  0  -0.320602  -0.564304  0  2.354474  0
O  O119  1  0.14194541  0.60042712  0.09692681  1  -1.177978  0  -0.320734  -0.56483  0  2.352595  0
O  O120  1  0.67012782  0.95530087  0.59247252  1  -1.16327  0  -0.314397  -0.532737  0  2.311053  0
O  O121  1  0.04500321  0.33002380  0.90753295  1  -1.164602  0  -0.313856  -0.532347  0  2.312474  0
O  O122  1  0.32987170  0.04469942  0.40752707  1  -1.163282  0  -0.314398  -0.532744  0  2.311111  0
O  O123  1  0.95500153  0.66997464  0.09246802  1  -1.164596  0  -0.313809  -0.532333  0  2.312598  0
O  O124  1  0.58134978  0.16180192  0.40139079  1  -1.172076  0  -0.326181  -0.569496  0  2.342463  0
O  O125  1  0.83812631  0.41852622  0.09874408  1  -1.171821  0  -0.325987  -0.569417  0  2.341061  0
O  O126  1  0.41864960  0.83819744  0.59860948  1  -1.172089  0  -0.326188  -0.569456  0  2.342443  0
O  O127  1  0.16187384  0.58147222  0.90125618  1  -1.171655  0  -0.325982  -0.569386  0  2.340893  0
O  O128  1  0.65188209  0.97549688  0.40164043  1  -1.162003  0  -0.314468  -0.534088  0  2.330334  0
O  O129  1  0.02483327  0.34824863  0.09834876  1  -1.164042  0  -0.314224  -0.533341  0  2.329611  0
O  O130  1  0.34811638  0.02450248  0.59835915  1  -1.161993  0  -0.314474  -0.534063  0  2.33038  0
O  O131  1  0.97516914  0.65175257  0.90165017  1  -1.164054  0  -0.314236  -0.533354  0  2.329805  0
