# generated using pymatgen
data_Lu2CuH16C24(N2O5)4
_symmetry_space_group_name_H-M   'P 1'
_cell_length_a   6.00348921
_cell_length_b   12.05024911
_cell_length_c   21.66313765
_cell_angle_alpha   89.99977614
_cell_angle_beta   90.00029467
_cell_angle_gamma   92.42866255
_symmetry_Int_Tables_number   1
_chemical_formula_structural   Lu2CuH16C24(N2O5)4
_chemical_formula_sum   'Lu4 Cu2 H32 C48 N16 O40'
_cell_volume   1565.78036028
_cell_formula_units_Z   2
loop_
 _symmetry_equiv_pos_site_id
 _symmetry_equiv_pos_as_xyz
  1  'x, y, z'
loop_
 _atom_site_type_symbol
 _atom_site_label
 _atom_site_symmetry_multiplicity
 _atom_site_fract_x
 _atom_site_fract_y
 _atom_site_fract_z
 _atom_site_occupancy
 _atom_site_pbe_bader_charge
 _atom_site_pbe_bader_spin_density
 _atom_site_pbe_cm5_charge
 _atom_site_pbe_ddec_charge
 _atom_site_pbe_ddec_spin_density
 _atom_site_pbe_ddec_sum_bond_order
 _atom_site_pbe_magmom
Lu  Lu0  1  0.02078502  0.56628974  0.65856040  1  2.185156  -7.5e-05  1.34982  1.615971  -9.8e-05  2.833325  0.0
Lu  Lu1  1  0.47923066  0.93371417  0.15855581  1  2.184981  -7.3e-05  1.349866  1.616197  -9.4e-05  2.833076  0.0
Lu  Lu2  1  0.97925536  0.43371939  0.34144226  1  2.184724  -7.5e-05  1.349854  1.616191  -9.8e-05  2.833203  0.0
Lu  Lu3  1  0.52076821  0.06629613  0.84144407  1  2.184914  -7.6e-05  1.349952  1.616238  -9.9e-05  2.83328  0.0
Cu  Cu4  1  0.50000191  0.99999239  0.49999806  1  1.085969  -0.5709  0.769967  0.773445  -0.730933  2.2901  -0.569
Cu  Cu5  1  0.99998266  0.50000190  0.00000374  1  1.085903  -0.570879  0.77003  0.773435  -0.730898  2.290139  -0.569
H  H6  1  0.60758281  0.58231527  0.59021772  1  0.675922  -9e-06  0.317797  0.411243  -8e-06  0.902571  0.0
H  H7  1  0.79096637  0.65103193  0.54691742  1  0.669048  -0.000317  0.307466  0.40616  -0.000355  0.918745  0.0
H  H8  1  0.88245993  0.34403492  0.63176657  1  0.671761  1e-06  0.306693  0.409247  5e-06  0.921993  0.0
H  H9  1  0.06517788  0.35464866  0.57852606  1  0.66635  3.6e-05  0.308984  0.416585  7.5e-05  0.895554  0.0
H  H10  1  0.37561970  0.89816812  0.70668161  1  0.16003  -1e-06  0.120266  0.0865  2e-06  1.05801  0.0
H  H11  1  0.53572585  0.73550346  0.65006797  1  0.164777  4e-06  0.129474  0.103007  3e-06  1.038588  0.0
H  H12  1  0.68392591  0.12758164  0.61168182  1  0.198764  -0.002371  0.131408  0.12822  -0.001126  1.009248  -0.002
H  H13  1  0.99804340  0.08684691  0.68485766  1  0.128385  -0.001196  0.12429  0.104359  -0.000651  0.988385  -0.001
H  H14  1  0.89241021  0.91768956  0.09021593  1  0.675962  -9e-06  0.317827  0.411337  -8e-06  0.902435  0.0
H  H15  1  0.70903734  0.84896749  0.04691705  1  0.669005  -0.000318  0.307428  0.406153  -0.000355  0.918779  0.0
H  H16  1  0.61753995  0.15596492  0.13176730  1  0.671588  1e-06  0.306698  0.40921  5e-06  0.922035  0.0
H  H17  1  0.43482319  0.14536264  0.07852201  1  0.666229  3.6e-05  0.309034  0.416665  7.5e-05  0.895482  0.0
H  H18  1  0.12438767  0.60183447  0.20668198  1  0.159807  -1e-06  0.120305  0.086577  2e-06  1.058001  0.0
H  H19  1  0.96425654  0.76449744  0.15006718  1  0.164736  4e-06  0.12947  0.103082  3e-06  1.038601  0.0
H  H20  1  0.81607825  0.37240676  0.11168659  1  0.198633  -0.002372  0.131444  0.128276  -0.001127  1.009179  -0.002
H  H21  1  0.50199189  0.41314206  0.18486444  1  0.128517  -0.001195  0.124229  0.104253  -0.000651  0.988424  -0.001
H  H22  1  0.39242302  0.41768334  0.40978032  1  0.675902  -9e-06  0.317839  0.411378  -8e-06  0.902424  0.0
H  H23  1  0.20905307  0.34896906  0.45307970  1  0.669044  -0.000318  0.307453  0.406193  -0.000355  0.918724  0.0
H  H24  1  0.11755080  0.65596281  0.36822778  1  0.671778  1e-06  0.306684  0.409222  5e-06  0.922015  0.0
H  H25  1  0.93481942  0.64536248  0.42147060  1  0.666285  3.6e-05  0.308992  0.416595  7.5e-05  0.895544  0.0
H  H26  1  0.62439691  0.10182292  0.29331597  1  0.159996  -1e-06  0.120288  0.086589  2e-06  1.057943  0.0
H  H27  1  0.46429457  0.26449171  0.34992822  1  0.164776  4e-06  0.129468  0.103077  3e-06  1.03861  0.0
H  H28  1  0.31605240  0.87242383  0.38831115  1  0.198549  -0.002369  0.131367  0.128248  -0.001126  1.009253  -0.002
H  H29  1  0.00193081  0.91315195  0.31513577  1  0.128678  -0.001194  0.124241  0.104234  -0.00065  0.988426  -0.001
H  H30  1  0.10760228  0.08230899  0.90978211  1  0.675999  -9e-06  0.317868  0.411335  -8e-06  0.902444  0.0
H  H31  1  0.29096545  0.15103363  0.95308330  1  0.66905  -0.000318  0.307426  0.40616  -0.000355  0.918753  0.0
H  H32  1  0.38246999  0.84404030  0.86823535  1  0.671546  1e-06  0.306564  0.408984  5e-06  0.922382  0.0
H  H33  1  0.56517696  0.85464432  0.92147511  1  0.666307  3.6e-05  0.309036  0.416608  7.5e-05  0.895524  0.0
H  H34  1  0.87561943  0.39816080  0.79331837  1  0.159929  -1e-06  0.120286  0.086571  2e-06  1.058099  0.0
H  H35  1  0.03574225  0.23549789  0.84993594  1  0.16463  4e-06  0.129456  0.103098  3e-06  1.03849  0.0
H  H36  1  0.18389352  0.62758547  0.88831791  1  0.198841  -0.002372  0.131369  0.128224  -0.001127  1.009106  -0.002
H  H37  1  0.49799651  0.58686416  0.81514145  1  0.128643  -0.001194  0.12423  0.104319  -0.00065  0.988213  -0.001
C  C38  1  0.13683859  0.73024678  0.77292401  1  1.632745  -1.4e-05  0.222907  0.568656  -1.1e-05  4.239274  0.0
C  C39  1  0.93639649  0.78943470  0.74996311  1  0.551391  2.3e-05  0.130086  0.051066  3.9e-05  3.923783  0.0
C  C40  1  0.86282508  0.88893662  0.77488538  1  0.496494  1e-05  0.139342  0.059721  1.4e-05  3.903486  0.0
C  C41  1  0.99978807  0.96962760  0.81448846  1  1.65086  -0.0  0.249296  0.600744  -2e-06  4.142803  0.0
C  C42  1  0.53960574  0.86818046  0.71820855  1  0.470461  3.6e-05  0.068081  0.075661  5.5e-05  3.870838  0.0
C  C43  1  0.62562921  0.77691900  0.68774093  1  0.536649  1e-06  0.068706  0.07561  4e-06  3.867359  0.0
C  C44  1  0.20778838  0.79065493  0.57653757  1  1.684022  -0.001369  0.229638  0.600035  -0.00097  4.228925  -0.001
C  C45  1  0.04240504  0.87956986  0.58775845  1  0.577431  -0.002911  0.13311  0.061197  -0.001933  3.949375  -0.002
C  C46  1  0.86438154  0.89922252  0.54819107  1  0.42989  3.3e-05  0.112707  0.024543  0.00119  3.928218  0.0
C  C47  1  0.79781330  0.83288650  0.49131136  1  1.638953  -0.001355  0.213307  0.559239  -0.001641  4.216144  -0.001
C  C48  1  0.78637955  0.05610018  0.60567884  1  0.487902  0.001149  0.062481  0.061978  0.001615  3.84763  0.001
C  C49  1  0.96255595  0.03301736  0.64529684  1  0.531926  -0.005991  0.067981  0.087452  -0.004064  3.901156  -0.005
C  C50  1  0.36317379  0.76975916  0.27292222  1  1.633086  -1.4e-05  0.222999  0.568682  -1.2e-05  4.239311  0.0
C  C51  1  0.56360539  0.71057404  0.24996119  1  0.551492  2.3e-05  0.129997  0.051054  3.9e-05  3.923683  0.0
C  C52  1  0.63716514  0.61106444  0.27488996  1  0.496362  1.2e-05  0.139338  0.059587  1.5e-05  3.903526  0.0
C  C53  1  0.50020920  0.53038708  0.31448548  1  1.651435  -1e-06  0.249193  0.600654  -2e-06  4.143217  0.0
C  C54  1  0.96040354  0.63182609  0.21820649  1  0.470607  3.6e-05  0.068032  0.075509  5.5e-05  3.87088  0.0
C  C55  1  0.87438232  0.72308455  0.18774202  1  0.536518  1e-06  0.068609  0.07546  4e-06  3.867516  0.0
C  C56  1  0.29222005  0.70933668  0.07654562  1  1.684318  -0.001371  0.229571  0.599936  -0.000971  4.228995  -0.001
C  C57  1  0.45760999  0.62040993  0.08776470  1  0.57791  -0.002909  0.132883  0.061097  -0.001933  3.949012  -0.002
C  C58  1  0.63563379  0.60077680  0.04819427  1  0.430661  3e-05  0.112797  0.024446  0.001188  3.928632  0.0
C  C59  1  0.70215041  0.66710147  0.99131956  1  1.638283  -0.001352  0.213357  0.559686  -0.001638  4.21685  -0.001
C  C60  1  0.71362206  0.44389330  0.10568392  1  0.487806  0.001152  0.062369  0.061759  0.001617  3.84756  0.001
C  C61  1  0.53743940  0.46696158  0.14530513  1  0.53146  -0.005992  0.068145  0.087716  -0.004064  3.901268  -0.005
C  C62  1  0.86317399  0.26975260  0.22707864  1  1.633276  -1.4e-05  0.223025  0.568867  -1.2e-05  4.239244  0.0
C  C63  1  0.06361385  0.21055971  0.25003909  1  0.55162  2.3e-05  0.130046  0.051103  3.9e-05  3.923954  0.0
C  C64  1  0.13719542  0.11107350  0.22510850  1  0.496169  1.2e-05  0.139366  0.059494  1.6e-05  3.9038  0.0
C  C65  1  0.00019925  0.03038362  0.18551282  1  1.651342  -1e-06  0.249287  0.600826  -3e-06  4.142825  0.0
C  C66  1  0.46041145  0.13181556  0.28178673  1  0.470189  3.6e-05  0.068071  0.075552  5.5e-05  3.870764  0.0
C  C67  1  0.37438602  0.22307454  0.31225895  1  0.537053  1e-06  0.068745  0.075474  4e-06  3.867601  0.0
C  C68  1  0.79220990  0.20935039  0.42346140  1  1.684136  -0.00137  0.229624  0.600151  -0.000971  4.228947  -0.001
C  C69  1  0.95758522  0.12042388  0.41223728  1  0.577878  -0.00291  0.133134  0.061089  -0.001933  3.948986  -0.002
C  C70  1  0.13561303  0.10077950  0.45180512  1  0.429862  3e-05  0.112815  0.024592  0.001187  3.928229  0.0
C  C71  1  0.20216679  0.16710566  0.50868206  1  1.638593  -0.001351  0.213283  0.559538  -0.001636  4.217062  -0.001
C  C72  1  0.21360376  0.94390525  0.39431366  1  0.487935  0.001151  0.062451  0.061861  0.001617  3.847631  0.001
C  C73  1  0.03741591  0.96697570  0.35469612  1  0.531645  -0.005989  0.068143  0.087588  -0.004062  3.900914  -0.005
C  C74  1  0.63686130  0.23024753  0.72708182  1  1.632922  -1.4e-05  0.222792  0.568551  -1.1e-05  4.239521  0.0
C  C75  1  0.43642384  0.28942521  0.75004192  1  0.551738  2.3e-05  0.130059  0.051178  3.9e-05  3.923506  0.0
C  C76  1  0.36284568  0.38893412  0.72511408  1  0.496022  1.1e-05  0.139317  0.059475  1.5e-05  3.903568  0.0
C  C77  1  0.49981827  0.46961135  0.68551948  1  1.651324  -1e-06  0.249139  0.600646  -3e-06  4.143268  0.0
C  C78  1  0.03959906  0.36817337  0.78179571  1  0.470184  3.6e-05  0.068073  0.075532  5.5e-05  3.87073  0.0
C  C79  1  0.12562547  0.27691653  0.81226156  1  0.53651  1e-06  0.068539  0.075377  5e-06  3.867161  0.0
C  C80  1  0.70776405  0.29066126  0.92346303  1  1.684066  -0.001372  0.229713  0.600155  -0.000972  4.227935  -0.001
C  C81  1  0.54234394  0.37960072  0.91223842  1  0.578211  -0.002909  0.132799  0.060891  -0.001933  3.948788  -0.002
C  C82  1  0.36435863  0.39922108  0.95181069  1  0.430024  2.7e-05  0.112834  0.024657  0.001184  3.928927  0.0
C  C83  1  0.29783330  0.33289315  0.00868125  1  1.638489  -0.001351  0.213356  0.559604  -0.001637  4.217001  -0.001
C  C84  1  0.28636254  0.55609467  0.89432058  1  0.487747  0.001153  0.062519  0.061882  0.00162  3.8475  0.001
C  C85  1  0.46254079  0.53303141  0.85469568  1  0.531574  -0.00599  0.06811  0.087542  -0.004063  3.90119  -0.005
N  N86  1  0.81793098  0.73502795  0.70575224  1  -1.213919  -2.2e-05  -0.312895  -0.23971  -9e-06  3.434452  0.0
N  N87  1  0.65636856  0.92211610  0.76231647  1  -1.193355  2e-06  -0.314741  -0.227788  5e-06  3.436125  0.0
N  N88  1  0.08833942  0.94563500  0.63678560  1  -1.166997  0.002485  -0.285406  -0.232305  0.003073  3.305648  0.002
N  N89  1  0.74096736  0.98825060  0.55835405  1  -1.203082  -0.075549  -0.344862  -0.205534  -0.050183  3.697856  -0.065
N  N90  1  0.68207546  0.76497960  0.20575043  1  -1.214001  -2.2e-05  -0.312806  -0.239617  -1e-05  3.434315  0.0
N  N91  1  0.84362089  0.57788927  0.26231432  1  -1.193045  1e-06  -0.314702  -0.227653  4e-06  3.435981  0.0
N  N92  1  0.41167775  0.55434753  0.13679260  1  -1.166956  0.002483  -0.285279  -0.232221  0.003071  3.306082  0.002
N  N93  1  0.75901818  0.51173886  0.05835660  1  -1.203186  -0.075548  -0.344869  -0.205382  -0.050183  3.698009  -0.065
N  N94  1  0.18210334  0.26497209  0.29424349  1  -1.214048  -2.2e-05  -0.312916  -0.239588  -9e-06  3.434574  0.0
N  N95  1  0.34363766  0.07788583  0.23768480  1  -1.193465  -0.0  -0.314855  -0.227743  3e-06  3.436326  0.0
N  N96  1  0.91164135  0.05436297  0.36320690  1  -1.167407  0.002485  -0.285464  -0.232175  0.003073  3.305389  0.002
N  N97  1  0.25902192  0.01174897  0.44164445  1  -1.202871  -0.075533  -0.344892  -0.20555  -0.050174  3.697802  -0.065
N  N98  1  0.31793684  0.23501729  0.79424992  1  -1.213617  -2.3e-05  -0.3128  -0.239653  -1e-05  3.434073  0.0
N  N99  1  0.15638396  0.42211516  0.73768464  1  -1.193016  1e-06  -0.314698  -0.227599  5e-06  3.435868  0.0
N  N100  1  0.58831163  0.44565287  0.86320313  1  -1.166933  0.002483  -0.285277  -0.232091  0.003071  3.305786  0.002
N  N101  1  0.24096299  0.48824830  0.94164559  1  -1.203293  -0.075544  -0.344879  -0.205531  -0.050182  3.698249  -0.065
O  O102  1  0.19428087  0.64874780  0.73939629  1  -1.191044  -0.000103  -0.381299  -0.608757  -5.8e-05  2.379937  0.0
O  O103  1  0.76559770  0.60587237  0.58478447  1  -1.319744  -0.000998  -0.628987  -0.800137  -0.000602  2.160879  -0.001
O  O104  1  0.22579356  0.75971030  0.82272634  1  -1.177761  -0.000194  -0.293593  -0.529934  -0.000134  2.250046  0.0
O  O105  1  0.98842426  0.39696439  0.61079294  1  -1.306745  1.5e-05  -0.633099  -0.801433  2.9e-05  2.082238  0.0
O  O106  1  0.89392275  0.01838044  0.85663124  1  -1.177647  -5.8e-05  -0.327122  -0.544324  -2.7e-05  2.286266  0.0
O  O107  1  0.20273307  0.98884542  0.80055070  1  -1.192134  -8e-05  -0.356151  -0.557811  -5.4e-05  2.331482  0.0
O  O108  1  0.37158299  0.81798848  0.54378926  1  -1.143167  -0.004299  -0.295857  -0.533107  -0.002342  2.223886  -0.004
O  O109  1  0.17815429  0.69821752  0.60464335  1  -1.197763  -0.001522  -0.405275  -0.586236  -0.00096  2.384811  -0.001
O  O110  1  0.86907288  0.73663814  0.48467636  1  -1.179544  -0.018413  -0.288786  -0.517104  -0.011279  2.174343  -0.015
O  O111  1  0.67435218  0.88360779  0.45334329  1  -1.089  -0.101495  -0.310767  -0.509819  -0.064139  2.271181  -0.091
O  O112  1  0.30571713  0.85125449  0.23939780  1  -1.191034  -0.000104  -0.381245  -0.608609  -5.8e-05  2.379796  0.0
O  O113  1  0.73439550  0.89413252  0.08478187  1  -1.319723  -0.000999  -0.628979  -0.800236  -0.000602  2.160872  -0.001
O  O114  1  0.27423633  0.74028744  0.32273104  1  -1.17807  -0.000194  -0.293703  -0.530132  -0.000134  2.249999  0.0
O  O115  1  0.51158920  0.10304639  0.11078625  1  -1.306363  1.4e-05  -0.633182  -0.801493  2.8e-05  2.082186  0.0
O  O116  1  0.60606823  0.48163101  0.35662788  1  -1.177937  -5.9e-05  -0.326983  -0.54415  -2.7e-05  2.286228  0.0
O  O117  1  0.29728039  0.51116268  0.30054930  1  -1.192262  -8.1e-05  -0.356116  -0.557741  -5.5e-05  2.331746  0.0
O  O118  1  0.12844608  0.68200002  0.04378957  1  -1.143543  -0.0043  -0.295815  -0.533054  -0.002343  2.22386  -0.004
O  O119  1  0.32183561  0.80177973  0.10465007  1  -1.198082  -0.001522  -0.405218  -0.586262  -0.00096  2.385082  -0.001
O  O120  1  0.63090944  0.76335059  0.98468455  1  -1.179429  -0.018412  -0.288769  -0.517239  -0.011278  2.17444  -0.015
O  O121  1  0.82559874  0.61638904  0.95334850  1  -1.088551  -0.101492  -0.310961  -0.510194  -0.064139  2.271586  -0.091
O  O122  1  0.80575198  0.35125392  0.26060637  1  -1.191  -0.000103  -0.3812  -0.6087  -5.7e-05  2.379849  0.0
O  O123  1  0.23440529  0.39413041  0.41521311  1  -1.319672  -0.000997  -0.629017  -0.800326  -0.000601  2.160806  -0.001
O  O124  1  0.77421375  0.24028663  0.17727493  1  -1.178187  -0.000194  -0.293701  -0.530181  -0.000134  2.250143  0.0
O  O125  1  0.01159547  0.60303909  0.38920833  1  -1.306578  1.4e-05  -0.633137  -0.80147  2.9e-05  2.082172  0.0
O  O126  1  0.10607074  0.98162657  0.14336680  1  -1.178009  -5.8e-05  -0.327134  -0.544341  -2.6e-05  2.286005  0.0
O  O127  1  0.79727305  0.01115567  0.19944826  1  -1.192168  -8.1e-05  -0.356097  -0.557807  -5.5e-05  2.331935  0.0
O  O128  1  0.62843860  0.18201665  0.45621847  1  -1.143102  -0.004299  -0.295866  -0.533134  -0.002342  2.223927  -0.004
O  O129  1  0.82182755  0.30178958  0.39535192  1  -1.197928  -0.001523  -0.405236  -0.586369  -0.00096  2.384842  -0.001
O  O130  1  0.13090330  0.26334906  0.51532029  1  -1.179506  -0.018421  -0.288768  -0.51722  -0.011284  2.174516  -0.015
O  O131  1  0.32562575  0.11639436  0.54665198  1  -1.088681  -0.101514  -0.310864  -0.510061  -0.064153  2.271522  -0.091
O  O132  1  0.69427078  0.14874758  0.76060763  1  -1.191093  -0.000103  -0.381158  -0.608602  -5.8e-05  2.380069  0.0
O  O133  1  0.26561199  0.10588020  0.91521386  1  -1.319776  -0.000998  -0.629009  -0.800257  -0.000602  2.161033  -0.001
O  O134  1  0.72576050  0.25970541  0.67726838  1  -1.177875  -0.000194  -0.293628  -0.530013  -0.000134  2.250022  0.0
O  O135  1  0.48841975  0.89696466  0.88921179  1  -1.306439  1.4e-05  -0.633045  -0.801232  2.9e-05  2.082477  0.0
O  O136  1  0.39394798  0.51837084  0.64337432  1  -1.177779  -5.8e-05  -0.326922  -0.544106  -2.7e-05  2.286062  0.0
O  O137  1  0.70272496  0.48883177  0.69944874  1  -1.192316  -8.1e-05  -0.356094  -0.557698  -5.4e-05  2.33205  0.0
O  O138  1  0.87152265  0.31799472  0.95622509  1  -1.143388  -0.004304  -0.295962  -0.533125  -0.002345  2.223566  -0.004
O  O139  1  0.67816610  0.19822639  0.89534289  1  -1.197812  -0.001524  -0.405246  -0.58638  -0.000961  2.384779  -0.001
O  O140  1  0.36907133  0.23664738  0.01532641  1  -1.179476  -0.018426  -0.288776  -0.517246  -0.011287  2.174571  -0.015
O  O141  1  0.17438331  0.38360560  0.04665093  1  -1.088771  -0.101505  -0.310931  -0.510118  -0.064146  2.271481  -0.091
