# generated using pymatgen
data_Zn2H29C39N8
_symmetry_space_group_name_H-M   'P 1'
_cell_length_a   19.70694326
_cell_length_b   19.65637677
_cell_length_c   19.88292367
_cell_angle_alpha   68.60961857
_cell_angle_beta   76.41841038
_cell_angle_gamma   111.82920474
_symmetry_Int_Tables_number   1
_chemical_formula_structural   Zn2H29C39N8
_chemical_formula_sum   'Zn4 H58 C78 N16'
_cell_volume   6014.82489705
_cell_formula_units_Z   2
loop_
 _symmetry_equiv_pos_site_id
 _symmetry_equiv_pos_as_xyz
  1  'x, y, z'
loop_
 _atom_site_type_symbol
 _atom_site_label
 _atom_site_symmetry_multiplicity
 _atom_site_fract_x
 _atom_site_fract_y
 _atom_site_fract_z
 _atom_site_occupancy
 _atom_site_pbe_bader_charge
 _atom_site_pbe_bader_spin_density
 _atom_site_pbe_cm5_charge
 _atom_site_pbe_ddec_charge
 _atom_site_pbe_ddec_spin_density
 _atom_site_pbe_ddec_sum_bond_order
 _atom_site_pbe_magmom
Zn  Zn0  1  0.10741879  0.60839324  0.00240814  1  1.194785  0  0.738666  0.63856  0  2.339612  0
Zn  Zn1  1  0.90176874  0.39861521  0.99900464  1  1.184361  0  0.74879  0.598232  0  2.557176  0
Zn  Zn2  1  0.99581752  0.60457653  0.90388925  1  1.197506  0  0.737621  0.645833  0  2.312455  0
Zn  Zn3  1  0.00731389  0.40016826  0.10575242  1  1.183032  0  0.74605  0.597134  0  2.540178  0
H  H4  1  0.15726421  0.80412337  0.98653553  1  0.09935  0  0.12044  0.11033  0  0.988129  0
H  H5  1  0.01805722  0.41421905  0.85000862  1  0.112841  0  0.122436  0.114298  0  0.997471  0
H  H6  1  0.73690902  0.42062975  0.60553657  1  0.032653  0  0.098446  0.085375  0  0.994731  0
H  H7  1  0.01665077  0.58381624  0.40072739  1  0.069368  0  0.098385  0.085267  0  0.991675  0
H  H8  1  0.94118515  0.64536120  0.48416232  1  0.0814  0  0.097342  0.083708  0  0.996026  0
H  H9  1  0.81230105  0.35902424  0.52222152  1  0.050767  0  0.09717  0.083704  0  0.995071  0
H  H10  1  0.50237897  0.63510189  0.07756874  1  0.057256  0  0.10336  0.106027  0  0.992325  0
H  H11  1  0.48288628  0.36331352  0.24678036  1  0.08897  0  0.104795  0.108436  0  0.990278  0
H  H12  1  0.18364689  0.06965334  0.95690451  1  0.071235  0  0.10401  0.107042  0  0.990399  0
H  H13  1  0.05745502  0.20308974  0.80521501  1  0.057568  0  0.103778  0.106979  0  0.990381  0
H  H14  1  0.20059327  0.20758917  0.93946962  1  0.071584  0  0.104217  0.107391  0  0.989949  0
H  H15  1  0.04065383  0.06520896  0.82270925  1  0.079309  0  0.103361  0.106503  0  0.990819  0
H  H16  1  0.73677409  0.35600549  0.13955587  1  0.105921  0  0.123925  0.11693  0  0.984645  0
H  H17  1  0.26797699  0.63972815  0.04877427  1  0.094401  0  0.12264  0.111984  0  0.992537  0
H  H18  1  0.99528959  0.78885302  0.87123325  1  0.096944  0  0.121265  0.110448  0  0.98686  0
H  H19  1  0.15036455  0.39846947  0.99600581  1  0.096543  0  0.122359  0.112988  0  0.99045  0
H  H20  1  0.80220994  0.57184540  0.45916953  1  0.063838  0  0.099435  0.087128  0  0.993672  0
H  H21  1  0.95135246  0.43262740  0.54733063  1  0.041474  0  0.097694  0.084373  0  0.994439  0
H  H22  1  0.50795092  0.96816472  0.34866402  1  0.066095  0  0.102979  0.1054  0  0.992519  0
H  H23  1  0.52602151  0.88546046  0.60917368  1  0.057528  0  0.104508  0.109207  0  0.993072  0
H  H24  1  0.38264560  0.87817662  0.47512046  1  0.080775  0  0.103759  0.106928  0  0.991927  0
H  H25  1  0.65123180  0.97514450  0.48267255  1  0.052872  0  0.10296  0.10627  0  0.995318  0
H  H26  1  0.62699473  0.63087894  0.07574841  1  0.053385  0  0.104543  0.10767  0  0.98947  0
H  H27  1  0.35829126  0.36761841  0.24877330  1  0.066527  0  0.103795  0.106872  0  0.991673  0
H  H28  1  0.63249953  0.09061792  0.06286095  1  0.023781  0  0.086833  0.112949  0  1.000228  0
H  H29  1  0.69461681  0.19224291  0.97589377  1  0.009637  0  0.083223  0.10642  0  1.010852  0
H  H30  1  0.70644356  0.10590842  0.97921796  1  0.031687  0  0.088625  0.115922  0  1.000274  0
H  H31  1  0.81760881  0.19937617  0.00024835  1  0.026601  0  0.086759  0.072592  0  0.982329  0
H  H32  1  0.75510099  0.09879044  0.08678892  1  0.023113  0  0.093917  0.086163  0  0.965234  0
H  H33  1  0.67805301  0.15504722  0.14729044  1  0.022683  0  0.100827  0.107379  0  0.97097  0
H  H34  1  0.74119567  0.25625021  0.06060450  1  0.027933  0  0.092764  0.086435  0  0.993144  0
H  H35  1  0.47070654  0.79954556  0.81471848  1  0.020899  0  0.081408  0.102417  0  1.011901  0
H  H36  1  0.42967329  0.70346978  0.90504510  1  0.019651  0  0.082165  0.106782  0  1.010259  0
H  H37  1  0.49423885  0.72081899  0.81410985  1  0.020625  0  0.087101  0.113683  0  1.002293  0
H  H38  1  0.34902674  0.62329175  0.84878572  1  0.015561  0  0.090452  0.081536  0  0.969747  0
H  H39  1  0.39030948  0.72003621  0.76024678  1  0.018391  0  0.087728  0.080201  0  1.00425  0
H  H40  1  0.33177455  0.77261277  0.84613719  1  0.021889  0  0.096951  0.097372  0  0.968183  0
H  H41  1  0.27998001  0.66839694  0.92813681  1  0.027259  0  0.088758  0.078265  0  1.04816  0
H  H42  1  0.86771541  0.63086170  0.01157707  1  0.110803  0  0.120683  0.110462  0  1.002405  0
H  H43  1  0.13399915  0.36570381  0.18293953  1  0.104333  0  0.12212  0.112324  0  0.991285  0
H  H44  1  0.87193417  0.36982635  0.26267169  1  0.126413  0  0.11665  0.104482  0  1.027852  0
H  H45  1  0.95500815  0.63032682  0.74071636  1  0.100365  0  0.120231  0.109764  0  1.006256  0
H  H46  1  0.00800643  0.64399672  0.12319684  1  0.072771  0  0.119514  0.110613  0  1.004399  0
H  H47  1  0.83997674  0.35723545  0.86747640  1  0.081412  0  0.120874  0.111968  0  0.999867  0
H  H48  1  0.85932351  0.10493964  0.43834469  1  0.002644  0  0.084767  0.108122  0  1.004126  0
H  H49  1  0.92347359  0.21420681  0.40244438  1  0.034045  0  0.084458  0.108851  0  1.003938  0
H  H50  1  0.82124823  0.16070544  0.47289957  1  0.041637  0  0.088276  0.115009  0  0.999875  0
H  H51  1  0.83594655  0.24862224  0.33672882  1  0.018467  0  0.086545  0.0719  0  1.005668  0
H  H52  1  0.77323479  0.14065966  0.37149015  1  0.064065  0  0.08995  0.08441  0  1.002888  0
H  H53  1  0.89140026  0.13744208  0.29323344  1  0.052113  0  0.101333  0.105915  0  0.960633  0
H  H54  1  0.95383249  0.24691126  0.25529813  1  0.024537  0  0.091689  0.083544  0  0.994618  0
H  H55  1  0.13872086  0.85250076  0.57675007  1  0.023763  0  0.085025  0.110326  0  1.002577  0
H  H56  1  0.04747666  0.80770291  0.66113936  1  0.017447  0  0.079682  0.10033  0  1.015059  0
H  H57  1  0.12632266  0.91248020  0.62222692  1  0.016047  0  0.08834  0.115424  0  0.999966  0
H  H58  1  0.12370946  0.81261137  0.74672054  1  0.049381  0  0.083104  0.070885  0  1.009905  0
H  H59  1  0.21503089  0.85870999  0.66362050  1  0.005756  0  0.091032  0.083766  0  0.979576  0
H  H60  1  0.16804905  0.72998058  0.65215065  1  0.060223  0  0.099673  0.106579  0  0.965959  0
H  H61  1  0.07063758  0.68266103  0.72781176  1  0.04944  0  0.089213  0.082423  0  1.047825  0
C  C62  1  0.11611115  0.78678837  0.95995101  1  0.409539  0  0.013064  -0.054996  0  3.973868  0
C  C63  1  0.04400644  0.41580860  0.89230212  1  0.435816  0  0.017713  -0.036976  0  3.911467  0
C  C64  1  0.79123302  0.16836296  0.21036014  1  0.131837  0  -0.032109  -0.081685  0  4.156417  0
C  C65  1  0.24302564  0.72253056  0.75960044  1  0.078397  0  -0.033243  -0.08729  0  4.150897  0
C  C66  1  0.77095584  0.49307039  0.09369163  1  0.15107  0  -0.02708  0.04195  0  4.1853  0
C  C67  1  0.22929442  0.50309844  0.12546822  1  0.073298  0  -0.030092  0.043003  0  4.2075  0
C  C68  1  0.92498536  0.50850328  0.22374081  1  0.081893  0  -0.028643  0.045473  0  4.191144  0
C  C69  1  0.89198018  0.49342515  0.77449656  1  0.136281  0  -0.030861  0.046484  0  4.212846  0
C  C70  1  0.79903450  0.45690925  0.55934246  1  0.004131  0  -0.073814  -0.078944  0  3.638848  0
C  C71  1  0.95462016  0.54758372  0.44711863  1  -0.043118  0  -0.073826  -0.077025  0  3.63538  0
C  C72  1  0.83537971  0.54085291  0.47901481  1  -0.029765  0  -0.074831  -0.083643  0  3.637113  0
C  C73  1  0.91823181  0.46352615  0.52706418  1  -0.003602  0  -0.073935  -0.080495  0  3.637893  0
C  C74  1  0.89840846  0.51069385  0.29480862  1  -0.039743  0  -0.065475  -0.113965  0  4.209758  0
C  C75  1  0.88215207  0.49309989  0.70670143  1  -0.490234  0  -0.070275  -0.125148  0  4.229562  0
C  C76  1  0.84096432  0.42257507  0.51447541  1  -0.021223  0  -0.074199  -0.079934  0  3.641763  0
C  C77  1  0.91257494  0.58183986  0.49183646  1  -0.05216  0  -0.074096  -0.07981  0  3.64416  0
C  C78  1  0.87747552  0.50659118  0.43219358  1  0.108147  0  0.004851  0.137148  0  3.796479  0
C  C79  1  0.87626595  0.49784305  0.57399846  1  0.09459  0  0.002748  0.133094  0  3.803737  0
C  C80  1  0.88319047  0.50963831  0.35854542  1  -0.297376  0  -0.066476  -0.14464  0  4.14345  0
C  C81  1  0.87769566  0.49466662  0.64596602  1  0.15789  0  -0.063952  -0.136515  0  4.157628  0
C  C82  1  0.44153323  0.89949542  0.47667310  1  -0.047151  0  -0.087899  -0.129918  0  3.97732  0
C  C83  1  0.59223834  0.95353524  0.48128553  1  -0.014933  0  -0.087985  -0.129799  0  3.98195  0
C  C84  1  0.79799888  0.21747901  0.13393251  1  0.485806  0  0.100419  0.166802  0  3.996232  0
C  C85  1  0.23730441  0.68509706  0.83795796  1  0.461318  0  0.101707  0.174937  0  3.954931  0
C  C86  1  0.44507392  0.87564611  0.55147498  1  0.053638  0  -0.00503  0.140437  0  4.126822  0
C  C87  1  0.58858534  0.97861258  0.40652148  1  0.068437  0  -0.007211  0.135249  0  4.134698  0
C  C88  1  0.52217271  0.90351120  0.55204494  1  -0.049806  0  -0.088802  -0.132272  0  3.97796  0
C  C89  1  0.51162103  0.94959120  0.40588915  1  0.019863  0  -0.088889  -0.128927  0  3.983681  0
C  C90  1  0.37383260  0.82458126  0.62376680  1  0.169179  0  -0.057404  -0.148314  0  4.137679  0
C  C91  1  0.66019824  0.03620049  0.33478704  1  0.044876  0  -0.056227  -0.139579  0  4.145924  0
C  C92  1  0.72222420  0.09413007  0.27514716  1  -0.476415  0  -0.052319  -0.079054  0  4.203973  0
C  C93  1  0.31302649  0.77812319  0.68724985  1  -0.524945  0  -0.044175  -0.062335  0  4.196859  0
C  C94  1  0.56794992  0.57343979  0.11391741  1  0.008504  0  -0.086635  -0.125853  0  3.969987  0
C  C95  1  0.41728871  0.42525311  0.21109955  1  -0.000487  0  -0.087548  -0.128483  0  3.976287  0
C  C96  1  0.56417762  0.49641492  0.15945055  1  0.029129  0  -0.003044  0.140919  0  4.116737  0
C  C97  1  0.42152915  0.50124663  0.16187986  1  0.077569  0  -0.006268  0.135015  0  4.127758  0
C  C98  1  0.48704229  0.42287215  0.20999336  1  -0.052493  0  -0.087176  -0.12842  0  3.971816  0
C  C99  1  0.49833017  0.57580378  0.11494009  1  -0.022626  0  -0.087002  -0.127375  0  3.978567  0
C  C100  1  0.63635806  0.49331843  0.14829671  1  0.040724  0  -0.057197  -0.133111  0  4.144705  0
C  C101  1  0.35189534  0.50226916  0.15549949  1  -0.452469  0  -0.055473  -0.125039  0  4.156399  0
C  C102  1  0.29408270  0.50329479  0.14364696  1  0.133222  0  -0.06004  -0.108396  0  4.185963  0
C  C103  1  0.69964366  0.49281663  0.12756521  1  -0.411195  0  -0.052344  -0.092044  0  4.168358  0
C  C104  1  0.16619476  0.17653920  0.91341310  1  -0.012966  0  -0.087225  -0.127746  0  3.976993  0
C  C105  1  0.07595332  0.09692332  0.84780782  1  -0.027884  0  -0.087883  -0.129993  0  3.978029  0
C  C106  1  0.84720652  0.56401121  0.03494307  1  0.439171  0  0.019321  -0.036643  0  3.917487  0
C  C107  1  0.15591357  0.43268107  0.14637929  1  0.418299  0  0.014763  -0.056511  0  3.970174  0
C  C108  1  0.12999287  0.21503364  0.87137141  1  0.090703  0  -0.004456  0.13788  0  4.122864  0
C  C109  1  0.11070390  0.05764267  0.89132911  1  0.074723  0  -0.005144  0.139663  0  4.130748  0
C  C110  1  0.08558351  0.17405189  0.83785742  1  -0.034844  0  -0.087908  -0.128296  0  3.975975  0
C  C111  1  0.15656892  0.09948057  0.92334244  1  -0.036039  0  -0.087614  -0.127743  0  3.97622  0
C  C112  1  0.13247184  0.28858158  0.86939665  1  -0.35988  0  -0.05556  -0.126895  0  4.146496  0
C  C113  1  0.09970363  0.97831733  0.90309361  1  -0.171761  0  -0.058661  -0.131501  0  4.166476  0
C  C114  1  0.09063560  0.90967729  0.91372514  1  -0.190849  0  -0.057818  -0.102757  0  4.197121  0
C  C115  1  0.12527528  0.34410799  0.87865397  1  0.034118  0  -0.055274  -0.100827  0  4.164227  0
C  C116  1  0.91170156  0.43604805  0.21721231  1  0.417666  0  0.016042  -0.042267  0  3.932165  0
C  C117  1  0.93014359  0.56411926  0.78322541  1  0.39723  0  0.012551  -0.051117  0  3.964515  0
C  C118  1  0.78016122  0.42322811  0.10073809  1  0.420376  0  0.01945  -0.042121  0  3.926175  0
C  C119  1  0.22427131  0.57277034  0.07735890  1  0.440807  0  0.016281  -0.047979  0  3.961962  0
C  C120  1  0.98139619  0.57636027  0.14606596  1  0.436625  0  0.014557  -0.042699  0  3.921875  0
C  C121  1  0.87076464  0.42445281  0.84769103  1  0.404644  0  0.01256  -0.060431  0  3.973048  0
C  C122  1  0.86510884  0.21681733  0.21090418  1  0.444956  0  0.101665  0.169284  0  3.978711  0
C  C123  1  0.16211818  0.69273010  0.76940279  1  0.524035  0  0.10308  0.180401  0  3.966041  0
C  C124  1  0.03313563  0.77887734  0.90114857  1  0.428982  0  0.01291  -0.058197  0  3.983735  0
C  C125  1  0.11169410  0.40779807  0.96704239  1  0.435004  0  0.019145  -0.037447  0  3.91959  0
C  C126  1  0.08047897  0.83131421  0.92460876  1  0.100892  0  -0.033615  0.03615  0  4.225668  0
C  C127  1  0.10095585  0.39194449  0.90545602  1  0.068638  0  -0.025282  0.049549  0  4.175735  0
C  C128  1  0.73956188  0.19773531  0.09851526  1  0.019704  0  -0.154855  -0.213388  0  3.987112  0
C  C129  1  0.75587618  0.15643969  0.04879721  1  0.01436  0  -0.161937  -0.083738  0  3.958076  0
C  C130  1  0.69413567  0.13515341  0.01470726  1  -0.069489  0  -0.243744  -0.35692  0  3.988268  0
C  C131  1  0.30471800  0.70516842  0.86276617  1  0.004305  0  -0.157343  -0.205063  0  3.980632  0
C  C132  1  0.37243054  0.69156703  0.82497495  1  0.02795  0  -0.164051  -0.083429  0  3.947534  0
C  C133  1  0.44575299  0.73076404  0.84059878  1  -0.069853  0  -0.244694  -0.35454  0  3.993027  0
C  C134  1  0.89088544  0.19718361  0.27704463  1  -0.004228  0  -0.151554  -0.201836  0  3.978717  0
C  C135  1  0.83580814  0.18879290  0.35222811  1  -0.036598  0  -0.164367  -0.087634  0  3.952975  0
C  C136  1  0.86139603  0.16595215  0.42017479  1  -0.073081  0  -0.243691  -0.353723  0  3.988337  0
C  C137  1  0.13491927  0.72625760  0.70752791  1  -0.045925  0  -0.157839  -0.214306  0  3.971988  0
C  C138  1  0.14944235  0.81505461  0.68981419  1  -0.007234  0  -0.165526  -0.086655  0  3.94582  0
C  C139  1  0.11363525  0.84872919  0.63443554  1  -0.058529  0  -0.244458  -0.352128  0  3.993765  0
N  N140  1  0.09210724  0.71479393  0.95710600  1  -0.785524  0  -0.261414  -0.180319  0  3.517829  0
N  N141  1  0.02063533  0.44014847  0.94446866  1  -0.79634  0  -0.285251  -0.20031  0  3.611773  0
N  N142  1  0.87011490  0.28955645  0.09277883  1  -0.831664  0  -0.280505  -0.230178  0  3.536402  0
N  N143  1  0.15831903  0.63391222  0.88978768  1  -0.785532  0  -0.278653  -0.235481  0  3.543187  0
N  N144  1  0.89609791  0.53752157  0.00870813  1  -0.771983  0  -0.275595  -0.185767  0  3.628555  0
N  N145  1  0.11210986  0.45884953  0.11299433  1  -0.774905  0  -0.269566  -0.168434  0  3.582174  0
N  N146  1  0.95820620  0.45959064  0.14247262  1  -0.779434  0  -0.284565  -0.179028  0  3.638281  0
N  N147  1  0.93264551  0.53950554  0.85479147  1  -0.808915  0  -0.26305  -0.184606  0  3.503313  0
N  N148  1  0.85496829  0.45139037  0.04904621  1  -0.808386  0  -0.282352  -0.177627  0  3.6477  0
N  N149  1  0.15454522  0.54594891  0.06964208  1  -0.815315  0  -0.261998  -0.180916  0  3.514652  0
N  N150  1  0.00096272  0.54565112  0.09872870  1  -0.812505  0  -0.280801  -0.192451  0  3.635666  0
N  N151  1  0.89499833  0.45256003  0.89486719  1  -0.776238  0  -0.274664  -0.17386  0  3.592611  0
N  N152  1  0.91138723  0.28929576  0.14013374  1  -0.782246  0  -0.274681  -0.228213  0  3.534012  0
N  N153  1  0.11228073  0.63855452  0.84755792  1  -0.821457  0  -0.27873  -0.239858  0  3.549981  0
N  N154  1  0.04055016  0.70988822  0.92066377  1  -0.784926  0  -0.262184  -0.181629  0  3.52897  0
N  N155  1  0.06232919  0.43520440  0.99028685  1  -0.807731  0  -0.28614  -0.196475  0  3.632165  0
