# generated using pymatgen
data_PrH19C21NO8
_symmetry_space_group_name_H-M   'P 1'
_cell_length_a   12.30820403
_cell_length_b   12.29767572
_cell_length_c   18.48623913
_cell_angle_alpha   102.55597667
_cell_angle_beta   108.07018070
_cell_angle_gamma   101.98963836
_symmetry_Int_Tables_number   1
_chemical_formula_structural   PrH19C21NO8
_chemical_formula_sum   'Pr4 H76 C84 N4 O32'
_cell_volume   2479.70562267
_cell_formula_units_Z   4
loop_
 _symmetry_equiv_pos_site_id
 _symmetry_equiv_pos_as_xyz
  1  'x, y, z'
loop_
 _atom_site_type_symbol
 _atom_site_label
 _atom_site_symmetry_multiplicity
 _atom_site_fract_x
 _atom_site_fract_y
 _atom_site_fract_z
 _atom_site_occupancy
 _atom_site_pbe_bader_charge
 _atom_site_pbe_bader_spin_density
 _atom_site_pbe_cm5_charge
 _atom_site_pbe_ddec_charge
 _atom_site_pbe_ddec_spin_density
 _atom_site_pbe_ddec_sum_bond_order
 _atom_site_pbe_magmom
Pr  Pr0  1  0.58628440  0.16491302  0.99315994  1  2.226193  0  1.483872  2.01802  0  2.161224  0
Pr  Pr1  1  0.67160824  0.59321404  0.50691471  1  2.227421  0  1.484024  2.017426  0  2.16179  0
Pr  Pr2  1  0.41371399  0.83508580  0.00683968  1  2.226201  0  1.483886  2.01802  0  2.161261  0
Pr  Pr3  1  0.32839367  0.40678733  0.49308582  1  2.227445  0  1.484064  2.017498  0  2.161714  0
H  H4  1  0.56815416  0.01173516  0.83288576  1  0.593826  0  0.321081  0.401005  0  0.901073  0
H  H5  1  0.67905685  0.73554245  0.66724534  1  0.623586  0  0.320333  0.399699  0  0.903046  0
H  H6  1  0.43184579  0.98826315  0.16711368  1  0.59383  0  0.321103  0.401026  0  0.901038  0
H  H7  1  0.32094313  0.26445821  0.33275501  1  0.623591  0  0.320313  0.399665  0  0.903088  0
H  H8  1  0.69845883  0.07217921  0.89239601  1  0.647518  0  0.313118  0.410549  0  0.899232  0
H  H9  1  0.67992806  0.80641598  0.60774970  1  0.642909  0  0.313098  0.410787  0  0.898769  0
H  H10  1  0.30154218  0.92782040  0.10760361  1  0.647522  0  0.313145  0.410591  0  0.899181  0
H  H11  1  0.32007264  0.19358454  0.39225137  1  0.642904  0  0.313099  0.410788  0  0.898762  0
H  H12  1  0.30556583  0.71607661  0.45394880  1  0.061664  0  0.113319  0.118591  0  0.986776  0
H  H13  1  0.76206002  0.85155711  0.04606280  1  0.125968  0  0.113648  0.118582  0  0.987517  0
H  H14  1  0.69443504  0.28392604  0.54605157  1  0.061677  0  0.113325  0.118557  0  0.986835  0
H  H15  1  0.23793995  0.14844097  0.95393754  1  0.125961  0  0.113637  0.118579  0  0.987517  0
H  H16  1  0.12992782  0.76971078  0.37816085  1  0.058266  0  0.098631  0.093829  0  1.02973  0
H  H17  1  0.89129481  0.75154646  0.12183409  1  0.056267  0  0.098504  0.093882  0  1.029516  0
H  H18  1  0.87007184  0.23029102  0.62184006  1  0.058282  0  0.098605  0.093784  0  1.029764  0
H  H19  1  0.10870468  0.24845321  0.87816751  1  0.056257  0  0.098482  0.093845  0  1.02955  0
H  H20  1  0.05757219  0.71096014  0.22845499  1  0.052047  0  0.097635  0.090714  0  1.03658  0
H  H21  1  0.98206239  0.82870475  0.27153538  1  0.05153  0  0.097758  0.090266  0  1.037392  0
H  H22  1  0.94242622  0.28903845  0.77154553  1  0.052125  0  0.097632  0.090736  0  1.036551  0
H  H23  1  0.01793868  0.17129699  0.72846606  1  0.052063  0  0.097736  0.090249  0  1.037378  0
H  H24  1  0.15761023  0.59880108  0.15815941  1  0.074583  0  0.096271  0.092558  0  1.058845  0
H  H25  1  0.94005916  0.99901232  0.34188241  1  0.072716  0  0.096382  0.092018  0  1.058821  0
H  H26  1  0.84238766  0.40119675  0.84184146  1  0.074562  0  0.096265  0.092554  0  1.058903  0
H  H27  1  0.05993893  0.00099022  0.65811778  1  0.072758  0  0.096387  0.092021  0  1.058805  0
H  H28  1  0.37581210  0.41766280  0.29729527  1  0.05475  0  0.109079  0.10101  0  1.036108  0
H  H29  1  0.62053250  0.07880686  0.20254819  1  0.047035  0  0.108862  0.10065  0  1.036654  0
H  H30  1  0.62418856  0.58233537  0.70270489  1  0.054743  0  0.109071  0.101007  0  1.036115  0
H  H31  1  0.37946453  0.92119437  0.79745181  1  0.047044  0  0.108857  0.100584  0  1.03677  0
H  H32  1  0.45501799  0.29128286  0.21559765  1  0.090892  0  0.105812  0.109001  0  1.027658  0
H  H33  1  0.57600079  0.23979812  0.28431945  1  0.091395  0  0.105522  0.108198  0  1.028744  0
H  H34  1  0.54498299  0.70871698  0.78440108  1  0.090848  0  0.105813  0.109008  0  1.027661  0
H  H35  1  0.42399799  0.76020450  0.71568056  1  0.091426  0  0.105518  0.108196  0  1.028789  0
H  H36  1  0.40104856  0.48406514  0.04625433  1  0.094844  0  0.110197  0.117736  0  0.997585  0
H  H37  1  0.93779579  0.35476792  0.45391718  1  0.107393  0  0.109935  0.117316  0  0.998122  0
H  H38  1  0.59894970  0.51593672  0.95374603  1  0.094826  0  0.110178  0.117712  0  0.997618  0
H  H39  1  0.06220277  0.64523302  0.54608174  1  0.10734  0  0.109944  0.117291  0  0.998208  0
H  H40  1  0.32684525  0.61427802  0.12953734  1  0.051224  0  0.103182  0.101443  0  1.030251  0
H  H41  1  0.98453995  0.19714390  0.37059651  1  0.05647  0  0.103164  0.101224  0  1.030227  0
H  H42  1  0.67315160  0.38572108  0.87046337  1  0.051227  0  0.10318  0.101449  0  1.030239  0
H  H43  1  0.01545774  0.80285764  0.62940241  1  0.056425  0  0.103167  0.101212  0  1.030199  0
H  H44  1  0.97670864  0.28730933  0.95612232  1  0.082796  0  0.106818  0.112609  0  0.997026  0
H  H45  1  0.83122624  0.02100020  0.54360349  1  0.105002  0  0.106973  0.111597  0  0.997609  0
H  H46  1  0.02329390  0.71268719  0.04387710  1  0.082868  0  0.106836  0.112644  0  0.996987  0
H  H47  1  0.16877423  0.97899887  0.45639560  1  0.104973  0  0.10699  0.111619  0  0.997535  0
H  H48  1  0.84739221  0.56488021  0.04575663  1  0.083733  0  0.106006  0.108779  0  1.016206  0
H  H49  1  0.01870838  0.80126614  0.45431753  1  0.102731  0  0.105904  0.108874  0  1.015525  0
H  H50  1  0.15261176  0.43511603  0.95424423  1  0.083495  0  0.105992  0.108736  0  1.016257  0
H  H51  1  0.98129299  0.19873470  0.54568247  1  0.102714  0  0.105895  0.108868  0  1.015545  0
H  H52  1  0.41806029  0.30708108  0.88059515  1  0.150262  0  0.132577  0.063348  0  1.01641  0
H  H53  1  0.92621635  0.53750331  0.61928791  1  0.141105  0  0.132366  0.062212  0  1.017367  0
H  H54  1  0.58193951  0.69291768  0.11940501  1  0.15025  0  0.132575  0.06335  0  1.016415  0
H  H55  1  0.07378396  0.46249621  0.38071189  1  0.141117  0  0.132377  0.062225  0  1.017404  0
H  H56  1  0.31451771  0.37930355  0.79798888  1  0.056428  0  0.111607  0.125744  0  0.986153  0
H  H57  1  0.08097639  0.51615255  0.70186700  1  0.055857  0  0.111753  0.126295  0  0.985501  0
H  H58  1  0.68548137  0.62069535  0.20201056  1  0.056414  0  0.11159  0.125714  0  0.986182  0
H  H59  1  0.91902498  0.48384828  0.29813300  1  0.055865  0  0.111741  0.126261  0  0.985515  0
H  H60  1  0.22125089  0.28117010  0.70061594  1  0.053741  0  0.102863  0.118239  0  1.001147  0
H  H61  1  0.08030334  0.52026649  0.79925241  1  0.067157  0  0.103213  0.118696  0  0.998787  0
H  H62  1  0.77874837  0.71882812  0.29938368  1  0.053761  0  0.102868  0.118239  0  1.001139  0
H  H63  1  0.91969766  0.47973312  0.20074722  1  0.067151  0  0.103223  0.11872  0  0.998725  0
H  H64  1  0.36055188  0.37918940  0.71494758  1  0.107781  0  0.116135  0.142799  0  0.986129  0
H  H65  1  0.16400682  0.64526874  0.78492913  1  0.087596  0  0.116542  0.142851  0  0.98707  0
H  H66  1  0.63944737  0.62080882  0.28505205  1  0.107772  0  0.116127  0.142793  0  0.98614  0
H  H67  1  0.83599490  0.35473073  0.21507121  1  0.087598  0  0.116546  0.142863  0  0.987048  0
H  H68  1  0.42837855  0.09626788  0.71543820  1  0.068342  0  0.107957  0.12555  0  1.004934  0
H  H69  1  0.88111607  0.71298957  0.78460470  1  0.113683  0  0.10736  0.124297  0  1.007162  0
H  H70  1  0.57162176  0.90373165  0.28456161  1  0.068344  0  0.107933  0.125516  0  1.004917  0
H  H71  1  0.11888705  0.28701265  0.21539530  1  0.113942  0  0.107367  0.124319  0  1.007168  0
H  H72  1  0.41896532  0.19897542  0.65895666  1  0.126724  0  0.109927  0.142025  0  1.009434  0
H  H73  1  0.04023411  0.76001286  0.84099381  1  0.149438  0  0.109539  0.141837  0  1.010242  0
H  H74  1  0.58103500  0.80102410  0.34104315  1  0.12672  0  0.109925  0.142028  0  1.009437  0
H  H75  1  0.95976849  0.23998860  0.15900655  1  0.149465  0  0.109534  0.14181  0  1.01026  0
H  H76  1  0.28573210  0.09945458  0.65340761  1  0.08273  0  0.101766  0.115193  0  1.00285  0
H  H77  1  0.94631593  0.63225499  0.84657563  1  0.06628  0  0.102037  0.115832  0  1.00256  0
H  H78  1  0.71426821  0.90054495  0.34659220  1  0.082728  0  0.101764  0.115203  0  1.002845  0
H  H79  1  0.05368526  0.36774652  0.15342418  1  0.066276  0  0.102016  0.115785  0  1.002532  0
C  C80  1  0.29245221  0.59719967  0.26484895  1  -0.070182  0  0.001401  0.054503  0  3.954815  0
C  C81  1  0.83211295  0.02744184  0.23518487  1  0.062811  0  0.001309  0.053341  0  3.958292  0
C  C82  1  0.70754583  0.40279770  0.73515121  1  -0.070586  0  0.001434  0.05456  0  3.954883  0
C  C83  1  0.16788425  0.97255872  0.76481531  1  0.062608  0  0.001275  0.053144  0  3.958484  0
C  C84  1  0.33365768  0.63205497  0.34909447  1  0.020554  0  -0.005033  -0.069555  0  3.922482  0
C  C85  1  0.78285249  0.98453503  0.15092956  1  -0.096815  0  -0.005295  -0.07091  0  3.922255  0
C  C86  1  0.66634248  0.36794501  0.65090606  1  0.02032  0  -0.005021  -0.069542  0  3.92247  0
C  C87  1  0.21714641  0.01546455  0.84906971  1  -0.096826  0  -0.00529  -0.07079  0  3.922186  0
C  C88  1  0.27381611  0.69227431  0.38904619  1  0.02596  0  -0.07899  -0.092322  0  3.970341  0
C  C89  1  0.80307732  0.88466898  0.11097236  1  -0.105298  0  -0.078917  -0.091251  0  3.970695  0
C  C90  1  0.72618511  0.30772698  0.61095453  1  0.026173  0  -0.079003  -0.092341  0  3.970576  0
C  C91  1  0.19692178  0.11532970  0.88902798  1  -0.105315  0  -0.078876  -0.091244  0  3.970621  0
C  C92  1  0.17517750  0.72197636  0.34637832  1  -0.153521  0  -0.092956  -0.091477  0  4.028421  0
C  C93  1  0.87532305  0.82858679  0.15363563  1  -0.080164  0  -0.093205  -0.091942  0  4.027421  0
C  C94  1  0.82481946  0.27802274  0.65361987  1  -0.153449  0  -0.092872  -0.091309  0  4.028409  0
C  C95  1  0.12467765  0.17141374  0.84636545  1  -0.080165  0  -0.093175  -0.091852  0  4.027343  0
C  C96  1  0.13503092  0.68963342  0.26316036  1  0.019454  0  -0.094215  -0.084946  0  4.046157  0
C  C97  1  0.92604104  0.87150933  0.23685642  1  0.033076  0  -0.094461  -0.085432  0  4.046666  0
C  C98  1  0.86496801  0.31036594  0.73683981  1  0.019217  0  -0.094246  -0.085043  0  4.04606  0
C  C99  1  0.07395880  0.12849179  0.76314466  1  0.032525  0  -0.094491  -0.085558  0  4.046686  0
C  C100  1  0.19243390  0.62729659  0.22321297  1  -0.029457  0  -0.090811  -0.128225  0  3.981451  0
C  C101  1  0.90362861  0.96887235  0.27682911  1  -0.079395  0  -0.091307  -0.127255  0  3.981094  0
C  C102  1  0.80756345  0.37270070  0.77678737  1  -0.02934  0  -0.09087  -0.128299  0  3.981685  0
C  C103  1  0.09637088  0.03113013  0.72317161  1  -0.079069  0  -0.091256  -0.127081  0  3.981078  0
C  C104  1  0.34452564  0.52448506  0.21878396  1  -0.043154  0  -0.005146  0.070541  0  3.994071  0
C  C105  1  0.80562295  0.12571444  0.28125424  1  0.017001  0  -0.004382  0.073371  0  3.995286  0
C  C106  1  0.65547348  0.47551340  0.78121728  1  -0.042799  0  -0.005115  0.070618  0  3.994002  0
C  C107  1  0.19437282  0.87428640  0.71874451  1  0.016839  0  -0.004391  0.073379  0  3.995325  0
C  C108  1  0.38160142  0.43290164  0.24255700  1  -0.032283  0  -0.083615  -0.126146  0  3.971501  0
C  C109  1  0.69045063  0.13923662  0.25737213  1  -0.024481  0  -0.084111  -0.12675  0  3.974243  0
C  C110  1  0.61839961  0.56709775  0.75744353  1  -0.032288  0  -0.083622  -0.126155  0  3.971417  0
C  C111  1  0.30954691  0.86076538  0.74262752  1  -0.024442  0  -0.084082  -0.126642  0  3.974136  0
C  C112  1  0.42569805  0.36179305  0.19712360  1  -0.00754  0  -0.076535  -0.075585  0  3.963807  0
C  C113  1  0.66485686  0.22878864  0.30283268  1  -0.03166  0  -0.076557  -0.076004  0  3.964896  0
C  C114  1  0.57430332  0.63820778  0.80287639  1  -0.007715  0  -0.076547  -0.075639  0  3.963805  0
C  C115  1  0.33514066  0.77121358  0.69716607  1  -0.031681  0  -0.076526  -0.075968  0  3.964885  0
C  C116  1  0.43273921  0.37927268  0.12615483  1  -0.060495  0  -0.017639  -0.033602  0  3.975118  0
C  C117  1  0.75317842  0.30665508  0.37394263  1  -0.072394  0  -0.016541  -0.031012  0  3.973056  0
C  C118  1  0.56726117  0.62072898  0.87384679  1  -0.060517  0  -0.017635  -0.033573  0  3.975076  0
C  C119  1  0.24681996  0.69334655  0.62605611  1  -0.072304  0  -0.016579  -0.031037  0  3.973015  0
C  C120  1  0.39498888  0.46962355  0.10124715  1  -0.062076  0  -0.082819  -0.096484  0  3.972721  0
C  C121  1  0.86834319  0.29373755  0.39888573  1  -0.043732  0  -0.082934  -0.096037  0  3.971935  0
C  C122  1  0.60501111  0.53037711  0.89875321  1  -0.062096  0  -0.082802  -0.09647  0  3.97282  0
C  C123  1  0.13165465  0.70626353  0.60111248  1  -0.043744  0  -0.082952  -0.096043  0  3.971929  0
C  C124  1  0.35237550  0.54170858  0.14758542  1  0.019439  0  -0.091859  -0.136809  0  3.979592  0
C  C125  1  0.89400321  0.20469515  0.35253344  1  -0.030415  0  -0.092136  -0.138555  0  3.980608  0
C  C126  1  0.64762328  0.45829124  0.85241547  1  0.019745  0  -0.091883  -0.13689  0  3.979715  0
C  C127  1  0.10599377  0.79530372  0.64746565  1  -0.030449  0  -0.092132  -0.138547  0  3.980577  0
C  C128  1  0.48219886  0.30283003  0.07923558  1  1.538602  0  0.190207  0.57358  0  4.22794  0
C  C129  1  0.72344704  0.40285245  0.42089356  1  1.546526  0  0.189287  0.572218  0  4.230408  0
C  C130  1  0.51780111  0.69717086  0.92076388  1  1.538612  0  0.190238  0.573602  0  4.228048  0
C  C131  1  0.27655364  0.59715110  0.57910574  1  1.546628  0  0.189283  0.572238  0  4.230429  0
C  C132  1  0.44540494  0.61325469  0.39901817  1  1.552184  0  0.222032  0.619211  0  4.191859  0
C  C133  1  0.71423447  0.04656898  0.10105569  1  1.565787  0  0.222316  0.621925  0  4.190489  0
C  C134  1  0.55459591  0.38674538  0.60098218  1  1.552171  0  0.222107  0.619327  0  4.19174  0
C  C135  1  0.28576323  0.95342976  0.89894411  1  1.565686  0  0.222276  0.621821  0  4.190605  0
C  C136  1  0.79733341  0.33227711  0.00017769  1  1.555584  0  0.192297  0.570519  0  4.251306  0
C  C137  1  0.83176348  0.79728053  0.49976729  1  1.5433  0  0.190718  0.567191  0  4.253874  0
C  C138  1  0.20267112  0.66772224  0.99982373  1  1.555236  0  0.192303  0.570611  0  4.251099  0
C  C139  1  0.16823633  0.20272081  0.50023289  1  1.543329  0  0.190779  0.56722  0  4.25376  0
C  C140  1  0.90359310  0.41888512  0.00165894  1  -0.081625  0  -0.010021  -0.024056  0  3.965529  0
C  C141  1  0.91703866  0.90198163  0.49824823  1  -0.086568  0  -0.011159  -0.02468  0  3.96943  0
C  C142  1  0.09641109  0.58111279  0.99834300  1  -0.081725  0  -0.009948  -0.023876  0  3.965258  0
C  C143  1  0.08296143  0.09801903  0.50174961  1  -0.087592  0  -0.011145  -0.024675  0  3.969451  0
C  C144  1  0.98840391  0.38074132  0.97528241  1  -0.058052  0  -0.081619  -0.096949  0  3.967458  0
C  C145  1  0.90547474  0.01337649  0.52454489  1  -0.010727  0  -0.081131  -0.09475  0  3.967781  0
C  C146  1  0.01159848  0.61925565  0.02471774  1  -0.058091  0  -0.081677  -0.097072  0  3.967334  0
C  C147  1  0.09452518  0.98662204  0.47545365  1  -0.010502  0  -0.081143  -0.09479  0  3.967734  0
C  C148  1  0.91555373  0.53832442  0.02637797  1  0.027238  0  -0.082002  -0.104359  0  3.980345  0
C  C149  1  0.01172461  0.88896514  0.47367649  1  -0.058315  0  -0.081718  -0.10484  0  3.981892  0
C  C150  1  0.08444972  0.46167105  0.97362325  1  0.027848  0  -0.082018  -0.104385  0  3.980394  0
C  C151  1  0.98827533  0.11103598  0.52632207  1  -0.057194  0  -0.081728  -0.104885  0  3.981933  0
C  C152  1  0.42854104  0.24035840  0.83496760  1  1.335636  0  0.184071  0.310682  0  4.102423  0
C  C153  1  0.90528654  0.59360512  0.66500311  1  1.350519  0  0.184616  0.314269  0  4.098755  0
C  C154  1  0.57145804  0.75964051  0.16503184  1  1.335618  0  0.18405  0.310614  0  4.102461  0
C  C155  1  0.09471555  0.40639557  0.33499760  1  1.350522  0  0.184635  0.314307  0  4.098905  0
C  C156  1  0.31406300  0.32453668  0.74243680  1  0.26427  0  -0.124585  -0.27757  0  3.879548  0
C  C157  1  0.08184293  0.57128412  0.75743424  1  0.273519  0  -0.125675  -0.278738  0  3.87813  0
C  C158  1  0.68593608  0.67546222  0.25756265  1  0.264267  0  -0.124573  -0.277539  0  3.879576  0
C  C159  1  0.91815810  0.42871526  0.24256629  1  0.273545  0  -0.125662  -0.278726  0  3.878082  0
C  C160  1  0.37744590  0.15275096  0.69274645  1  0.207752  0  -0.133182  -0.267387  0  3.84691  0
C  C161  1  0.96022219  0.68466297  0.80724161  1  0.16287  0  -0.132795  -0.266531  0  3.850198  0
C  C162  1  0.62255372  0.84724848  0.30725354  1  0.207642  0  -0.133166  -0.267392  0  3.84691  0
C  C163  1  0.03977953  0.31533650  0.19275874  1  0.16257  0  -0.132776  -0.266457  0  3.850121  0
N  N164  1  0.37386526  0.23740387  0.76003045  1  -1.207677  0  -0.269741  0.046258  0  3.713304  0
N  N165  1  0.97732127  0.61370351  0.73989875  1  -1.214951  0  -0.270374  0.044243  0  3.714345  0
N  N166  1  0.62613382  0.76259504  0.23996899  1  -1.207546  0  -0.269722  0.046313  0  3.713343  0
N  N167  1  0.02268010  0.38629732  0.26010124  1  -1.214936  0  -0.270425  0.044173  0  3.714426  0
O  O168  1  0.54152635  0.24096278  0.11220205  1  -1.176551  0  -0.390814  -0.620347  0  2.164872  0
O  O169  1  0.62860837  0.42913805  0.38789918  1  -1.177384  0  -0.389016  -0.618702  0  2.166064  0
O  O170  1  0.45847132  0.75903618  0.88779686  1  -1.176585  0  -0.390849  -0.620382  0  2.164927  0
O  O171  1  0.37139284  0.57086604  0.61210066  1  -1.177337  0  -0.388977  -0.618678  0  2.166086  0
O  O172  1  0.46475542  0.30032324  0.00662126  1  -1.19057  0  -0.395934  -0.644477  0  2.21994  0
O  O173  1  0.79336333  0.45790882  0.49357125  1  -1.196674  0  -0.396595  -0.645231  0  2.220885  0
O  O174  1  0.53524400  0.69967711  0.99337766  1  -1.190536  0  -0.395923  -0.644454  0  2.219971  0
O  O175  1  0.20663769  0.54209337  0.50642840  1  -1.196807  0  -0.396616  -0.645284  0  2.220865  0
O  O176  1  0.77454957  0.22465985  0.96202618  1  -1.213141  0  -0.387399  -0.655805  0  2.209284  0
O  O177  1  0.76240963  0.81289509  0.53788059  1  -1.19815  0  -0.386464  -0.653627  0  2.208969  0
O  O178  1  0.22545143  0.77533695  0.03797433  1  -1.213099  0  -0.387413  -0.655855  0  2.209291  0
O  O179  1  0.23759300  0.18710614  0.46212066  1  -1.19815  0  -0.386543  -0.653703  0  2.208905  0
O  O180  1  0.73069395  0.36708017  0.03501682  1  -1.180295  0  -0.376887  -0.614363  0  2.146063  0
O  O181  1  0.83164361  0.69562253  0.46503110  1  -1.180472  0  -0.376379  -0.613318  0  2.146683  0
O  O182  1  0.26931092  0.63291782  0.96498495  1  -1.18003  0  -0.37691  -0.614449  0  2.145931  0
O  O183  1  0.16835566  0.30437828  0.53496854  1  -1.180499  0  -0.376366  -0.613275  0  2.146658  0
O  O184  1  0.54411170  0.65634370  0.39387980  1  -1.174547  0  -0.342161  -0.586681  0  2.20299  0
O  O185  1  0.76247601  0.15052858  0.10628803  1  -1.178374  0  -0.342421  -0.588082  0  2.205074  0
O  O186  1  0.45588835  0.34366189  0.60612149  1  -1.174543  0  -0.342247  -0.586795  0  2.202972  0
O  O187  1  0.23752255  0.84946956  0.89371177  1  -1.178312  0  -0.342396  -0.588012  0  2.205008  0
O  O188  1  0.44024321  0.55651147  0.44977748  1  -1.223856  0  -0.437465  -0.73937  0  2.338305  0
O  O189  1  0.60672687  0.99070531  0.05028714  1  -1.227628  0  -0.436506  -0.739812  0  2.336703  0
O  O190  1  0.55975933  0.44348504  0.55022195  1  -1.223857  0  -0.437467  -0.739349  0  2.338197  0
O  O191  1  0.39327066  0.00929410  0.94971250  1  -1.227507  0  -0.436507  -0.739798  0  2.336735  0
O  O192  1  0.62524242  0.01131338  0.88296352  1  -1.217812  0  -0.597418  -0.787917  0  1.929562  0
O  O193  1  0.62857364  0.74252798  0.61714898  1  -1.243055  0  -0.596621  -0.787012  0  1.930441  0
O  O194  1  0.37475735  0.98868561  0.11703574  1  -1.217811  0  -0.59746  -0.787967  0  1.929502  0
O  O195  1  0.37142652  0.25747201  0.38285155  1  -1.243056  0  -0.596612  -0.786983  0  1.930465  0
O  O196  1  0.48903922  0.17283173  0.85528343  1  -1.20324  0  -0.389034  -0.598815  0  2.361948  0
O  O197  1  0.81762528  0.63402452  0.64481345  1  -1.20954  0  -0.388448  -0.599399  0  2.3589  0
O  O198  1  0.51095985  0.82716717  0.14471602  1  -1.203231  0  -0.389015  -0.598767  0  2.361946  0
O  O199  1  0.18237784  0.36597770  0.35518655  1  -1.209573  0  -0.388435  -0.599433  0  2.359033  0
