# generated using pymatgen
data_Cd2H8C19(O3F2)3
_symmetry_space_group_name_H-M   'P 1'
_cell_length_a   7.86330120
_cell_length_b   22.93061919
_cell_length_c   22.93193612
_cell_angle_alpha   118.70293444
_cell_angle_beta   96.55437969
_cell_angle_gamma   96.58061758
_symmetry_Int_Tables_number   1
_chemical_formula_structural   Cd2H8C19(O3F2)3
_chemical_formula_sum   'Cd12 H48 C114 O54 F36'
_cell_volume   3534.31734000
_cell_formula_units_Z   6
loop_
 _symmetry_equiv_pos_site_id
 _symmetry_equiv_pos_as_xyz
  1  'x, y, z'
loop_
 _atom_site_type_symbol
 _atom_site_label
 _atom_site_symmetry_multiplicity
 _atom_site_fract_x
 _atom_site_fract_y
 _atom_site_fract_z
 _atom_site_occupancy
 _atom_site_pbe_bader_charge
 _atom_site_pbe_bader_spin_density
 _atom_site_pbe_cm5_charge
 _atom_site_pbe_ddec_charge
 _atom_site_pbe_ddec_spin_density
 _atom_site_pbe_ddec_sum_bond_order
 _atom_site_pbe_magmom
Cd  Cd0  1  0.18419663  0.96379535  0.43696454  1  1.378443  0  0.806346  1.110741  0  2.096319  0
Cd  Cd1  1  0.22043141  0.47305162  0.03609110  1  1.376896  0  0.806262  1.110497  0  2.096121  0
Cd  Cd2  1  0.74718628  0.56305795  0.52685636  1  1.377203  0  0.806399  1.111058  0  2.095695  0
Cd  Cd3  1  0.81583300  0.03620918  0.56303114  1  1.378344  0  0.806412  1.110877  0  2.096349  0
Cd  Cd4  1  0.77955317  0.52695240  0.96390480  1  1.376949  0  0.806198  1.110372  0  2.096219  0
Cd  Cd5  1  0.25281631  0.43694354  0.47314555  1  1.377043  0  0.806388  1.111075  0  2.095722  0
Cd  Cd6  1  0.57428401  0.87393850  0.39715968  1  1.327166  0  0.78789  1.056364  0  1.941987  0
Cd  Cd7  1  0.70076883  0.52327068  0.12610216  1  1.327901  0  0.787796  1.056276  0  1.943366  0
Cd  Cd8  1  0.17690319  0.60287977  0.47680470  1  1.329991  0  0.787752  1.056616  0  1.941411  0
Cd  Cd9  1  0.42572547  0.12606401  0.60284124  1  1.326999  0  0.787885  1.056375  0  1.942133  0
Cd  Cd10  1  0.29922755  0.47673131  0.87389409  1  1.327865  0  0.787846  1.056393  0  1.943204  0
Cd  Cd11  1  0.82309274  0.39712121  0.52319540  1  1.329915  0  0.787775  1.056671  0  1.941448  0
H  H12  1  0.85347579  0.00171130  0.29461087  1  0.096768  0  0.101737  0.109737  0  1.02347  0
H  H13  1  0.85110502  0.29290074  0.99840077  1  0.108097  0  0.10184  0.109617  0  1.023844  0
H  H14  1  0.55901489  0.70531904  0.70713349  1  0.111468  0  0.102101  0.110811  0  1.022588  0
H  H15  1  0.14651007  0.99828259  0.70537498  1  0.096974  0  0.101691  0.109644  0  1.023429  0
H  H16  1  0.14888808  0.70711240  0.00160987  1  0.107585  0  0.101887  0.109688  0  1.023767  0
H  H17  1  0.44099828  0.29467536  0.29287020  1  0.11145  0  0.102096  0.110784  0  1.022634  0
H  H18  1  0.64494585  0.03249884  0.23079836  1  0.096482  0  0.0941  0.101811  0  1.042354  0
H  H19  1  0.61172513  0.19831086  0.96763184  1  0.099945  0  0.09394  0.101571  0  1.04313  0
H  H20  1  0.41425941  0.76915665  0.80171781  1  0.090664  0  0.093887  0.10145  0  1.043314  0
H  H21  1  0.35502726  0.96749759  0.76919476  1  0.096644  0  0.094088  0.101812  0  1.042252  0
H  H22  1  0.38827365  0.80170077  0.03238221  1  0.099678  0  0.09395  0.101669  0  1.043014  0
H  H23  1  0.58575266  0.23084332  0.19828373  1  0.090638  0  0.093844  0.101424  0  1.043229  0
H  H24  1  0.34593038  0.09199740  0.38991250  1  0.101138  0  0.108884  0.122267  0  1.003132  0
H  H25  1  0.25349027  0.29777930  0.90780505  1  0.090784  0  0.108788  0.121916  0  1.003364  0
H  H26  1  0.95615453  0.60994101  0.70223915  1  0.096184  0  0.108836  0.122029  0  1.002995  0
H  H27  1  0.65408609  0.90800359  0.61009449  1  0.100869  0  0.108865  0.12227  0  1.00303  0
H  H28  1  0.74650407  0.70221611  0.09218533  1  0.090069  0  0.10875  0.121875  0  1.003237  0
H  H29  1  0.04384935  0.39006048  0.29776368  1  0.096156  0  0.10884  0.122017  0  1.003013  0
H  H30  1  0.50756487  0.20694427  0.37550183  1  0.141293  0  0.10499  0.118797  0  1.023512  0
H  H31  1  0.30010677  0.16836461  0.79305841  1  0.122013  0  0.105175  0.118423  0  1.024053  0
H  H32  1  0.13166692  0.62437344  0.83142640  1  0.130427  0  0.105238  0.118841  0  1.023794  0
H  H33  1  0.49241977  0.79305469  0.62449425  1  0.141172  0  0.104983  0.118778  0  1.023441  0
H  H34  1  0.69989815  0.83163130  0.20694134  1  0.122109  0  0.105196  0.118501  0  1.024002  0
H  H35  1  0.86833285  0.37562754  0.16857516  1  0.130417  0  0.105248  0.118884  0  1.023725  0
H  H36  1  0.86868056  0.18575143  0.35292002  1  0.055117  0  0.103974  0.115063  0  0.996839  0
H  H37  1  0.68224530  0.16701420  0.81408178  1  0.090343  0  0.104134  0.11528  0  0.995843  0
H  H38  1  0.51569580  0.64739062  0.83320980  1  0.091874  0  0.103821  0.115077  0  0.996737  0
H  H39  1  0.13129957  0.81424296  0.64710596  1  0.055093  0  0.103937  0.1151  0  0.996865  0
H  H40  1  0.31774940  0.83297411  0.18591218  1  0.090258  0  0.104094  0.115295  0  0.996033  0
H  H41  1  0.48431109  0.35261442  0.16679092  1  0.091893  0  0.103828  0.115035  0  0.996691  0
H  H42  1  0.98616694  0.09283981  0.27148899  1  0.104485  0  0.096914  0.102417  0  1.038672  0
H  H43  1  0.89251858  0.17852504  0.90706004  1  0.074314  0  0.096983  0.10253  0  1.038952  0
H  H44  1  0.71491610  0.72871326  0.82167325  1  0.105082  0  0.096851  0.10303  0  1.038485  0
H  H45  1  0.01379675  0.90715255  0.72852843  1  0.103793  0  0.096864  0.102437  0  1.038655  0
H  H46  1  0.10748327  0.82146986  0.09293824  1  0.07425  0  0.096967  0.102486  0  1.038958  0
H  H47  1  0.28509569  0.27129380  0.17833344  1  0.105355  0  0.096855  0.102981  0  1.038505  0
H  H48  1  0.87006126  0.83049189  0.41083057  1  0.661909  0  0.291558  0.388975  0  0.943373  0
H  H49  1  0.04018019  0.58040603  0.16950727  1  0.635242  0  0.291876  0.389257  0  0.9429  0
H  H50  1  0.45911628  0.58925882  0.41969607  1  0.651871  0  0.291668  0.389181  0  0.943208  0
H  H51  1  0.12994645  0.16950960  0.58917154  1  0.661926  0  0.291564  0.389049  0  0.943273  0
H  H52  1  0.95981541  0.41959191  0.83048351  1  0.635266  0  0.291872  0.389208  0  0.942947  0
H  H53  1  0.54088377  0.41073507  0.58030078  1  0.65183  0  0.291664  0.389197  0  0.943211  0
H  H54  1  0.80480138  0.83358481  0.47496010  1  0.608121  0  0.324833  0.412783  0  0.864228  0
H  H55  1  0.97194189  0.64153448  0.16656545  1  0.607601  0  0.324951  0.412633  0  0.864362  0
H  H56  1  0.32977073  0.52516970  0.35859189  1  0.614581  0  0.324814  0.412587  0  0.864366  0
H  H57  1  0.19518997  0.16640958  0.52503710  1  0.608068  0  0.324779  0.412721  0  0.864212  0
H  H58  1  0.02805575  0.35846498  0.83342570  1  0.607596  0  0.324929  0.412553  0  0.864267  0
H  H59  1  0.67023475  0.47481963  0.64140645  1  0.614837  0  0.324821  0.412633  0  0.864283  0
C  C60  1  0.72448116  0.03202664  0.37925578  1  -0.050089  0  -0.005174  -0.036199  0  3.910749  0
C  C61  1  0.69198733  0.34720385  0.96796709  1  0.017863  0  -0.004779  -0.034929  0  3.908126  0
C  C62  1  0.34526341  0.62066546  0.65281891  1  -0.057213  0  -0.005629  -0.035747  0  3.909929  0
C  C63  1  0.27553850  0.96797333  0.62073733  1  -0.050443  0  -0.005171  -0.036066  0  3.910732  0
C  C64  1  0.30800035  0.65280119  0.03203160  1  0.019148  0  -0.004909  -0.035057  0  3.907898  0
C  C65  1  0.65474616  0.37932944  0.34718402  1  -0.056956  0  -0.005658  -0.035723  0  3.909686  0
C  C66  1  0.74351688  0.02280558  0.31579831  1  0.070158  0  -0.078384  -0.072493  0  3.951408  0
C  C67  1  0.72010825  0.29296885  0.97723552  1  -0.071027  0  -0.078728  -0.073001  0  3.950815  0
C  C68  1  0.42788160  0.68411443  0.70707106  1  0.048496  0  -0.078717  -0.073875  0  3.950363  0
C  C69  1  0.25648386  0.97718983  0.68419232  1  0.070109  0  -0.07831  -0.072248  0  3.951116  0
C  C70  1  0.27988510  0.70703974  0.02277033  1  -0.070846  0  -0.078624  -0.073011  0  3.950707  0
C  C71  1  0.57213156  0.31587996  0.29293176  1  0.048364  0  -0.078682  -0.073823  0  3.9502  0
C  C72  1  0.62446224  0.03999781  0.27979197  1  -0.1018  0  -0.092226  -0.129191  0  3.980353  0
C  C73  1  0.58380229  0.23976200  0.96004927  1  -0.014372  0  -0.092451  -0.129383  0  3.979798  0
C  C74  1  0.34479979  0.72013769  0.76026064  1  -0.089636  0  -0.092398  -0.128811  0  3.979065  0
C  C75  1  0.37552547  0.95999962  0.72020219  1  -0.101242  0  -0.092225  -0.1293  0  3.980354  0
C  C76  1  0.41619644  0.76024456  0.03995581  1  -0.014338  0  -0.092496  -0.129534  0  3.979876  0
C  C77  1  0.65521410  0.27986076  0.23974198  1  -0.090043  0  -0.092333  -0.128769  0  3.979003  0
C  C78  1  0.57932775  0.05730734  0.40565316  1  0.040122  0  -0.005738  -0.019419  0  3.916502  0
C  C79  1  0.52156943  0.34825842  0.94258302  1  -0.000284  0  -0.005685  -0.019846  0  3.915615  0
C  C80  1  0.17370859  0.59425222  0.65172078  1  0.026123  0  -0.004965  -0.018864  0  3.914362  0
C  C81  1  0.42070138  0.94269618  0.59434376  1  0.040465  0  -0.005754  -0.01981  0  3.916878  0
C  C82  1  0.47842591  0.65174155  0.05740960  1  -0.00088  0  -0.005534  -0.019487  0  3.915205  0
C  C83  1  0.82629507  0.40574623  0.34828320  1  0.026181  0  -0.005021  -0.019048  0  3.91446  0
C  C84  1  0.45769263  0.07290950  0.36848855  1  -0.025168  0  -0.07444  -0.118272  0  3.88895  0
C  C85  1  0.38427268  0.29547254  0.92696451  1  0.028953  0  -0.074534  -0.118029  0  3.888576  0
C  C86  1  0.08932074  0.63137489  0.70453923  1  0.02554  0  -0.074848  -0.118226  0  3.886306  0
C  C87  1  0.54232122  0.92709149  0.63151311  1  -0.025138  0  -0.074402  -0.118171  0  3.888678  0
C  C88  1  0.61571987  0.70452692  0.07302994  1  0.029836  0  -0.074592  -0.118123  0  3.888555  0
C  C89  1  0.91068393  0.36862559  0.29546488  1  0.025606  0  -0.074813  -0.118108  0  3.886362  0
C  C90  1  0.48116728  0.06622091  0.30616275  1  -0.003903  0  -0.01323  0.086383  0  3.942009  0
C  C91  1  0.41431784  0.23986836  0.93372956  1  -0.011684  0  -0.012712  0.086718  0  3.94195  0
C  C92  1  0.17511022  0.69373404  0.76014010  1  0.008481  0  -0.012381  0.087651  0  3.940162  0
C  C93  1  0.51883404  0.93377805  0.69383833  1  -0.004584  0  -0.01322  0.086539  0  3.941896  0
C  C94  1  0.58567858  0.76013363  0.06626931  1  -0.011824  0  -0.012706  0.0867  0  3.942074  0
C  C95  1  0.82489669  0.30626847  0.23986028  1  0.008922  0  -0.012468  0.087528  0  3.940191  0
C  C96  1  0.85579266  0.01062654  0.41389334  1  1.560333  0  0.214916  0.60275  0  4.177262  0
C  C97  1  0.84481787  0.40326220  0.98941296  1  1.551373  0  0.215533  0.603148  0  4.175973  0
C  C98  1  0.44179495  0.58605799  0.59672864  1  1.573974  0  0.215537  0.603705  0  4.175918  0
C  C99  1  0.14423951  0.98937800  0.58610200  1  1.559732  0  0.214955  0.60279  0  4.177026  0
C  C100  1  0.15517208  0.59674486  0.01058461  1  1.551686  0  0.215544  0.603196  0  4.175598  0
C  C101  1  0.55821922  0.41394097  0.40327641  1  1.573546  0  0.215635  0.603845  0  4.175346  0
C  C102  1  0.55903733  0.07481655  0.47581391  1  1.558146  0  0.213154  0.593176  0  4.178731  0
C  C103  1  0.48392927  0.40094700  0.92511618  1  1.555913  0  0.212972  0.593111  0  4.17946  0
C  C104  1  0.08311995  0.52412848  0.59899325  1  1.566561  0  0.213567  0.594286  0  4.178626  0
C  C105  1  0.44100873  0.92518494  0.52418398  1  1.557966  0  0.213216  0.593418  0  4.178688  0
C  C106  1  0.51605558  0.59905499  0.07487920  1  1.556335  0  0.212886  0.592828  0  4.179841  0
C  C107  1  0.91687572  0.47587199  0.40100747  1  1.566804  0  0.213456  0.594157  0  4.178652  0
C  C108  1  0.34805103  0.08596647  0.26745453  1  0.057014  0  -0.009369  -0.265779  0  3.845076  0
C  C109  1  0.26135837  0.18143146  0.91405525  1  0.08032  0  -0.009627  -0.266132  0  3.844184  0
C  C110  1  0.08061331  0.73250791  0.81856820  1  0.04276  0  -0.009848  -0.267631  0  3.847187  0
C  C111  1  0.65193270  0.91403045  0.73255101  1  0.062703  0  -0.009496  -0.266315  0  3.845832  0
C  C112  1  0.73864576  0.81856800  0.08594444  1  0.080242  0  -0.009596  -0.265879  0  3.84384  0
C  C113  1  0.91939310  0.26749358  0.18143168  1  0.043001  0  -0.009774  -0.267426  0  3.847209  0
C  C114  1  0.44116076  0.11478179  0.22714109  1  1.723433  0  0.303816  0.675072  0  3.955975  0
C  C115  1  0.32557563  0.11231707  0.88544259  1  1.703378  0  0.303701  0.674552  0  3.956247  0
C  C116  1  0.21398576  0.77296924  0.88767883  1  1.722159  0  0.304583  0.676504  0  3.956502  0
C  C117  1  0.55880707  0.88521919  0.77286405  1  1.723513  0  0.303953  0.675461  0  3.955037  0
C  C118  1  0.67443641  0.88768290  0.11455676  1  1.703223  0  0.303611  0.674524  0  3.95608  0
C  C119  1  0.78601550  0.22703479  0.11232119  1  1.721654  0  0.304584  0.67624  0  3.956828  0
C  C120  1  0.21457588  0.02037045  0.21585284  1  1.726121  0  0.301985  0.67694  0  3.97844  0
C  C121  1  0.19343722  0.19555843  0.97967701  1  1.723239  0  0.301119  0.674748  0  3.98242  0
C  C122  1  0.99867868  0.78398807  0.80438774  1  1.734048  0  0.302048  0.678485  0  3.975518  0
C  C123  1  0.78540349  0.97962547  0.78415030  1  1.720646  0  0.301985  0.677002  0  3.978589  0
C  C124  1  0.80656873  0.80443951  0.02032507  1  1.724781  0  0.30124  0.675053  0  3.981841  0
C  C125  1  0.00132646  0.21601089  0.19561043  1  1.734079  0  0.302024  0.678425  0  3.975491  0
C  C126  1  0.25838428  0.14156390  0.31596352  1  -0.058097  0  -0.021659  0.069562  0  3.964432  0
C  C127  1  0.11610657  0.17423363  0.85837444  1  -0.006643  0  -0.021151  0.070788  0  3.961338  0
C  C128  1  0.94236271  0.68405654  0.82573199  1  -0.023497  0  -0.021467  0.070408  0  3.964314  0
C  C129  1  0.74158764  0.85843759  0.68404246  1  -0.058297  0  -0.021505  0.069771  0  3.964299  0
C  C130  1  0.88389349  0.82576026  0.14162328  1  -0.006543  0  -0.021244  0.070508  0  3.961573  0
C  C131  1  0.05764627  0.31594495  0.17426885  1  -0.023529  0  -0.021523  0.070291  0  3.964377  0
C  C132  1  0.36623264  0.20097201  0.36812496  1  -0.093041  0  -0.08492  -0.136664  0  3.948822  0
C  C133  1  0.16470829  0.16695846  0.79897008  1  -0.052498  0  -0.08543  -0.137364  0  3.949237  0
C  C134  1  0.99779145  0.63182794  0.83291720  1  0.00458  0  -0.085756  -0.137958  0  3.950312  0
C  C135  1  0.63375664  0.79903100  0.63187892  1  -0.09318  0  -0.084856  -0.136648  0  3.948706  0
C  C136  1  0.83529969  0.83303847  0.20102854  1  -0.052236  0  -0.085399  -0.137404  0  3.949264  0
C  C137  1  0.00220807  0.36817254  0.16708410  1  0.004542  0  -0.085732  -0.137951  0  3.950231  0
C  C138  1  0.29976516  0.25576201  0.41366826  1  0.059974  0  -0.018976  -0.065975  0  3.953326  0
C  C139  1  0.04356820  0.15775042  0.74416664  1  -0.018863  0  -0.018375  -0.064663  0  3.950692  0
C  C140  1  0.88557770  0.58629562  0.84214254  1  -0.048036  0  -0.018266  -0.063761  0  3.950585  0
C  C141  1  0.70021851  0.74423998  0.58633623  1  0.06002  0  -0.019055  -0.065825  0  3.953231  0
C  C142  1  0.95643955  0.84224094  0.25583016  1  -0.019186  0  -0.018557  -0.064816  0  3.950662  0
C  C143  1  0.11441641  0.41370435  0.15785483  1  -0.04814  0  -0.018296  -0.063792  0  3.950482  0
C  C144  1  0.11819126  0.25104142  0.40881566  1  -0.049529  0  0.002881  -0.007669  0  3.901442  0
C  C145  1  0.86666972  0.15764971  0.74887684  1  -0.064224  0  0.003092  -0.00764  0  3.901077  0
C  C146  1  0.70894717  0.59129210  0.84240243  1  -0.013888  0  0.003195  -0.008364  0  3.901813  0
C  C147  1  0.88179324  0.74895957  0.59119360  1  -0.050175  0  0.002765  -0.007811  0  3.901608  0
C  C148  1  0.13333802  0.84234418  0.25112117  1  -0.064658  0  0.00318  -0.007507  0  3.9011  0
C  C149  1  0.29104999  0.40871142  0.15759632  1  -0.013961  0  0.003255  -0.008344  0  3.902059  0
C  C150  1  0.00974196  0.19081098  0.35757338  1  0.040053  0  -0.084131  -0.092061  0  3.94528  0
C  C151  1  0.81825115  0.16658636  0.80905279  1  0.042781  0  -0.084815  -0.092741  0  3.945925  0
C  C152  1  0.65198449  0.64261150  0.83350381  1  -0.041075  0  -0.084748  -0.092135  0  3.945784  0
C  C153  1  0.99023602  0.80918442  0.64244342  1  0.041513  0  -0.084066  -0.092131  0  3.944975  0
C  C154  1  0.18175812  0.83340803  0.19094466  1  0.042446  0  -0.084708  -0.092666  0  3.94603  0
C  C155  1  0.34801729  0.35739354  0.16649760  1  -0.040981  0  -0.084849  -0.092184  0  3.946058  0
C  C156  1  0.07769128  0.13734109  0.31121411  1  -0.00419  0  -0.088888  -0.115746  0  3.972957  0
C  C157  1  0.93959008  0.17371636  0.86255778  1  -0.013423  0  -0.088745  -0.115584  0  3.972802  0
C  C158  1  0.76651594  0.68892730  0.82637803  1  -0.004217  0  -0.088974  -0.116607  0  3.973134  0
C  C159  1  0.92228559  0.86265736  0.68879801  1  -0.003893  0  -0.088962  -0.115846  0  3.972233  0
C  C160  1  0.06041511  0.82628007  0.13744267  1  -0.012806  0  -0.088734  -0.115502  0  3.972761  0
C  C161  1  0.23349277  0.31107875  0.17362631  1  -0.004551  0  -0.08892  -0.116438  0  3.97312  0
C  C162  1  0.43090348  0.31689721  0.46620138  1  1.551618  0  0.214906  0.593103  0  4.176772  0
C  C163  1  0.11367994  0.14922455  0.68306129  1  1.555609  0  0.214501  0.591333  0  4.178318  0
C  C164  1  0.96394222  0.53366807  0.85064677  1  1.555923  0  0.214093  0.591571  0  4.177346  0
C  C165  1  0.56908857  0.68310124  0.53379300  1  1.551677  0  0.214803  0.592749  0  4.177082  0
C  C166  1  0.88634057  0.85077694  0.31694086  1  1.554734  0  0.214584  0.591274  0  4.178117  0
C  C167  1  0.03605214  0.46633241  0.14935041  1  1.555694  0  0.214176  0.591612  0  4.177147  0
C  C168  1  0.03063956  0.30689082  0.45383205  1  1.577861  0  0.207837  0.590104  0  4.189702  0
C  C169  1  0.72336472  0.14686883  0.69303538  1  1.582061  0  0.206497  0.587599  0  4.191129  0
C  C170  1  0.57630052  0.54631812  0.85328475  1  1.58523  0  0.20704  0.588675  0  4.189408  0
C  C171  1  0.96935415  0.69311320  0.54618033  1  1.576739  0  0.207862  0.590025  0  4.189449  0
C  C172  1  0.27663558  0.85312556  0.30696128  1  1.58194  0  0.206427  0.587514  0  4.191326  0
C  C173  1  0.42368358  0.45368235  0.14670987  1  1.585051  0  0.207091  0.588687  0  4.18958  0
O  O174  1  0.01214845  0.02009585  0.40626273  1  -1.126885  0  -0.310082  -0.532872  0  2.225007  0
O  O175  1  0.99165902  0.38614377  0.97989865  1  -1.130551  0  -0.310345  -0.533235  0  2.225383  0
O  O176  1  0.60575280  0.59360096  0.61380998  1  -1.148107  0  -0.310178  -0.533114  0  2.223654  0
O  O177  1  0.98787631  0.97990919  0.59373344  1  -1.126492  0  -0.310122  -0.532968  0  2.224844  0
O  O178  1  0.00833041  0.61386228  0.02009711  1  -1.130679  0  -0.310319  -0.533238  0  2.225159  0
O  O179  1  0.39424993  0.40638786  0.38619282  1  -1.147538  0  -0.31033  -0.533275  0  2.223157  0
O  O180  1  0.80574654  0.98116931  0.44625385  1  -1.197074  0  -0.342031  -0.652268  0  2.436823  0
O  O181  1  0.82438128  0.46509050  0.01889507  1  -1.199233  0  -0.342309  -0.652448  0  2.435403  0
O  O182  1  0.35936344  0.55378702  0.53493687  1  -1.203163  0  -0.342308  -0.652961  0  2.436899  0
O  O183  1  0.19428409  0.01883218  0.55373735  1  -1.196748  0  -0.342033  -0.652247  0  2.436818  0
O  O184  1  0.17559714  0.53491403  0.98109822  1  -1.199593  0  -0.34244  -0.652582  0  2.435152  0
O  O185  1  0.64064530  0.44621650  0.46506756  1  -1.20326  0  -0.342221  -0.652923  0  2.437136  0
O  O186  1  0.69062472  0.10301043  0.52354245  1  -1.161027  0  -0.318444  -0.555049  0  2.240714  0
O  O187  1  0.58764385  0.42063325  0.89712009  1  -1.161421  0  -0.318565  -0.554869  0  2.241877  0
O  O188  1  0.16690477  0.47637051  0.57937017  1  -1.160112  0  -0.318949  -0.555718  0  2.241246  0
O  O189  1  0.30943201  0.89699714  0.47645441  1  -1.161155  0  -0.318522  -0.555131  0  2.240753  0
O  O190  1  0.41232332  0.57936672  0.10287015  1  -1.161456  0  -0.31855  -0.554758  0  2.241774  0
O  O191  1  0.83309931  0.52362896  0.42062603  1  -1.160165  0  -0.31892  -0.555632  0  2.241266  0
O  O192  1  0.40325579  0.06424124  0.48625102  1  -1.156704  0  -0.328296  -0.592083  0  2.373795  0
O  O193  1  0.33858211  0.42186703  0.93557838  1  -1.160967  0  -0.328053  -0.592024  0  2.375203  0
O  O194  1  0.91695472  0.51376423  0.57802114  1  -1.174968  0  -0.328441  -0.593064  0  2.375471  0
O  O195  1  0.59680185  0.93576533  0.51375759  1  -1.156382  0  -0.328295  -0.592098  0  2.373876  0
O  O196  1  0.66139280  0.57813041  0.06441573  1  -1.161328  0  -0.328007  -0.591955  0  2.375611  0
O  O197  1  0.08303870  0.48623675  0.42198497  1  -1.175337  0  -0.328352  -0.592942  0  2.37542  0
O  O198  1  0.37712604  0.36895154  0.50902378  1  -1.182007  0  -0.321871  -0.578306  0  2.281996  0
O  O199  1  0.00790013  0.14008738  0.63103612  1  -1.173847  0  -0.321975  -0.578115  0  2.282816  0
O  O200  1  0.86722021  0.49089449  0.85993923  1  -1.176932  0  -0.321359  -0.577393  0  2.283647  0
O  O201  1  0.62286936  0.63104843  0.49097407  1  -1.182082  0  -0.321737  -0.578041  0  2.28216  0
O  O202  1  0.99212114  0.85991563  0.36896636  1  -1.173091  0  -0.32193  -0.577974  0  2.282771  0
O  O203  1  0.13277543  0.50910598  0.14005800  1  -1.177022  0  -0.321383  -0.57745  0  2.283623  0
O  O204  1  0.58969874  0.31255943  0.46481438  1  -1.131322  0  -0.316128  -0.528086  0  2.268565  0
O  O205  1  0.27678929  0.15211544  0.68739371  1  -1.132638  0  -0.315831  -0.527062  0  2.268701  0
O  O206  1  0.12405806  0.53495737  0.84757634  1  -1.147183  0  -0.31595  -0.52774  0  2.268971  0
O  O207  1  0.41028480  0.68744004  0.53517449  1  -1.131316  0  -0.316075  -0.527998  0  2.268546  0
O  O208  1  0.72322793  0.84787946  0.31260645  1  -1.132252  0  -0.315877  -0.52702  0  2.268381  0
O  O209  1  0.87593270  0.46503855  0.15241459  1  -1.146745  0  -0.315991  -0.527718  0  2.268933  0
O  O210  1  0.96609064  0.30402682  0.50011182  1  -1.109931  0  -0.296359  -0.487319  0  2.109178  0
O  O211  1  0.66168124  0.19602710  0.69597357  1  -1.110751  0  -0.295358  -0.485941  0  2.109798  0
O  O212  1  0.46537736  0.50005401  0.80414532  1  -1.112597  0  -0.295596  -0.486168  0  2.108971  0
O  O213  1  0.03391549  0.69598684  0.49989825  1  -1.109576  0  -0.296369  -0.48732  0  2.108698  0
O  O214  1  0.33831599  0.80397135  0.30402755  1  -1.110991  0  -0.295254  -0.48581  0  2.110028  0
O  O215  1  0.53461772  0.49994546  0.19584617  1  -1.112347  0  -0.295617  -0.486188  0  2.109105  0
O  O216  1  0.01002347  0.35362614  0.43828297  1  -1.159656  0  -0.343266  -0.621629  0  2.308463  0
O  O217  1  0.65614589  0.08460578  0.64622671  1  -1.163664  0  -0.343235  -0.621266  0  2.309517  0
O  O218  1  0.57142140  0.56181024  0.91554933  1  -1.160771  0  -0.342959  -0.621125  0  2.308434  0
O  O219  1  0.98997350  0.64637180  0.56171702  1  -1.159043  0  -0.343275  -0.621549  0  2.308519  0
O  O220  1  0.34387198  0.91539318  0.35376628  1  -1.16349  0  -0.343258  -0.621302  0  2.309296  0
O  O221  1  0.42856114  0.43819227  0.08444533  1  -1.160789  0  -0.342984  -0.621088  0  2.308377  0
O  O222  1  0.76672501  0.81737343  0.42692068  1  -1.22056  0  -0.573154  -0.7351  0  1.98363  0
O  O223  1  0.94997879  0.60959595  0.18264663  1  -1.192872  0  -0.573701  -0.73547  0  1.983393  0
O  O224  1  0.33975230  0.57319593  0.39046642  1  -1.21877  0  -0.573478  -0.735355  0  1.982739  0
O  O225  1  0.23327603  0.18262502  0.57307709  1  -1.220509  0  -0.573124  -0.735106  0  1.983508  0
O  O226  1  0.05001859  0.39040301  0.81734427  1  -1.192847  0  -0.573679  -0.735355  0  1.983218  0
O  O227  1  0.66024701  0.42679390  0.60952888  1  -1.219039  0  -0.573458  -0.735399  0  1.982701  0
F  F228  1  0.33933836  0.14828134  0.20702184  1  -0.618873  0  -0.095891  -0.203776  0  1.39358  0
F  F229  1  0.19022406  0.05868764  0.85203473  1  -0.620695  0  -0.095723  -0.20375  0  1.394991  0
F  F230  1  0.13223182  0.79329629  0.94129499  1  -0.617122  0  -0.095828  -0.203864  0  1.39603  0
F  F231  1  0.66063278  0.85172623  0.79298877  1  -0.618858  0  -0.09588  -0.203782  0  1.39343  0
F  F232  1  0.80978900  0.94131183  0.14796311  1  -0.620733  0  -0.095688  -0.203772  0  1.395032  0
F  F233  1  0.86777838  0.20671280  0.05870781  1  -0.617165  0  -0.095848  -0.203801  0  1.396189  0
F  F234  1  0.48573889  0.06667344  0.17013530  1  -0.614017  0  -0.09688  -0.200335  0  1.32245  0
F  F235  1  0.41822405  0.10354227  0.93364597  1  -0.611102  0  -0.097087  -0.200189  0  1.321704  0
F  F236  1  0.31577982  0.82987469  0.89640114  1  -0.612267  0  -0.097124  -0.200732  0  1.322471  0
F  F237  1  0.51421529  0.93333109  0.82986624  1  -0.614152  0  -0.096918  -0.20036  0  1.322169  0
F  F238  1  0.58178469  0.89645872  0.06635593  1  -0.611028  0  -0.097064  -0.200197  0  1.321718  0
F  F239  1  0.68423325  0.17012477  0.10359758  1  -0.612194  0  -0.097097  -0.200679  0  1.322554  0
F  F240  1  0.59133179  0.15988028  0.26679274  1  -0.62407  0  -0.083492  -0.190964  0  1.3751  0
F  F241  1  0.43067997  0.10674095  0.84031750  1  -0.618839  0  -0.08352  -0.190988  0  1.374803  0
F  F242  1  0.32435442  0.73335088  0.89327931  1  -0.626178  0  -0.084009  -0.191588  0  1.374785  0
F  F243  1  0.40864629  0.84011564  0.73320948  1  -0.623962  0  -0.083525  -0.191093  0  1.374992  0
F  F244  1  0.56933823  0.89326104  0.15968481  1  -0.618791  0  -0.083489  -0.191007  0  1.374696  0
F  F245  1  0.67563540  0.26665061  0.10672516  1  -0.625925  0  -0.084017  -0.19154  0  1.374731  0
F  F246  1  0.10171384  0.03083896  0.17372182  1  -0.607197  0  -0.097023  -0.198149  0  1.331468  0
F  F247  1  0.07000483  0.14301841  0.96931144  1  -0.609735  0  -0.096854  -0.197662  0  1.332686  0
F  F248  1  0.92766441  0.82616714  0.85686945  1  -0.610095  0  -0.096863  -0.197626  0  1.3305  0
F  F249  1  0.89826420  0.96916456  0.82628450  1  -0.607482  0  -0.097019  -0.198127  0  1.331693  0
F  F250  1  0.93000752  0.85697447  0.03068582  1  -0.61074  0  -0.096908  -0.197776  0  1.332615  0
F  F251  1  0.07232918  0.17383182  0.14312523  1  -0.610202  0  -0.09684  -0.197553  0  1.330407  0
F  F252  1  0.29238090  0.96935314  0.17604312  1  -0.619358  0  -0.096523  -0.201977  0  1.374004  0
F  F253  1  0.32224688  0.20683626  0.03073403  1  -0.618192  0  -0.095988  -0.20105  0  1.374824  0
F  F254  1  0.11630299  0.82378537  0.79314342  1  -0.618964  0  -0.09646  -0.201363  0  1.373772  0
F  F255  1  0.70760509  0.03064582  0.82395956  1  -0.619307  0  -0.096526  -0.201976  0  1.373983  0
F  F256  1  0.67776034  0.79316169  0.96926722  1  -0.618531  0  -0.096  -0.201105  0  1.374536  0
F  F257  1  0.88370087  0.17621612  0.20685723  1  -0.618893  0  -0.096436  -0.201351  0  1.373788  0
F  F258  1  0.11992467  0.99716172  0.24935941  1  -0.620064  0  -0.083841  -0.187554  0  1.359886  0
F  F259  1  0.12213914  0.25227355  0.00276506  1  -0.617533  0  -0.083733  -0.187106  0  1.361481  0
F  F260  1  0.87070325  0.75035719  0.74764756  1  -0.628961  0  -0.084131  -0.193001  0  1.364104  0
F  F261  1  0.88006213  0.00283116  0.75064212  1  -0.619892  0  -0.083816  -0.187539  0  1.359732  0
F  F262  1  0.87786221  0.74772287  0.99723611  1  -0.617678  0  -0.083773  -0.187236  0  1.361367  0
F  F263  1  0.12931261  0.24964278  0.25234933  1  -0.628937  0  -0.084152  -0.193012  0  1.364123  0
