# generated using pymatgen
data_AgH8C6IN2
_symmetry_space_group_name_H-M   'P 1'
_cell_length_a   4.48090886
_cell_length_b   7.10829170
_cell_length_c   26.30530936
_cell_angle_alpha   90.00035483
_cell_angle_beta   90.00004999
_cell_angle_gamma   89.99960637
_symmetry_Int_Tables_number   1
_chemical_formula_structural   AgH8C6IN2
_chemical_formula_sum   'Ag4 H32 C24 I4 N8'
_cell_volume   837.86638291
_cell_formula_units_Z   4
loop_
 _symmetry_equiv_pos_site_id
 _symmetry_equiv_pos_as_xyz
  1  'x, y, z'
loop_
 _atom_site_type_symbol
 _atom_site_label
 _atom_site_symmetry_multiplicity
 _atom_site_fract_x
 _atom_site_fract_y
 _atom_site_fract_z
 _atom_site_occupancy
 _atom_site_hle17_bader_spin_density
 _atom_site_hle17_ddec_charge
 _atom_site_hle17_ddec_spin_density
 _atom_site_hle17_ddec_sum_bond_order
 _atom_site_hle17_magmom
 _atom_site_hse06_10hf_bader_spin_density
 _atom_site_hse06_10hf_ddec_charge
 _atom_site_hse06_10hf_ddec_spin_density
 _atom_site_hse06_10hf_ddec_sum_bond_order
 _atom_site_hse06_10hf_magmom
 _atom_site_hse06_bader_spin_density
 _atom_site_hse06_ddec_charge
 _atom_site_hse06_ddec_spin_density
 _atom_site_hse06_ddec_sum_bond_order
 _atom_site_hse06_magmom
 _atom_site_pbe_bader_spin_density
 _atom_site_pbe_cm5_charge
 _atom_site_pbe_ddec_charge
 _atom_site_pbe_ddec_spin_density
 _atom_site_pbe_ddec_sum_bond_order
 _atom_site_pbe_magmom
Ag  Ag0  1  0.69776306  0.21821339  0.23256178  1  0  0.347247  0  1.853318  0  0  0.236721  0  2.362692  0  0  0.26442  0  2.315711  0  0  0.225768  0.217396  0  2.39555  0
Ag  Ag1  1  0.80228469  0.78177509  0.73254090  1  0  0.347445  0  1.853466  0  0  0.236905  0  2.362907  0  0  0.264604  0  2.315919  0  0  0.225883  0.217599  0  2.395746  0
Ag  Ag2  1  0.30227128  0.71819827  0.26745059  1  0  0.347371  0  1.853382  0  0  0.23682  0  2.362849  0  0  0.264518  0  2.315864  0  0  0.225839  0.217515  0  2.395677  0
Ag  Ag3  1  0.19774929  0.28182114  0.76744844  1  0  0.3473  0  1.853195  0  0  0.236751  0  2.362625  0  0  0.264452  0  2.315641  0  0  0.225766  0.21744  0  2.39546  0
H  H4  1  0.27864122  0.51524993  0.16987617  1  0  0.080451  0  0.97958  0  0  0.081723  0  1.061224  0  0  0.085517  0  1.057478  0  0  0.094671  0.078709  0  1.064364  0
H  H5  1  0.22140651  0.48474800  0.66986264  1  0  0.080417  0  0.979507  0  0  0.081683  0  1.061187  0  0  0.085442  0  1.057475  0  0  0.094672  0.078695  0  1.064297  0
H  H6  1  0.72146453  0.01519218  0.33012781  1  0  0.080136  0  0.979718  0  0  0.081337  0  1.061431  0  0  0.08517  0  1.057662  0  0  0.094513  0.07833  0  1.064559  0
H  H7  1  0.77850919  0.98481216  0.83012710  1  0  0.080264  0  0.979539  0  0  0.081521  0  1.06116  0  0  0.085333  0  1.057407  0  0  0.094534  0.078509  0  1.064296  0
H  H8  1  0.87243827  0.10638062  0.12019389  1  0  0.082667  0  0.960653  0  0  0.090375  0  1.027468  0  0  0.093073  0  1.026321  0  0  0.106346  0.088348  0  1.028475  0
H  H9  1  0.62760767  0.89361144  0.62018305  1  0  0.082559  0  0.960923  0  0  0.09027  0  1.027695  0  0  0.09296  0  1.026561  0  0  0.106386  0.088243  0  1.028702  0
H  H10  1  0.12764416  0.60632750  0.37981141  1  0  0.082697  0  0.960437  0  0  0.090255  0  1.027385  0  0  0.092981  0  1.026211  0  0  0.106324  0.088227  0  1.028397  0
H  H11  1  0.37231796  0.39367568  0.87981335  1  0  0.082639  0  0.960656  0  0  0.090295  0  1.027495  0  0  0.093021  0  1.026316  0  0  0.106355  0.088267  0  1.028502  0
H  H12  1  0.74154940  0.18282600  0.02852804  1  0  0.078852  0  0.984471  0  0  0.076764  0  1.063162  0  0  0.081106  0  1.059644  0  0  0.109228  0.073659  0  1.065694  0
H  H13  1  0.75845672  0.81715875  0.52851595  1  0  0.078937  0  0.984689  0  0  0.076935  0  1.06325  0  0  0.081259  0  1.059762  0  0  0.10932  0.073856  0  1.065753  0
H  H14  1  0.25857683  0.68275711  0.47147742  1  0  0.078844  0  0.984701  0  0  0.076819  0  1.063374  0  0  0.081153  0  1.059866  0  0  0.109222  0.073743  0  1.065872  0
H  H15  1  0.24139387  0.31725056  0.97147801  1  0  0.078897  0  0.984641  0  0  0.076882  0  1.063292  0  0  0.081224  0  1.059768  0  0  0.109212  0.073799  0  1.0658  0
H  H16  1  0.92906665  0.65500444  0.10485078  1  0  0.078339  0  0.958298  0  0  0.094079  0  1.022434  0  0  0.094711  0  1.023776  0  0  0.082817  0.093522  0  1.021579  0
H  H17  1  0.57092578  0.34498452  0.60484186  1  0  0.078513  0  0.958384  0  0  0.094218  0  1.022442  0  0  0.094853  0  1.023788  0  0  0.0829  0.093663  0  1.021584  0
H  H18  1  0.07104426  0.15493661  0.39515386  1  0  0.078216  0  0.958309  0  0  0.094029  0  1.022407  0  0  0.094663  0  1.023738  0  0  0.082785  0.093452  0  1.021576  0
H  H19  1  0.42892451  0.84509077  0.89515255  1  0  0.078178  0  0.958581  0  0  0.094012  0  1.022694  0  0  0.094687  0  1.023984  0  0  0.082774  0.093421  0  1.021879  0
H  H20  1  0.97866416  0.60044913  0.03940502  1  0  0.079006  0  0.949012  0  0  0.094386  0  1.013238  0  0  0.095379  0  1.013234  0  0  0.094782  0.093619  0  1.013312  0
H  H21  1  0.52136869  0.39952878  0.53939504  1  0  0.078942  0  0.94906  0  0  0.094218  0  1.013378  0  0  0.095203  0  1.013394  0  0  0.094735  0.093455  0  1.01345  0
H  H22  1  0.02144735  0.10038272  0.46060332  1  0  0.07874  0  0.949257  0  0  0.094182  0  1.013413  0  0  0.095122  0  1.013482  0  0  0.094715  0.093467  0  1.013424  0
H  H23  1  0.47851447  0.89962616  0.96060138  1  0  0.078731  0  0.94918  0  0  0.094197  0  1.013357  0  0  0.095142  0  1.013433  0  0  0.094724  0.093496  0  1.013351  0
H  H24  1  0.10690613  0.93389691  0.05033262  1  0  0.09657  0  0.963284  0  0  0.115928  0  1.030399  0  0  0.117161  0  1.030415  0  0  0.085281  0.11504  0  1.030331  0
H  H25  1  0.39313536  0.06608899  0.55031947  1  0  0.096754  0  0.963206  0  0  0.116051  0  1.030353  0  0  0.117282  0  1.030378  0  0  0.08536  0.115175  0  1.030273  0
H  H26  1  0.89318387  0.43383498  0.44967676  1  0  0.096671  0  0.963335  0  0  0.116126  0  1.030307  0  0  0.117357  0  1.030326  0  0  0.085401  0.115236  0  1.030244  0
H  H27  1  0.60677378  0.56617577  0.94966867  1  0  0.096725  0  0.963202  0  0  0.116162  0  1.03019  0  0  0.117396  0  1.030204  0  0  0.085392  0.115274  0  1.030126  0
H  H28  1  0.44769705  0.81260112  0.04108425  1  0  0.096642  0  0.956109  0  0  0.122271  0  1.010758  0  0  0.123209  0  1.011522  0  0  0.086995  0.121525  0  1.010317  0
H  H29  1  0.05231992  0.18736490  0.54107196  1  0  0.096703  0  0.956168  0  0  0.12227  0  1.010884  0  0  0.123212  0  1.011644  0  0  0.087009  0.121525  0  1.010441  0
H  H30  1  0.55239205  0.31253521  0.45892489  1  0  0.096683  0  0.955951  0  0  0.122219  0  1.010765  0  0  0.123151  0  1.011544  0  0  0.086975  0.121479  0  1.010312  0
H  H31  1  0.94756334  0.68747571  0.95891871  1  0  0.096613  0  0.955921  0  0  0.122126  0  1.010784  0  0  0.12306  0  1.011554  0  0  0.086912  0.121383  0  1.010337  0
H  H32  1  0.34224696  0.88227830  0.10340670  1  0  0.09242  0  0.969916  0  0  0.110399  0  1.038588  0  0  0.111381  0  1.039899  0  0  0.076625  0.109445  0  1.038005  0
H  H33  1  0.15778763  0.11768887  0.60339393  1  0  0.092404  0  0.969843  0  0  0.110373  0  1.038499  0  0  0.11135  0  1.03982  0  0  0.076592  0.109427  0  1.037908  0
H  H34  1  0.65785030  0.38221360  0.39660372  1  0  0.092416  0  0.96987  0  0  0.110443  0  1.038479  0  0  0.111429  0  1.039785  0  0  0.076616  0.109485  0  1.037899  0
H  H35  1  0.84211202  0.61781306  0.89659584  1  0  0.092322  0  0.969866  0  0  0.110361  0  1.038481  0  0  0.111345  0  1.03979  0  0  0.076597  0.109417  0  1.037886  0
C  C36  1  0.31029583  0.48553451  0.08749353  1  0  0.210634  0  3.718502  0  0  0.219779  0  3.965603  0  0  0.223254  0  3.98658  0  0  0.126498  0.217271  0  3.951541  0
C  C37  1  0.18970758  0.51446050  0.58748386  1  0  0.210265  0  3.719387  0  0  0.219209  0  3.966648  0  0  0.222671  0  3.987647  0  0  0.126162  0.216712  0  3.952575  0
C  C38  1  0.68982485  0.98546691  0.41250607  1  0  0.210298  0  3.719009  0  0  0.219129  0  3.966589  0  0  0.222602  0  3.987562  0  0  0.125986  0.21663  0  3.952524  0
C  C39  1  0.81013518  0.01453612  0.91250874  1  0  0.210447  0  3.71873  0  0  0.219232  0  3.966401  0  0  0.222704  0  3.98738  0  0  0.126115  0.216731  0  3.952332  0
C  C40  1  0.38366725  0.44181405  0.13805060  1  0  0.026234  0  3.646813  0  0  -0.003679  0  3.893577  0  0  -0.002575  0  3.911879  0  0  0.04299  -0.004578  0  3.881664  0
C  C41  1  0.11637614  0.55816361  0.63803034  1  0  0.026407  0  3.646794  0  0  -0.003388  0  3.89333  0  0  -0.002255  0  3.911663  0  0  0.043153  -0.004307  0  3.881405  0
C  C42  1  0.61642936  0.94176272  0.36196146  1  0  0.026757  0  3.647168  0  0  -0.0029  0  3.893789  0  0  -0.001833  0  3.912072  0  0  0.043246  -0.003802  0  3.881872  0
C  C43  1  0.88355764  0.05824783  0.86195817  1  0  0.02626  0  3.646927  0  0  -0.003426  0  3.893687  0  0  -0.002343  0  3.911985  0  0  0.043066  -0.004323  0  3.88177  0
C  C44  1  0.71197024  0.21609500  0.11050771  1  0  0.050288  0  3.706244  0  0  0.021882  0  3.955241  0  0  0.023345  0  3.974872  0  0  0.037208  0.020795  0  3.942172  0
C  C45  1  0.78805119  0.78391095  0.61049329  1  0  0.050811  0  3.705813  0  0  0.0225  0  3.954703  0  0  0.023964  0  3.974338  0  0  0.037303  0.021416  0  3.941636  0
C  C46  1  0.28813554  0.71604418  0.38950085  1  0  0.050389  0  3.706452  0  0  0.022195  0  3.955455  0  0  0.023639  0  3.975066  0  0  0.037307  0.021109  0  3.942389  0
C  C47  1  0.21183324  0.28396480  0.88949681  1  0  0.050209  0  3.706703  0  0  0.021917  0  3.955814  0  0  0.023371  0  3.975414  0  0  0.037265  0.020836  0  3.942741  0
C  C48  1  0.63812125  0.25793598  0.06035170  1  0  0.075896  0  3.714281  0  0  0.057834  0  3.969845  0  0  0.058966  0  3.987351  0  0  0.047008  0.056912  0  3.958331  0
C  C49  1  0.86190929  0.74204232  0.56033723  1  0  0.075268  0  3.714389  0  0  0.056939  0  3.970316  0  0  0.058143  0  3.987678  0  0  0.046591  0.055958  0  3.958893  0
C  C50  1  0.36198407  0.75786325  0.43965086  1  0  0.075709  0  3.714654  0  0  0.057366  0  3.970535  0  0  0.058523  0  3.987992  0  0  0.046717  0.056382  0  3.959118  0
C  C51  1  0.13796890  0.24214806  0.93965392  1  0  0.075911  0  3.714081  0  0  0.05756  0  3.969942  0  0  0.058691  0  3.987442  0  0  0.046792  0.056576  0  3.95853  0
C  C52  1  0.09587199  0.64028652  0.07444495  1  0  -0.147621  0  3.72624  0  0  -0.187127  0  3.974971  0  0  -0.188913  0  3.988881  0  0  -0.166726  -0.185648  0  3.965306  0
C  C53  1  0.40414263  0.35969278  0.57443277  1  0  -0.14773  0  3.726394  0  0  -0.186989  0  3.97486  0  0  -0.188787  0  3.9888  0  0  -0.166735  -0.185518  0  3.965205  0
C  C54  1  0.90423462  0.14021145  0.42556308  1  0  -0.146947  0  3.725803  0  0  -0.186507  0  3.974676  0  0  -0.188262  0  3.988581  0  0  -0.166416  -0.185042  0  3.964994  0
C  C55  1  0.59572758  0.85981152  0.92556052  1  0  -0.146902  0  3.725871  0  0  -0.186592  0  3.975023  0  0  -0.188389  0  3.988936  0  0  -0.166477  -0.185125  0  3.965343  0
C  C56  1  0.25719538  0.82861124  0.06700903  1  0  -0.276744  0  3.68714  0  0  -0.348338  0  3.92648  0  0  -0.35115  0  3.937527  0  0  -0.246905  -0.346071  0  3.918813  0
C  C57  1  0.24283488  0.17137355  0.56699640  1  0  -0.277007  0  3.687458  0  0  -0.348556  0  3.926776  0  0  -0.351365  0  3.937835  0  0  -0.247027  -0.346299  0  3.919099  0
C  C58  1  0.74290693  0.32854262  0.43299900  1  0  -0.277059  0  3.687096  0  0  -0.34874  0  3.926493  0  0  -0.351551  0  3.937518  0  0  -0.247117  -0.346468  0  3.918835  0
C  C59  1  0.75704855  0.67146782  0.93299385  1  0  -0.276892  0  3.686673  0  0  -0.348492  0  3.926137  0  0  -0.351307  0  3.937179  0  0  -0.246942  -0.346232  0  3.918465  0
I  I60  1  0.80486302  0.82865921  0.21043000  1  0  -0.427735  0  1.705377  0  0  -0.344773  0  2.214573  0  0  -0.369474  0  2.172176  0  0  -0.182072  -0.326483  0  2.244509  0
I  I61  1  0.69516918  0.17135982  0.71042344  1  0  -0.4278  0  1.705144  0  0  -0.344868  0  2.214396  0  0  -0.369566  0  2.171989  0  0  -0.182092  -0.326581  0  2.244341  0
I  I62  1  0.19516341  0.32863815  0.28958792  1  0  -0.427802  0  1.705478  0  0  -0.344779  0  2.21452  0  0  -0.369481  0  2.172139  0  0  -0.182091  -0.326489  0  2.244461  0
I  I63  1  0.30487716  0.67138729  0.78957328  1  0  -0.4278  0  1.705397  0  0  -0.344796  0  2.214521  0  0  -0.369502  0  2.172143  0  0  -0.182103  -0.326508  0  2.244453  0
N  N64  1  0.43903369  0.39215280  0.04875908  1  0  -0.312603  0  3.044043  0  0  -0.278177  0  3.302198  0  0  -0.286805  0  3.31731  0  0  -0.299157  -0.272096  0  3.291907  0
N  N65  1  0.06098548  0.60781619  0.54874574  1  0  -0.311935  0  3.043951  0  0  -0.27734  0  3.302076  0  0  -0.285977  0  3.317207  0  0  -0.298683  -0.271253  0  3.291784  0
N  N66  1  0.56108132  0.89209349  0.45124718  1  0  -0.312471  0  3.04378  0  0  -0.277827  0  3.301981  0  0  -0.286458  0  3.317093  0  0  -0.298635  -0.271738  0  3.291698  0
N  N67  1  0.93888302  0.10792291  0.95124895  1  0  -0.312602  0  3.043726  0  0  -0.277885  0  3.301952  0  0  -0.286507  0  3.31705  0  0  -0.298692  -0.271795  0  3.291671  0
N  N68  1  0.58402017  0.30828093  0.14939384  1  0  -0.230592  0  3.289077  0  0  -0.160113  0  3.565543  0  0  -0.17267  0  3.581891  0  0  -0.321384  -0.151448  0  3.55442  0
N  N69  1  0.91601896  0.69171729  0.64938576  1  0  -0.230865  0  3.288228  0  0  -0.160347  0  3.564677  0  0  -0.172905  0  3.581006  0  0  -0.321481  -0.151684  0  3.553572  0
N  N70  1  0.41606228  0.80822182  0.35061187  1  0  -0.23066  0  3.288923  0  0  -0.16017  0  3.565278  0  0  -0.172729  0  3.581642  0  0  -0.321385  -0.151504  0  3.554165  0
N  N71  1  0.08391781  0.19178927  0.85061404  1  0  -0.230327  0  3.289323  0  0  -0.15984  0  3.565655  0  0  -0.1724  0  3.582018  0  0  -0.321316  -0.151176  0  3.554535  0
