# generated using pymatgen
data_AlH9C11NO7
_symmetry_space_group_name_H-M   'P 1'
_cell_length_a   6.63685753
_cell_length_b   11.30611833
_cell_length_c   10.90215440
_cell_angle_alpha   83.01949404
_cell_angle_beta   73.26619798
_cell_angle_gamma   71.70336888
_symmetry_Int_Tables_number   1
_chemical_formula_structural   AlH9C11NO7
_chemical_formula_sum   'Al2 H18 C22 N2 O14'
_cell_volume   743.38001744
_cell_formula_units_Z   2
loop_
 _symmetry_equiv_pos_site_id
 _symmetry_equiv_pos_as_xyz
  1  'x, y, z'
loop_
 _atom_site_type_symbol
 _atom_site_label
 _atom_site_symmetry_multiplicity
 _atom_site_fract_x
 _atom_site_fract_y
 _atom_site_fract_z
 _atom_site_occupancy
 _atom_site_pbe_bader_charge
 _atom_site_pbe_bader_spin_density
 _atom_site_pbe_cm5_charge
 _atom_site_pbe_ddec_charge
 _atom_site_pbe_ddec_spin_density
 _atom_site_pbe_ddec_sum_bond_order
 _atom_site_pbe_magmom
Al  Al0  1  0.98664982  0.49964017  0.50400484  1  2.499853  0  0.398336  1.636636  0  2.581126  0
Al  Al1  1  0.48551360  0.50442469  0.50080717  1  2.487006  0  0.398087  1.6364  0  2.580772  0
H  H2  1  0.14417535  0.54038897  0.65970754  1  0.604792  0  0.347451  0.419341  0  0.87657  0
H  H3  1  0.84000641  0.44685728  0.34966732  1  0.636649  0  0.351774  0.425187  0  0.866207  0
H  H4  1  0.65507200  0.22009783  0.64060073  1  0.167058  0  0.12698  0.148572  0  1.009715  0
H  H5  1  0.82309665  0.75750599  0.66825465  1  0.112536  0  0.127569  0.141848  0  1.014055  0
H  H6  1  0.31176448  0.89455565  0.41070769  1  0.108221  0  0.11818  0.125651  0  0.971063  0
H  H7  1  0.19902317  0.12764347  0.41361491  1  0.140047  0  0.116466  0.123115  0  0.975482  0
H  H8  1  0.55956303  0.31712041  0.14570524  1  0.027419  0  0.092512  0.089784  0  0.973984  0
H  H9  1  0.73998636  0.40839719  0.12739692  1  0.034298  0  0.091691  0.086931  0  0.992104  0
H  H10  1  0.85519722  0.36579244  0.90902056  1  0.009926  0  0.092372  0.093989  0  1.000194  0
H  H11  1  0.64402835  0.29604035  0.92825410  1  0.032515  0  0.086427  0.081366  0  1.01321  0
H  H12  1  0.75622627  0.60394916  0.88809092  1  0.054445  0  0.088834  0.08923  0  1.017479  0
H  H13  1  0.49836015  0.69323331  0.86385748  1  0.039635  0  0.086709  0.086225  0  1.01763  0
H  H14  1  0.60808349  0.64168055  0.10569030  1  0.042  0  0.093634  0.09464  0  0.989084  0
H  H15  1  0.34395129  0.71572403  0.08161228  1  0.031249  0  0.093489  0.092088  0  0.972676  0
H  H16  1  0.16813208  0.42766461  0.11823260  1  0.024225  0  0.087759  0.079592  0  0.992074  0
H  H17  1  0.07965026  0.59164014  0.10020965  1  0.042914  0  0.092462  0.090711  0  0.987746  0
H  H18  1  0.20733184  0.58016342  0.88031718  1  0.043533  0  0.085236  0.080801  0  1.048849  0
H  H19  1  0.28084857  0.41599499  0.89586945  1  0.009091  0  0.087881  0.086195  0  0.987294  0
C  C20  1  0.63175529  0.48285301  0.73492244  1  1.552899  0  0.277374  0.646096  0  3.999209  0
C  C21  1  0.61677474  0.72976128  0.50836879  1  1.596046  0  0.266952  0.633115  0  4.102067  0
C  C22  1  0.33466112  0.52544732  0.27189912  1  1.532895  0  0.28095  0.649011  0  4.012907  0
C  C23  1  0.35606470  0.27360138  0.50476096  1  1.543643  0  0.265168  0.631574  0  4.098257  0
C  C24  1  0.42726133  0.13344144  0.51435342  1  0.056646  0  0.003666  -0.060521  0  3.89138  0
C  C25  1  0.58828470  0.06257885  0.57970586  1  -0.010498  0  0.013527  0.073976  0  3.907674  0
C  C26  1  0.32705711  0.07185384  0.45851954  1  -0.013779  0  -0.068683  -0.075981  0  3.961463  0
C  C27  1  0.68928243  0.11930637  0.64527933  1  0.021666  0  -0.062106  -0.139539  0  3.87616  0
C  C28  1  0.82561610  0.04758689  0.71742057  1  0.235116  0  0.082307  0.022596  0  3.980194  0
C  C29  1  0.54719388  0.86898826  0.51736605  1  -0.028251  0  0.00291  -0.056914  0  3.900323  0
C  C30  1  0.38834984  0.94104749  0.45821432  1  -0.010483  0  -0.069922  -0.082628  0  3.963323  0
C  C31  1  0.64261000  0.92845866  0.58467297  1  0.07549  0  0.014654  0.076717  0  3.910194  0
C  C32  1  0.78085640  0.85846259  0.66250747  1  0.118582  0  -0.05902  -0.13007  0  3.890964  0
C  C33  1  0.86730964  0.91711347  0.72833605  1  0.15387  0  0.085305  0.022696  0  3.980377  0
C  C34  1  0.60520652  0.39864394  0.09381034  1  -0.033408  0  -0.15264  -0.160271  0  3.841644  0
C  C35  1  0.67778877  0.37984643  0.94773636  1  0.007243  0  -0.161974  -0.175273  0  3.858307  0
C  C36  1  0.54800197  0.49291442  0.87951040  1  0.046782  0  -0.016556  0.014936  0  3.814462  0
C  C37  1  0.58010537  0.61218235  0.91679726  1  -0.03914  0  -0.162229  -0.178731  0  3.84429  0
C  C38  1  0.48439332  0.63071878  0.06282821  1  -0.023542  0  -0.15491  -0.165159  0  3.842515  0
C  C39  1  0.40712935  0.51745547  0.12735973  1  0.069336  0  -0.01474  0.008888  0  3.819538  0
C  C40  1  0.22232977  0.50889122  0.07338767  1  -0.051029  0  -0.162754  -0.170755  0  3.878664  0
C  C41  1  0.30343638  0.49913523  0.92618608  1  -0.004516  0  -0.168402  -0.182177  0  3.885142  0
N  N42  1  0.91175234  0.10845893  0.79387867  1  0.394207  0  0.053984  0.503816  0  4.248682  0
N  N43  1  0.01424899  0.84091906  0.80456101  1  0.407734  0  0.062348  0.521221  0  4.224273  0
O  O44  1  0.82725633  0.48726430  0.68061564  1  -1.278606  0  -0.235769  -0.595997  0  2.346617  0
O  O45  1  0.46929688  0.67918154  0.51072437  1  -1.245772  0  -0.234558  -0.579002  0  2.312183  0
O  O46  1  0.47369473  0.53459274  0.32768860  1  -1.283183  0  -0.239553  -0.607167  0  2.350078  0
O  O47  1  0.15653940  0.32560484  0.50398690  1  -1.245337  0  -0.230434  -0.579065  0  2.361633  0
O  O48  1  0.14304255  0.51807429  0.33010418  1  -1.267751  0  -0.230487  -0.592209  0  2.380249  0
O  O49  1  0.50047471  0.32896470  0.49486914  1  -1.254091  0  -0.235571  -0.584653  0  2.349238  0
O  O50  1  0.49911663  0.47379441  0.67456633  1  -1.27862  0  -0.235465  -0.598983  0  2.37576  0
O  O51  1  0.81952078  0.67416090  0.49842614  1  -1.256212  0  -0.233288  -0.58233  0  2.367468  0
O  O52  1  0.18167034  0.54695664  0.56662622  1  -1.400467  0  -0.448525  -0.982  0  2.193956  0
O  O53  1  0.78929659  0.45499195  0.44193780  1  -1.431738  0  -0.448545  -0.986582  0  2.205581  0
O  O54  1  0.99359224  0.19161130  0.74026973  1  -0.442955  0  -0.098779  -0.297023  0  1.99643  0
O  O55  1  0.89093163  0.07343043  0.90814429  1  -0.4451  0  -0.131921  -0.330252  0  1.897041  0
O  O56  1  0.94678283  0.76307923  0.88170625  1  -0.459341  0  -0.1029  -0.302796  0  1.953752  0
O  O57  1  0.19628989  0.85842492  0.78480033  1  -0.45575  0  -0.113263  -0.316867  0  1.944744  0
