# generated using pymatgen
data_CdH6C9N3ClO2
_symmetry_space_group_name_H-M   'P 1'
_cell_length_a   5.96053547
_cell_length_b   7.71053708
_cell_length_c   22.04671562
_cell_angle_alpha   89.99976855
_cell_angle_beta   89.99946956
_cell_angle_gamma   89.99932089
_symmetry_Int_Tables_number   1
_chemical_formula_structural   CdH6C9N3ClO2
_chemical_formula_sum   'Cd4 H24 C36 N12 Cl4 O8'
_cell_volume   1013.24345470
_cell_formula_units_Z   4
loop_
 _symmetry_equiv_pos_site_id
 _symmetry_equiv_pos_as_xyz
  1  'x, y, z'
loop_
 _atom_site_type_symbol
 _atom_site_label
 _atom_site_symmetry_multiplicity
 _atom_site_fract_x
 _atom_site_fract_y
 _atom_site_fract_z
 _atom_site_occupancy
 _atom_site_hle17_bader_spin_density
 _atom_site_hle17_ddec_charge
 _atom_site_hle17_ddec_spin_density
 _atom_site_hle17_ddec_sum_bond_order
 _atom_site_hle17_magmom
 _atom_site_hse06_10hf_bader_spin_density
 _atom_site_hse06_10hf_ddec_charge
 _atom_site_hse06_10hf_ddec_spin_density
 _atom_site_hse06_10hf_ddec_sum_bond_order
 _atom_site_hse06_10hf_magmom
 _atom_site_hse06_bader_spin_density
 _atom_site_hse06_ddec_charge
 _atom_site_hse06_ddec_spin_density
 _atom_site_hse06_ddec_sum_bond_order
 _atom_site_hse06_magmom
 _atom_site_pbe_bader_spin_density
 _atom_site_pbe_cm5_charge
 _atom_site_pbe_ddec_charge
 _atom_site_pbe_ddec_spin_density
 _atom_site_pbe_ddec_sum_bond_order
 _atom_site_pbe_magmom
Cd  Cd0  1  0.23510275  0.31178234  0.71805884  1  0  1.01752  0  1.84775  0  0  0.835336  0  2.318468  0  0  0.888586  0  2.270341  0  0  0.673596  0.797776  0  2.351151  0
Cd  Cd1  1  0.73507964  0.68821681  0.28194405  1  0  1.017566  0  1.847756  0  0  0.835336  0  2.318489  0  0  0.888591  0  2.270348  0  0  0.673608  0.797777  0  2.351169  0
Cd  Cd2  1  0.23510281  0.81178086  0.78194329  1  0  1.017501  0  1.847768  0  0  0.835312  0  2.318487  0  0  0.888561  0  2.270359  0  0  0.673567  0.797748  0  2.351166  0
Cd  Cd3  1  0.73507454  0.18821569  0.21805915  1  0  1.017585  0  1.847707  0  0  0.83539  0  2.318406  0  0  0.888638  0  2.270282  0  0  0.673617  0.797829  0  2.351082  0
H  H4  1  0.21364407  0.58734114  0.37236546  1  0  0.130268  0  0.92386  0  0  0.139065  0  0.985034  0  0  0.141986  0  0.981418  0  0  0.149564  0.136848  0  0.987708  0
H  H5  1  0.71365290  0.41265561  0.62762705  1  0  0.13046  0  0.923767  0  0  0.139291  0  0.984894  0  0  0.142194  0  0.981309  0  0  0.149649  0.137076  0  0.987562  0
H  H6  1  0.21363890  0.08733719  0.12763094  1  0  0.130357  0  0.923778  0  0  0.139103  0  0.985001  0  0  0.142063  0  0.981345  0  0  0.149572  0.136887  0  0.987666  0
H  H7  1  0.71365640  0.91265567  0.87237155  1  0  0.130397  0  0.923863  0  0  0.139193  0  0.985013  0  0  0.14211  0  0.98141  0  0  0.149612  0.136977  0  0.987678  0
H  H8  1  0.08378788  0.05400683  0.34182493  1  0  0.134772  0  0.946789  0  0  0.140704  0  1.01201  0  0  0.144552  0  1.007289  0  0  0.141645  0.137779  0  1.015592  0
H  H9  1  0.58382605  0.94599891  0.65817968  1  0  0.134668  0  0.94694  0  0  0.140707  0  1.012054  0  0  0.144557  0  1.00733  0  0  0.141669  0.137781  0  1.01564  0
H  H10  1  0.08380249  0.55399642  0.15817999  1  0  0.13471  0  0.946782  0  0  0.140683  0  1.011976  0  0  0.144533  0  1.007246  0  0  0.14164  0.137758  0  1.015562  0
H  H11  1  0.58380641  0.44599116  0.84182416  1  0  0.13469  0  0.946884  0  0  0.140702  0  1.012009  0  0  0.144548  0  1.007292  0  0  0.141671  0.137777  0  1.015595  0
H  H12  1  0.60495954  0.16891198  0.36586455  1  0  0.106251  0  0.978356  0  0  0.109928  0  1.053036  0  0  0.112818  0  1.051415  0  0  0.09865  0.10782  0  1.054266  0
H  H13  1  0.10497777  0.83107930  0.63413366  1  0  0.106284  0  0.978265  0  0  0.110004  0  1.052905  0  0  0.112894  0  1.051284  0  0  0.098688  0.107883  0  1.054148  0
H  H14  1  0.60496496  0.66890703  0.13413626  1  0  0.106331  0  0.978188  0  0  0.109969  0  1.052913  0  0  0.112859  0  1.05129  0  0  0.098666  0.107863  0  1.054144  0
H  H15  1  0.10495725  0.33108554  0.86586830  1  0  0.106318  0  0.978349  0  0  0.109976  0  1.053046  0  0  0.112865  0  1.051424  0  0  0.0987  0.107873  0  1.054275  0
H  H16  1  0.85571614  0.10061935  0.45367330  1  0  0.087412  0  0.976972  0  0  0.095222  0  1.042581  0  0  0.097286  0  1.043179  0  0  0.098461  0.09375  0  1.042271  0
H  H17  1  0.35573148  0.89938518  0.54632432  1  0  0.087422  0  0.977005  0  0  0.095222  0  1.042637  0  0  0.097286  0  1.043234  0  0  0.098446  0.093749  0  1.042329  0
H  H18  1  0.85572139  0.60061024  0.04632565  1  0  0.087387  0  0.976977  0  0  0.095218  0  1.042591  0  0  0.097282  0  1.043188  0  0  0.098443  0.093746  0  1.042282  0
H  H19  1  0.35571449  0.39938261  0.95367559  1  0  0.087396  0  0.976896  0  0  0.095194  0  1.042524  0  0  0.097258  0  1.043122  0  0  0.098442  0.093722  0  1.042215  0
H  H20  1  0.71988381  0.14593916  0.55910546  1  0  0.106124  0  0.944406  0  0  0.114757  0  1.008363  0  0  0.118205  0  1.006187  0  0  0.105342  0.112234  0  1.010012  0
H  H21  1  0.21989695  0.85407311  0.44089293  1  0  0.106055  0  0.944385  0  0  0.114692  0  1.008354  0  0  0.118137  0  1.006186  0  0  0.105289  0.112172  0  1.01  0
H  H22  1  0.71988482  0.64593452  0.94089486  1  0  0.10609  0  0.944434  0  0  0.114725  0  1.00839  0  0  0.118171  0  1.006217  0  0  0.105315  0.112205  0  1.010037  0
H  H23  1  0.21987748  0.35406347  0.05910852  1  0  0.106211  0  0.944272  0  0  0.114813  0  1.008261  0  0  0.118262  0  1.006088  0  0  0.105366  0.112294  0  1.009912  0
H  H24  1  0.09829168  0.35105783  0.49040330  1  0  0.120396  0  0.94574  0  0  0.12735  0  1.012349  0  0  0.13085  0  1.01048  0  0  0.110121  0.124839  0  1.013719  0
H  H25  1  0.59830287  0.64895036  0.50959447  1  0  0.120459  0  0.945642  0  0  0.12738  0  1.01228  0  0  0.130878  0  1.010412  0  0  0.110167  0.124869  0  1.013649  0
H  H26  1  0.09829323  0.85105694  0.00959800  1  0  0.120456  0  0.945626  0  0  0.127386  0  1.012249  0  0  0.130886  0  1.010381  0  0  0.11014  0.124874  0  1.013617  0
H  H27  1  0.59828790  0.14893829  0.99040567  1  0  0.120455  0  0.945618  0  0  0.127415  0  1.012227  0  0  0.130914  0  1.010359  0  0  0.110174  0.124904  0  1.013594  0
C  C28  1  0.14198732  0.46953785  0.35385629  1  0  0.193423  0  3.597602  0  0  0.126896  0  3.868144  0  0  0.141313  0  3.878088  0  0  0.168011  0.117434  0  3.861436  0
C  C29  1  0.64199871  0.53046345  0.64613820  1  0  0.193436  0  3.597215  0  0  0.126879  0  3.86777  0  0  0.1413  0  3.877727  0  0  0.168047  0.117417  0  3.861067  0
C  C30  1  0.14197888  0.96953407  0.14614201  1  0  0.193331  0  3.597531  0  0  0.126851  0  3.868087  0  0  0.141233  0  3.878006  0  0  0.168032  0.117386  0  3.86139  0
C  C31  1  0.64200212  0.03045297  0.85386246  1  0  0.193359  0  3.597262  0  0  0.126879  0  3.86775  0  0  0.141291  0  3.877695  0  0  0.167983  0.117419  0  3.861039  0
C  C32  1  0.08166292  0.19449643  0.33711710  1  0  0.187789  0  3.586335  0  0  0.120332  0  3.860276  0  0  0.13469  0  3.870312  0  0  0.167921  0.110943  0  3.853451  0
C  C33  1  0.58168965  0.80550543  0.66288388  1  0  0.187727  0  3.586561  0  0  0.120224  0  3.860424  0  0  0.134579  0  3.870464  0  0  0.167817  0.110835  0  3.853605  0
C  C34  1  0.08166730  0.69449245  0.16288536  1  0  0.187897  0  3.586382  0  0  0.120396  0  3.860332  0  0  0.134752  0  3.870368  0  0  0.167972  0.111005  0  3.853515  0
C  C35  1  0.58167521  0.30549774  0.83711790  1  0  0.187752  0  3.586374  0  0  0.120274  0  3.860276  0  0  0.134628  0  3.870317  0  0  0.167866  0.110885  0  3.853457  0
C  C36  1  0.34112241  0.26512016  0.42344888  1  0  0.170659  0  3.768543  0  0  0.166825  0  4.016772  0  0  0.169382  0  4.039253  0  0  0.092785  0.164917  0  4.001623  0
C  C37  1  0.84113489  0.73488191  0.57654787  1  0  0.170737  0  3.76838  0  0  0.166922  0  4.016601  0  0  0.169477  0  4.039083  0  0  0.092895  0.165016  0  4.001451  0
C  C38  1  0.34111985  0.76511459  0.07655060  1  0  0.170702  0  3.768296  0  0  0.166894  0  4.016486  0  0  0.16945  0  4.038967  0  0  0.092859  0.164985  0  4.001341  0
C  C39  1  0.84111899  0.23487191  0.92345204  1  0  0.170569  0  3.768437  0  0  0.166732  0  4.016704  0  0  0.169289  0  4.039184  0  0  0.092843  0.164823  0  4.001557  0
C  C40  1  0.55189952  0.19371567  0.41229464  1  0  -0.101758  0  3.690559  0  0  -0.12661  0  3.938693  0  0  -0.126439  0  3.956896  0  0  -0.078853  -0.126473  0  3.926383  0
C  C41  1  0.05191142  0.80628387  0.58770188  1  0  -0.101693  0  3.690467  0  0  -0.126572  0  3.938565  0  0  -0.126401  0  3.956771  0  0  -0.078832  -0.126423  0  3.926265  0
C  C42  1  0.55189991  0.69370608  0.08770354  1  0  -0.101807  0  3.690392  0  0  -0.126627  0  3.938531  0  0  -0.126458  0  3.956736  0  0  -0.078884  -0.126493  0  3.926219  0
C  C43  1  0.05189425  0.30628568  0.91229706  1  0  -0.101766  0  3.690374  0  0  -0.12661  0  3.938547  0  0  -0.126438  0  3.956747  0  0  -0.078922  -0.12648  0  3.926241  0
C  C44  1  0.68970366  0.15475767  0.46147779  1  0  -0.055604  0  3.755479  0  0  -0.06379  0  4.00242  0  0  -0.067668  0  4.024737  0  0  -0.087499  -0.061333  0  3.987377  0
C  C45  1  0.18972178  0.84524579  0.53852067  1  0  -0.055621  0  3.755642  0  0  -0.063808  0  4.002632  0  0  -0.067683  0  4.024944  0  0  -0.087505  -0.06135  0  3.987585  0
C  C46  1  0.68970751  0.65475255  0.03852193  1  0  -0.055492  0  3.755537  0  0  -0.063693  0  4.002458  0  0  -0.06757  0  4.024771  0  0  -0.087431  -0.061235  0  3.987416  0
C  C47  1  0.18970115  0.34523795  0.96147790  1  0  -0.055514  0  3.75543  0  0  -0.06367  0  4.002359  0  0  -0.067545  0  4.024673  0  0  -0.087467  -0.061215  0  3.98732  0
C  C48  1  0.61370754  0.18000364  0.52062454  1  0  -0.071746  0  3.712143  0  0  -0.098796  0  3.960876  0  0  -0.097651  0  3.979837  0  0  -0.081002  -0.099309  0  3.948075  0
C  C49  1  0.11371813  0.82001349  0.47937591  1  0  -0.071808  0  3.712133  0  0  -0.098906  0  3.96092  0  0  -0.097763  0  3.979882  0  0  -0.081106  -0.099417  0  3.948116  0
C  C50  1  0.61371387  0.67999467  0.97937552  1  0  -0.071874  0  3.712184  0  0  -0.098955  0  3.960963  0  0  -0.09781  0  3.979926  0  0  -0.081105  -0.099469  0  3.94816  0
C  C51  1  0.11370677  0.31999522  0.02062267  1  0  -0.072074  0  3.712073  0  0  -0.099116  0  3.960856  0  0  -0.097974  0  3.979818  0  0  -0.081139  -0.099637  0  3.94806  0
C  C52  1  0.39848624  0.24726059  0.53125082  1  0  -0.057669  0  3.774957  0  0  -0.030074  0  4.003688  0  0  -0.038806  0  4.027393  0  0  -0.017692  -0.024534  0  3.987827  0
C  C53  1  0.89850571  0.75275781  0.46875032  1  0  -0.057466  0  3.77486  0  0  -0.029818  0  4.00353  0  0  -0.038549  0  4.027238  0  0  -0.017464  -0.024275  0  3.987665  0
C  C54  1  0.39849463  0.74725044  0.96875056  1  0  -0.057503  0  3.775079  0  0  -0.029865  0  4.003752  0  0  -0.038598  0  4.027462  0  0  -0.017563  -0.024322  0  3.987882  0
C  C55  1  0.89848222  0.25273942  0.03124968  1  0  -0.057427  0  3.774814  0  0  -0.029821  0  4.00351  0  0  -0.038553  0  4.027217  0  0  -0.017553  -0.024281  0  3.987647  0
C  C56  1  0.26345360  0.29524389  0.48210531  1  0  -0.135999  0  3.693913  0  0  -0.168349  0  3.941596  0  0  -0.168206  0  3.96003  0  0  -0.076201  -0.16818  0  3.929161  0
C  C57  1  0.76346866  0.70476927  0.51789071  1  0  -0.136191  0  3.694083  0  0  -0.168534  0  3.941804  0  0  -0.168389  0  3.960238  0  0  -0.076383  -0.168365  0  3.929367  0
C  C58  1  0.26346323  0.79523901  0.01789296  1  0  -0.136124  0  3.694075  0  0  -0.168446  0  3.941733  0  0  -0.168303  0  3.960165  0  0  -0.076274  -0.168279  0  3.929298  0
C  C59  1  0.76345232  0.20475081  0.98210896  1  0  -0.136152  0  3.694071  0  0  -0.168525  0  3.941798  0  0  -0.168381  0  3.960232  0  0  -0.076342  -0.168356  0  3.929359  0
C  C60  1  0.30949802  0.26076682  0.59481821  1  0  0.612957  0  3.962144  0  0  0.565752  0  4.250593  0  0  0.599458  0  4.24629  0  0  0.184373  0.54299  0  4.252535  0
C  C61  1  0.80954012  0.73926148  0.40517725  1  0  0.613035  0  3.961983  0  0  0.5658  0  4.250462  0  0  0.599506  0  4.246163  0  0  0.184376  0.543035  0  4.252397  0
C  C62  1  0.30951542  0.76075482  0.90518110  1  0  0.613014  0  3.962167  0  0  0.565761  0  4.250674  0  0  0.599468  0  4.246371  0  0  0.184316  0.542996  0  4.252613  0
C  C63  1  0.80950091  0.23924494  0.09482071  1  0  0.612987  0  3.962194  0  0  0.565797  0  4.250603  0  0  0.599502  0  4.2463  0  0  0.184414  0.543036  0  4.252543  0
N  N64  1  0.95812445  0.28472369  0.29871029  1  0  -0.260981  0  3.179032  0  0  -0.19886  0  3.468205  0  0  -0.216243  0  3.48657  0  0  -0.240889  -0.187066  0  3.455475  0
N  N65  1  0.45815879  0.71527601  0.70129072  1  0  -0.260803  0  3.179175  0  0  -0.198712  0  3.468374  0  0  -0.216095  0  3.486744  0  0  -0.240806  -0.186918  0  3.455645  0
N  N66  1  0.95812576  0.78471666  0.20129044  1  0  -0.260901  0  3.179018  0  0  -0.198766  0  3.468193  0  0  -0.21615  0  3.48656  0  0  -0.240815  -0.186972  0  3.455466  0
N  N67  1  0.45815245  0.21527265  0.79871012  1  0  -0.260815  0  3.179042  0  0  -0.198722  0  3.46824  0  0  -0.216104  0  3.486606  0  0  -0.24083  -0.186931  0  3.455517  0
N  N68  1  0.99486125  0.45803174  0.30938609  1  0  -0.248241  0  3.132651  0  0  -0.194445  0  3.415144  0  0  -0.209928  0  3.433581  0  0  -0.235437  -0.183955  0  3.402471  0
N  N69  1  0.49487849  0.54196761  0.69061075  1  0  -0.248521  0  3.132636  0  0  -0.194708  0  3.415169  0  0  -0.210191  0  3.433596  0  0  -0.235516  -0.18422  0  3.4025  0
N  N70  1  0.99485455  0.95802485  0.19061431  1  0  -0.248328  0  3.132693  0  0  -0.194527  0  3.415178  0  0  -0.210011  0  3.433628  0  0  -0.235533  -0.184038  0  3.402503  0
N  N71  1  0.49488350  0.04196283  0.80938661  1  0  -0.2485  0  3.132446  0  0  -0.194702  0  3.414951  0  0  -0.210186  0  3.433383  0  0  -0.235503  -0.184214  0  3.402282  0
N  N72  1  0.19844958  0.30709873  0.37308233  1  0  -0.119989  0  3.560617  0  0  -0.028704  0  3.780281  0  0  -0.045197  0  3.802836  0  0  -0.211658  -0.017863  0  3.764958  0
N  N73  1  0.69846087  0.69290335  0.62691520  1  0  -0.119968  0  3.560467  0  0  -0.028701  0  3.780181  0  0  -0.045191  0  3.802728  0  0  -0.211693  -0.017862  0  3.764861  0
N  N74  1  0.19844351  0.80709517  0.12691879  1  0  -0.120043  0  3.560643  0  0  -0.028772  0  3.780341  0  0  -0.045259  0  3.80289  0  0  -0.211692  -0.017931  0  3.76502  0
N  N75  1  0.69846022  0.19289654  0.87308374  1  0  -0.119786  0  3.560538  0  0  -0.028526  0  3.780222  0  0  -0.045016  0  3.80277  0  0  -0.211616  -0.017684  0  3.764897  0
Cl  Cl76  1  0.98335505  0.53782253  0.76761575  1  0  -0.544423  0  1.012493  0  0  -0.478999  0  1.310846  0  0  -0.498876  0  1.286775  0  0  -0.288886  -0.46491  0  1.3272  0
Cl  Cl77  1  0.48333139  0.46217693  0.23238429  1  0  -0.544503  0  1.012548  0  0  -0.479065  0  1.310885  0  0  -0.498941  0  1.286809  0  0  -0.288906  -0.464977  0  1.327237  0
Cl  Cl78  1  0.98335950  0.03782125  0.73238546  1  0  -0.544439  0  1.012534  0  0  -0.479015  0  1.310891  0  0  -0.498892  0  1.286818  0  0  -0.288888  -0.464929  0  1.327244  0
Cl  Cl79  1  0.48332861  0.96217692  0.26762003  1  0  -0.544456  0  1.01252  0  0  -0.479042  0  1.310874  0  0  -0.49892  0  1.286801  0  0  -0.288889  -0.464955  0  1.32723  0
O  O80  1  0.42613332  0.18630041  0.63651776  1  0  -0.647339  0  1.996705  0  0  -0.581523  0  2.239244  0  0  -0.611306  0  2.230764  0  0  -0.337364  -0.560479  0  2.244054  0
O  O81  1  0.92616910  0.81371773  0.36347788  1  0  -0.647429  0  1.9971  0  0  -0.581511  0  2.239502  0  0  -0.611292  0  2.231033  0  0  -0.337308  -0.560495  0  2.244368  0
O  O82  1  0.42615056  0.68629149  0.86348274  1  0  -0.647368  0  1.996943  0  0  -0.581539  0  2.239486  0  0  -0.611314  0  2.230992  0  0  -0.337351  -0.560512  0  2.244327  0
O  O83  1  0.92612837  0.31370201  0.13652016  1  0  -0.647408  0  1.997013  0  0  -0.581533  0  2.239458  0  0  -0.611325  0  2.231  0  0  -0.337357  -0.560493  0  2.244273  0
O  O84  1  0.13137057  0.34487715  0.60537458  1  0  -0.623811  0  1.910178  0  0  -0.57207  0  2.139682  0  0  -0.598843  0  2.133166  0  0  -0.335021  -0.553265  0  2.143403  0
O  O85  1  0.63140596  0.65514889  0.39461812  1  0  -0.623888  0  1.909803  0  0  -0.5721  0  2.139261  0  0  -0.598888  0  2.132762  0  0  -0.335101  -0.553289  0  2.142986  0
O  O86  1  0.13139339  0.84488084  0.89462367  1  0  -0.623868  0  1.910006  0  0  -0.572094  0  2.139508  0  0  -0.598879  0  2.133005  0  0  -0.334993  -0.553286  0  2.143229  0
O  O87  1  0.63137307  0.15512575  0.10537856  1  0  -0.62382  0  1.910072  0  0  -0.572069  0  2.139543  0  0  -0.598855  0  2.133048  0  0  -0.335063  -0.553261  0  2.143263  0
