# generated using pymatgen
data_CdH14C21S(N3O2)2
_symmetry_space_group_name_H-M   'P 1'
_cell_length_a   10.80378003
_cell_length_b   19.82975497
_cell_length_c   22.42409762
_cell_angle_alpha   90.00004672
_cell_angle_beta   90.00006619
_cell_angle_gamma   90.00028104
_symmetry_Int_Tables_number   1
_chemical_formula_structural   CdH14C21S(N3O2)2
_chemical_formula_sum   'Cd8 H112 C168 S8 N48 O32'
_cell_volume   4804.05594458
_cell_formula_units_Z   8
loop_
 _symmetry_equiv_pos_site_id
 _symmetry_equiv_pos_as_xyz
  1  'x, y, z'
loop_
 _atom_site_type_symbol
 _atom_site_label
 _atom_site_symmetry_multiplicity
 _atom_site_fract_x
 _atom_site_fract_y
 _atom_site_fract_z
 _atom_site_occupancy
 _atom_site_pbe_bader_charge
 _atom_site_pbe_bader_spin_density
 _atom_site_pbe_cm5_charge
 _atom_site_pbe_ddec_charge
 _atom_site_pbe_ddec_spin_density
 _atom_site_pbe_ddec_sum_bond_order
 _atom_site_pbe_magmom
Cd  Cd0  1  0.56018031  0.13929120  0.62391740  1  1.260415  0  0.768176  0.826267  0  2.220862  0
Cd  Cd1  1  0.93982233  0.86070685  0.12391861  1  1.260276  0  0.76817  0.826231  0  2.221069  0
Cd  Cd2  1  0.43982407  0.63929279  0.87608021  1  1.260198  0  0.7682  0.826273  0  2.220977  0
Cd  Cd3  1  0.06018009  0.36070667  0.37608083  1  1.260338  0  0.768173  0.826233  0  2.220975  0
Cd  Cd4  1  0.43981615  0.86070630  0.37608068  1  1.260309  0  0.768178  0.82625  0  2.220954  0
Cd  Cd5  1  0.06018246  0.13929216  0.87608170  1  1.260352  0  0.768153  0.826249  0  2.220957  0
Cd  Cd6  1  0.56017794  0.36070975  0.12392189  1  1.26037  0  0.768164  0.8262  0  2.221082  0
Cd  Cd7  1  0.93981914  0.63929284  0.62391947  1  1.260318  0  0.768192  0.82632  0  2.220874  0
H  H8  1  0.80494464  0.00138048  0.37090835  1  0.134232  0  0.115503  0.132352  0  1.027678  0
H  H9  1  0.69505858  0.99861981  0.87091275  1  0.134209  0  0.115512  0.132323  0  1.027684  0
H  H10  1  0.19506656  0.50137565  0.12908771  1  0.134305  0  0.115517  0.132332  0  1.027728  0
H  H11  1  0.30493609  0.49862309  0.62908779  1  0.134166  0  0.115526  0.132388  0  1.027761  0
H  H12  1  0.19505460  0.99861651  0.62908705  1  0.134235  0  0.115474  0.132317  0  1.02762  0
H  H13  1  0.30493510  0.00138021  0.12908978  1  0.134257  0  0.115535  0.132345  0  1.027662  0
H  H14  1  0.80494193  0.49861731  0.87091305  1  0.134244  0  0.115485  0.13229  0  1.027545  0
H  H15  1  0.69506684  0.50138046  0.37091207  1  0.134404  0  0.115497  0.132329  0  1.027599  0
H  H16  1  0.73378935  0.12105602  0.21506398  1  0.095091  0  0.113116  0.125003  0  1.015687  0
H  H17  1  0.76619777  0.87894614  0.71506566  1  0.095118  0  0.113133  0.125032  0  1.015703  0
H  H18  1  0.26619702  0.62105556  0.28493128  1  0.095187  0  0.113126  0.125024  0  1.015743  0
H  H19  1  0.23380138  0.37894382  0.78493168  1  0.095176  0  0.113137  0.125022  0  1.015716  0
H  H20  1  0.26620526  0.87894551  0.78493633  1  0.095098  0  0.113134  0.125027  0  1.015605  0
H  H21  1  0.23379313  0.12105690  0.28493465  1  0.095111  0  0.113128  0.125011  0  1.015644  0
H  H22  1  0.73379018  0.37894496  0.71506502  1  0.095124  0  0.113125  0.125018  0  1.015657  0
H  H23  1  0.76620434  0.62105821  0.21506729  1  0.095149  0  0.113131  0.124993  0  1.015701  0
H  H24  1  0.54022230  0.16484004  0.37929084  1  0.101732  0  0.115112  0.131047  0  1.023426  0
H  H25  1  0.95977539  0.83515571  0.87928858  1  0.101775  0  0.115096  0.131051  0  1.023412  0
H  H26  1  0.45977742  0.66484398  0.12070980  1  0.101699  0  0.115098  0.13103  0  1.02345  0
H  H27  1  0.04021411  0.33515980  0.62070962  1  0.101674  0  0.115142  0.131095  0  1.02328  0
H  H28  1  0.45977508  0.83515645  0.62071170  1  0.10176  0  0.115086  0.131022  0  1.023447  0
H  H29  1  0.04021552  0.16484178  0.12070995  1  0.101685  0  0.115134  0.131103  0  1.02324  0
H  H30  1  0.54021997  0.33515553  0.87929006  1  0.101677  0  0.115084  0.13104  0  1.023359  0
H  H31  1  0.95978976  0.66484224  0.37929025  1  0.101636  0  0.115139  0.131081  0  1.023251  0
H  H32  1  0.57905881  0.16060660  0.47683412  1  0.140581  0  0.136591  0.105464  0  1.040786  0
H  H33  1  0.92095855  0.83938874  0.97683363  1  0.140472  0  0.136608  0.105505  0  1.040764  0
H  H34  1  0.42095754  0.66061236  0.02316473  1  0.140458  0  0.136596  0.105509  0  1.040761  0
H  H35  1  0.07903839  0.33939334  0.52316501  1  0.140574  0  0.136567  0.105455  0  1.040804  0
H  H36  1  0.42094413  0.83938787  0.52316485  1  0.140555  0  0.136603  0.105522  0  1.040775  0
H  H37  1  0.07904624  0.16060926  0.02316534  1  0.14051  0  0.136592  0.105479  0  1.040794  0
H  H38  1  0.57904448  0.33938614  0.97683380  1  0.140378  0  0.136583  0.105435  0  1.040798  0
H  H39  1  0.92094789  0.66061021  0.47683530  1  0.140476  0  0.136625  0.105549  0  1.040761  0
H  H40  1  0.65054408  0.97745193  0.56527011  1  0.082344  0  0.117708  0.109322  0  0.995849  0
H  H41  1  0.84947138  0.02254254  0.06527244  1  0.081793  0  0.117715  0.109239  0  0.995894  0
H  H42  1  0.34947448  0.47745964  0.93472507  1  0.081388  0  0.11769  0.109256  0  0.995893  0
H  H43  1  0.15053538  0.52254493  0.43472453  1  0.081665  0  0.117703  0.109267  0  0.995871  0
H  H44  1  0.34946812  0.02254355  0.43472708  1  0.081808  0  0.117706  0.109279  0  0.995846  0
H  H45  1  0.15053804  0.97745597  0.93472832  1  0.081797  0  0.117713  0.109318  0  0.995855  0
H  H46  1  0.65053124  0.52253887  0.06527212  1  0.081524  0  0.117732  0.109266  0  0.995934  0
H  H47  1  0.84946756  0.47745610  0.56527489  1  0.081715  0  0.117705  0.109242  0  0.995881  0
H  H48  1  0.70115855  0.96043055  0.44452591  1  0.146993  0  0.123491  0.129947  0  1.045162  0
H  H49  1  0.79884485  0.03956476  0.94452922  1  0.147045  0  0.123536  0.130027  0  1.045128  0
H  H50  1  0.29885403  0.46043324  0.05546915  1  0.147043  0  0.123529  0.130066  0  1.045099  0
H  H51  1  0.20115029  0.53956846  0.55546831  1  0.14699  0  0.123495  0.129974  0  1.045249  0
H  H52  1  0.29884624  0.03956442  0.55547173  1  0.147052  0  0.123526  0.130003  0  1.045177  0
H  H53  1  0.20114975  0.96043273  0.05547332  1  0.146942  0  0.1235  0.130026  0  1.04512  0
H  H54  1  0.70115538  0.53956274  0.94452982  1  0.147105  0  0.123567  0.130071  0  1.045044  0
H  H55  1  0.79885727  0.46043055  0.44452932  1  0.146945  0  0.123503  0.130042  0  1.045156  0
H  H56  1  0.75755622  0.99009502  0.18172071  1  0.175679  0  0.137899  0.115717  0  1.003133  0
H  H57  1  0.74244285  0.00990661  0.68172620  1  0.175763  0  0.137882  0.11571  0  1.00306  0
H  H58  1  0.24244830  0.49009175  0.31827303  1  0.175716  0  0.137879  0.115716  0  1.003015  0
H  H59  1  0.25756036  0.50990968  0.81827577  1  0.175794  0  0.137872  0.115692  0  1.003148  0
H  H60  1  0.24244672  0.00990803  0.81827380  1  0.175732  0  0.137909  0.115787  0  1.002963  0
H  H61  1  0.25754805  0.99009391  0.31827545  1  0.175616  0  0.137878  0.115719  0  1.002977  0
H  H62  1  0.75754724  0.50990474  0.68172594  1  0.175636  0  0.13789  0.115736  0  1.002958  0
H  H63  1  0.74244906  0.49009739  0.18172453  1  0.175676  0  0.137891  0.115697  0  1.00305  0
H  H64  1  0.11746895  0.93351306  0.23236959  1  0.158051  0  0.121188  0.125288  0  1.007358  0
H  H65  1  0.38252840  0.06648779  0.73236940  1  0.158011  0  0.121201  0.125352  0  1.007314  0
H  H66  1  0.88252858  0.43351396  0.26763169  1  0.158027  0  0.121195  0.125299  0  1.007398  0
H  H67  1  0.61748088  0.56648320  0.76762815  1  0.158174  0  0.121168  0.125246  0  1.007284  0
H  H68  1  0.88253214  0.06648746  0.76762938  1  0.158054  0  0.121204  0.125328  0  1.007437  0
H  H69  1  0.61746806  0.93351676  0.26763224  1  0.158418  0  0.121201  0.125339  0  1.007298  0
H  H70  1  0.11746788  0.56648404  0.73236728  1  0.158399  0  0.121191  0.125307  0  1.007328  0
H  H71  1  0.38253317  0.43351631  0.23237082  1  0.158283  0  0.121166  0.125212  0  1.007398  0
H  H72  1  0.01940386  0.01791063  0.32044858  1  0.108651  0  0.125402  0.126962  0  0.996075  0
H  H73  1  0.48059092  0.98209232  0.82045090  1  0.108613  0  0.125353  0.126913  0  0.996137  0
H  H74  1  0.98059268  0.51790793  0.17954927  1  0.108616  0  0.125413  0.126989  0  0.996209  0
H  H75  1  0.51940083  0.48208865  0.67954829  1  0.108556  0  0.125468  0.127061  0  0.99597  0
H  H76  1  0.98058983  0.98209040  0.67955039  1  0.108639  0  0.125402  0.126954  0  0.996209  0
H  H77  1  0.51940091  0.01791123  0.17955074  1  0.108906  0  0.12543  0.127019  0  0.996102  0
H  H78  1  0.01940470  0.48208855  0.82044881  1  0.108875  0  0.125443  0.127037  0  0.996117  0
H  H79  1  0.48060026  0.51790834  0.32045023  1  0.108592  0  0.125412  0.126971  0  0.996112  0
H  H80  1  0.69173507  0.22666291  0.19270547  1  0.134224  0  0.134474  0.102454  0  1.026875  0
H  H81  1  0.80826403  0.77333570  0.69270040  1  0.134677  0  0.134468  0.102507  0  1.026972  0
H  H82  1  0.30825688  0.72666359  0.30729566  1  0.134529  0  0.134492  0.102424  0  1.027027  0
H  H83  1  0.19174157  0.27333733  0.80729596  1  0.134115  0  0.134486  0.102478  0  1.026855  0
H  H84  1  0.30826416  0.77333307  0.80729662  1  0.134196  0  0.134483  0.10247  0  1.026968  0
H  H85  1  0.19173891  0.22666280  0.30729411  1  0.134171  0  0.134497  0.102476  0  1.026943  0
H  H86  1  0.69173866  0.27333391  0.69270688  1  0.134204  0  0.134484  0.102462  0  1.026958  0
H  H87  1  0.80826600  0.72666722  0.19270524  1  0.134207  0  0.134484  0.102458  0  1.027011  0
H  H88  1  0.34790123  0.31184154  0.23752594  1  0.159573  0  0.122446  0.123438  0  1.00574  0
H  H89  1  0.15209798  0.68816083  0.73752250  1  0.159664  0  0.122417  0.123353  0  1.005787  0
H  H90  1  0.65208965  0.81184359  0.26247660  1  0.159595  0  0.122446  0.123337  0  1.005718  0
H  H91  1  0.84790221  0.18816063  0.76247692  1  0.159631  0  0.122401  0.123341  0  1.005795  0
H  H92  1  0.65210727  0.68816453  0.76247571  1  0.159314  0  0.122426  0.123385  0  1.005839  0
H  H93  1  0.84790218  0.31183969  0.26247557  1  0.159627  0  0.122405  0.123335  0  1.005816  0
H  H94  1  0.34789663  0.18815894  0.73752282  1  0.159538  0  0.122457  0.123458  0  1.005685  0
H  H95  1  0.15210350  0.81184191  0.23752383  1  0.159508  0  0.122437  0.12343  0  1.005672  0
H  H96  1  0.40243549  0.21199220  0.32039257  1  0.095774  0  0.122224  0.121096  0  1.023159  0
H  H97  1  0.09756114  0.78801225  0.82038784  1  0.096016  0  0.122133  0.120975  0  1.022993  0
H  H98  1  0.59755726  0.71199152  0.17960989  1  0.095957  0  0.122143  0.120966  0  1.022986  0
H  H99  1  0.90243811  0.28800960  0.67961076  1  0.095932  0  0.122167  0.121027  0  1.023003  0
H  H100  1  0.59756560  0.78801538  0.67961131  1  0.095867  0  0.122175  0.121021  0  1.023065  0
H  H101  1  0.90243625  0.21198978  0.17960934  1  0.095908  0  0.122189  0.121046  0  1.023089  0
H  H102  1  0.40243087  0.28801052  0.82038775  1  0.095888  0  0.1222  0.121084  0  1.022952  0
H  H103  1  0.09757038  0.71199041  0.32038955  1  0.095851  0  0.12217  0.121037  0  1.022987  0
H  H104  1  0.93216250  0.24475033  0.51170299  1  0.17212  0  0.102725  0.13677  0  1.040837  0
H  H105  1  0.56784358  0.75525971  0.01169767  1  0.172142  0  0.102696  0.136688  0  1.040986  0
H  H106  1  0.06783636  0.74474751  0.98829959  1  0.172144  0  0.102716  0.136735  0  1.040876  0
H  H107  1  0.43216437  0.25525407  0.48830348  1  0.172194  0  0.102733  0.136799  0  1.040912  0
H  H108  1  0.06783119  0.75525120  0.48830177  1  0.172224  0  0.102746  0.136815  0  1.040927  0
H  H109  1  0.43216769  0.24474787  0.98830308  1  0.172219  0  0.102757  0.136818  0  1.040885  0
H  H110  1  0.93215547  0.25525957  0.01170250  1  0.172142  0  0.102711  0.13677  0  1.040907  0
H  H111  1  0.56783394  0.74475401  0.51170263  1  0.172102  0  0.102725  0.136779  0  1.040898  0
H  H112  1  0.17739978  0.23954351  0.50260409  1  0.134468  0  0.105259  0.133123  0  1.020288  0
H  H113  1  0.32260257  0.76045461  0.00260427  1  0.13448  0  0.105219  0.133064  0  1.020395  0
H  H114  1  0.82259811  0.73954422  0.99739002  1  0.134568  0  0.105229  0.133112  0  1.020345  0
H  H115  1  0.67740079  0.26045820  0.49739644  1  0.134424  0  0.105266  0.133109  0  1.020439  0
H  H116  1  0.82259298  0.76045902  0.49739756  1  0.134374  0  0.10524  0.13307  0  1.020376  0
H  H117  1  0.67740222  0.23954591  0.99739560  1  0.134362  0  0.105305  0.133178  0  1.020309  0
H  H118  1  0.17739558  0.26045681  0.00260984  1  0.134649  0  0.105248  0.133119  0  1.020293  0
H  H119  1  0.32259289  0.73953980  0.50260386  1  0.134446  0  0.105238  0.133072  0  1.020388  0
C  C120  1  0.66983120  0.08149526  0.38179663  1  0.328767  0  0.114075  0.230347  0  3.998021  0
C  C121  1  0.83017113  0.91850302  0.88179837  1  0.328662  0  0.11409  0.23028  0  3.998147  0
C  C122  1  0.33017795  0.58149532  0.11819949  1  0.3284  0  0.113933  0.230345  0  3.998004  0
C  C123  1  0.16982190  0.41850694  0.61819944  1  0.328183  0  0.113942  0.230498  0  3.997878  0
C  C124  1  0.33016897  0.91850122  0.61820190  1  0.328768  0  0.114133  0.23034  0  3.998031  0
C  C125  1  0.16981885  0.08149397  0.11820238  1  0.328741  0  0.113962  0.230284  0  3.998199  0
C  C126  1  0.66982406  0.41850116  0.88179859  1  0.328808  0  0.113988  0.230123  0  3.998251  0
C  C127  1  0.83018197  0.58149560  0.38179998  1  0.32831  0  0.113982  0.230445  0  3.998001  0
C  C128  1  0.75748457  0.04388421  0.35047542  1  0.000677  0  -0.081356  -0.23905  0  3.90315  0
C  C129  1  0.74251583  0.95611656  0.85047715  1  0.000695  0  -0.08136  -0.238875  0  3.902997  0
C  C130  1  0.24252146  0.54388154  0.14952245  1  0.000622  0  -0.081314  -0.238952  0  3.903055  0
C  C131  1  0.25748124  0.45611873  0.64952203  1  0.001065  0  -0.081327  -0.239095  0  3.903037  0
C  C132  1  0.24251097  0.95611430  0.64952265  1  0.000624  0  -0.08133  -0.238932  0  3.902918  0
C  C133  1  0.25747785  0.04388194  0.14952361  1  0.000684  0  -0.081288  -0.238888  0  3.90297  0
C  C134  1  0.75748148  0.45611545  0.85047697  1  0.000652  0  -0.081369  -0.2389  0  3.902886  0
C  C135  1  0.74252077  0.54388381  0.35047739  1  0.000626  0  -0.081359  -0.23898  0  3.902861  0
C  C136  1  0.77988136  0.05957578  0.29094885  1  0.365993  0  0.102926  0.206966  0  4.054982  0
C  C137  1  0.72011890  0.94042393  0.79095055  1  0.366056  0  0.102884  0.206782  0  4.055062  0
C  C138  1  0.22012389  0.55957412  0.20904859  1  0.366051  0  0.102847  0.206678  0  4.055234  0
C  C139  1  0.27988081  0.44042469  0.70904951  1  0.36606  0  0.102865  0.206753  0  4.055256  0
C  C140  1  0.22011788  0.94042323  0.70904923  1  0.366071  0  0.102909  0.206899  0  4.05494  0
C  C141  1  0.27987386  0.05957558  0.20904932  1  0.366048  0  0.10286  0.206751  0  4.055109  0
C  C142  1  0.77987350  0.44042388  0.79095083  1  0.366072  0  0.102908  0.206861  0  4.054839  0
C  C143  1  0.72012398  0.55957785  0.29094946  1  0.366086  0  0.102862  0.20667  0  4.055151  0
C  C144  1  0.71652225  0.11116684  0.26202729  1  0.037384  0  -0.094859  -0.284054  0  3.997929  0
C  C145  1  0.78347053  0.88883234  0.76202720  1  0.03734  0  -0.09492  -0.284142  0  3.997975  0
C  C146  1  0.28347235  0.61116840  0.23797064  1  0.03733  0  -0.094839  -0.283939  0  3.998033  0
C  C147  1  0.21652963  0.38883094  0.73797059  1  0.037317  0  -0.09487  -0.28399  0  3.997969  0
C  C148  1  0.28347421  0.88883166  0.73797258  1  0.037321  0  -0.094889  -0.284118  0  3.997883  0
C  C149  1  0.21652130  0.11116768  0.23797222  1  0.037386  0  -0.094812  -0.283954  0  3.997769  0
C  C150  1  0.71651763  0.38883212  0.76202789  1  0.037203  0  -0.09482  -0.283964  0  3.997816  0
C  C151  1  0.78347608  0.61117109  0.26202838  1  0.037233  0  -0.094788  -0.283812  0  3.997996  0
C  C152  1  0.62974357  0.14862963  0.29426492  1  0.309105  0  0.105935  0.217893  0  4.021202  0
C  C153  1  0.87025577  0.85136957  0.79426262  1  0.309276  0  0.105961  0.217993  0  4.021037  0
C  C154  1  0.37025693  0.64863089  0.20573527  1  0.309101  0  0.105905  0.21779  0  4.021377  0
C  C155  1  0.12974406  0.35137044  0.70573470  1  0.309141  0  0.105903  0.217871  0  4.021264  0
C  C156  1  0.37025659  0.85137089  0.70573539  1  0.309097  0  0.105926  0.217821  0  4.02111  0
C  C157  1  0.12973884  0.14862943  0.20573591  1  0.309135  0  0.105876  0.217862  0  4.021188  0
C  C158  1  0.62973861  0.35136913  0.79426504  1  0.309228  0  0.105854  0.217754  0  4.021275  0
C  C159  1  0.87026073  0.64863311  0.29426383  1  0.309356  0  0.105888  0.217725  0  4.021286  0
C  C160  1  0.60602411  0.13443783  0.35422094  1  0.043113  0  -0.086439  -0.255784  0  3.898905  0
C  C161  1  0.89397260  0.86556093  0.85422000  1  0.043091  0  -0.086375  -0.255763  0  3.898909  0
C  C162  1  0.39397441  0.63443959  0.14577834  1  0.043281  0  -0.086373  -0.255757  0  3.898922  0
C  C163  1  0.10602087  0.36556319  0.64577910  1  0.043204  0  -0.086404  -0.255913  0  3.898843  0
C  C164  1  0.39397235  0.86556068  0.64577892  1  0.04317  0  -0.086372  -0.255676  0  3.89902  0
C  C165  1  0.10602016  0.13443606  0.14577986  1  0.043103  0  -0.086407  -0.25588  0  3.898877  0
C  C166  1  0.60602019  0.36556042  0.85422063  1  0.043131  0  -0.08626  -0.255588  0  3.898921  0
C  C167  1  0.89398022  0.63443733  0.35422120  1  0.043238  0  -0.086419  -0.255933  0  3.898955  0
C  C168  1  0.60403503  0.10860852  0.48525273  1  1.030571  0  0.149203  0.109706  0  3.882603  0
C  C169  1  0.89597865  0.89138834  0.98525271  1  1.030515  0  0.149194  0.109664  0  3.882857  0
C  C170  1  0.39597714  0.60861320  0.01474563  1  1.030403  0  0.149205  0.109674  0  3.882844  0
C  C171  1  0.10401876  0.39139099  0.51474508  1  1.030434  0  0.149195  0.109615  0  3.88306  0
C  C172  1  0.39597162  0.89138595  0.51474624  1  1.030322  0  0.149181  0.109578  0  3.88274  0
C  C173  1  0.10402521  0.10861117  0.01474626  1  1.030585  0  0.149198  0.10962  0  3.882912  0
C  C174  1  0.60402117  0.39138379  0.98525378  1  1.030279  0  0.149276  0.109782  0  3.883115  0
C  C175  1  0.89597308  0.60861256  0.48525434  1  1.030564  0  0.149202  0.109618  0  3.882859  0
C  C176  1  0.64494718  0.01339612  0.52896462  1  0.376528  0  0.001862  -0.021813  0  4.007937  0
C  C177  1  0.85506356  0.98659730  0.02896542  1  0.376981  0  0.001773  -0.021781  0  4.008189  0
C  C178  1  0.35506810  0.51340261  0.97103379  1  0.377335  0  0.001793  -0.021886  0  4.008316  0
C  C179  1  0.14493537  0.48660248  0.47103099  1  0.376809  0  0.001789  -0.021773  0  4.008072  0
C  C180  1  0.35505854  0.98659734  0.47103302  1  0.376878  0  0.001766  -0.021899  0  4.008135  0
C  C181  1  0.14494030  0.01339969  0.97103444  1  0.376903  0  0.001872  -0.021765  0  4.008042  0
C  C182  1  0.64493484  0.48659538  0.02896607  1  0.377332  0  0.001775  -0.021775  0  4.008256  0
C  C183  1  0.85506664  0.51340005  0.52896575  1  0.37698  0  0.001877  -0.02163  0  4.008102  0
C  C184  1  0.67301224  0.00424523  0.46995845  1  0.346397  0  0.002915  -0.092978  0  3.885088  0
C  C185  1  0.82699307  0.99574859  0.96996115  1  0.346609  0  0.002957  -0.092869  0  3.885137  0
C  C186  1  0.32700453  0.50424974  0.03003671  1  0.346656  0  0.00298  -0.092784  0  3.885264  0
C  C187  1  0.17300344  0.49575294  0.53003717  1  0.346668  0  0.00301  -0.092835  0  3.885107  0
C  C188  1  0.32699069  0.99574772  0.53003873  1  0.346613  0  0.002984  -0.092773  0  3.885003  0
C  C189  1  0.17300062  0.00424790  0.03003961  1  0.34656  0  0.00297  -0.092922  0  3.885025  0
C  C190  1  0.67300766  0.49574624  0.96996226  1  0.346551  0  0.002929  -0.092864  0  3.884941  0
C  C191  1  0.82700876  0.50424859  0.46996180  1  0.346729  0  0.002973  -0.092943  0  3.885173  0
C  C192  1  0.84519779  0.98885257  0.20524007  1  0.946771  0  0.139832  0.094243  0  3.899254  0
C  C193  1  0.65480226  0.01115009  0.70524417  1  0.946796  0  0.139799  0.094208  0  3.898991  0
C  C194  1  0.15480579  0.48884702  0.29475367  1  0.947231  0  0.139835  0.094241  0  3.898977  0
C  C195  1  0.34520003  0.51114985  0.79475735  1  0.946763  0  0.139816  0.094152  0  3.899112  0
C  C196  1  0.15480515  0.01114997  0.79475488  1  0.946818  0  0.139746  0.094079  0  3.898923  0
C  C197  1  0.34519327  0.98884892  0.29475703  1  0.947577  0  0.139789  0.094209  0  3.89903  0
C  C198  1  0.84519345  0.51114845  0.70524352  1  0.947337  0  0.139764  0.094168  0  3.89913  0
C  C199  1  0.65480198  0.48885370  0.20524296  1  0.947442  0  0.139789  0.094157  0  3.899076  0
C  C200  1  0.02921292  0.95914009  0.23473757  1  0.439035  0  0.001253  -0.017982  0  3.994076  0
C  C201  1  0.47078443  0.04086077  0.73473830  1  0.439173  0  0.001287  -0.018008  0  3.99417  0
C  C202  1  0.97078577  0.45914122  0.26526061  1  0.439028  0  0.00125  -0.017987  0  3.994172  0
C  C203  1  0.52921721  0.54085392  0.76525834  1  0.438962  0  0.001308  -0.017698  0  3.99383  0
C  C204  1  0.97078539  0.04085993  0.76526096  1  0.439065  0  0.001231  -0.018124  0  3.994298  0
C  C205  1  0.52920833  0.95914127  0.26526112  1  0.438597  0  0.001289  -0.01791  0  3.99413  0
C  C206  1  0.02921069  0.54085526  0.73473791  1  0.438587  0  0.001235  -0.017936  0  3.993958  0
C  C207  1  0.47078666  0.45914458  0.23474063  1  0.43873  0  0.001298  -0.017773  0  3.994026  0
C  C208  1  0.98286281  0.00068777  0.27818627  1  0.267918  0  -0.003544  -0.111084  0  3.937347  0
C  C209  1  0.51713371  0.99931495  0.77818835  1  0.267657  0  -0.003558  -0.111115  0  3.937588  0
C  C210  1  0.01713357  0.50068609  0.22181112  1  0.267587  0  -0.003575  -0.111193  0  3.937662  0
C  C211  1  0.48286652  0.49931122  0.72181353  1  0.267808  0  -0.003549  -0.111305  0  3.937659  0
C  C212  1  0.01713180  0.99931275  0.72181225  1  0.267591  0  -0.003536  -0.111032  0  3.937449  0
C  C213  1  0.48285997  0.00068809  0.22181285  1  0.267663  0  -0.003626  -0.111278  0  3.937499  0
C  C214  1  0.98286381  0.49930838  0.77818651  1  0.267643  0  -0.003561  -0.111202  0  3.937517  0
C  C215  1  0.51713364  0.50068829  0.27818677  1  0.267783  0  -0.003465  -0.111087  0  3.93756  0
C  C216  1  0.60520895  0.23593069  0.21563078  1  0.985931  0  0.145642  0.101857  0  3.893815  0
C  C217  1  0.89478465  0.76406945  0.71562665  1  0.985369  0  0.145538  0.101617  0  3.894034  0
C  C218  1  0.39477661  0.73593108  0.28436946  1  0.985308  0  0.145488  0.10178  0  3.893967  0
C  C219  1  0.10521623  0.26406780  0.78436971  1  0.985871  0  0.145569  0.101811  0  3.893799  0
C  C220  1  0.39479029  0.76406730  0.78437086  1  0.985569  0  0.145586  0.101564  0  3.894103  0
C  C221  1  0.10521458  0.23593057  0.28436920  1  0.985895  0  0.14553  0.101718  0  3.893856  0
C  C222  1  0.60521152  0.26406793  0.71563040  1  0.98561  0  0.145615  0.101804  0  3.893891  0
C  C223  1  0.89478856  0.73593322  0.21563016  1  0.985527  0  0.14552  0.101556  0  3.894069  0
C  C224  1  0.42704282  0.27847562  0.24036709  1  0.365293  0  0.005325  -0.015815  0  3.984747  0
C  C225  1  0.07295454  0.72152775  0.74036453  1  0.365525  0  0.005297  -0.015704  0  3.984753  0
C  C226  1  0.57294590  0.77847545  0.25963275  1  0.365434  0  0.005231  -0.015694  0  3.984671  0
C  C227  1  0.92704596  0.22152574  0.75963403  1  0.365483  0  0.005342  -0.015654  0  3.984777  0
C  C228  1  0.57296197  0.72152843  0.75963456  1  0.365785  0  0.005323  -0.015845  0  3.984841  0
C  C229  1  0.92704470  0.27847327  0.25963266  1  0.365581  0  0.005315  -0.015706  0  3.984821  0
C  C230  1  0.42704038  0.22152507  0.74036578  1  0.365336  0  0.005313  -0.015848  0  3.984715  0
C  C231  1  0.07296068  0.77847528  0.24036583  1  0.365325  0  0.005305  -0.01586  0  3.984847  0
C  C232  1  0.45193486  0.22888001  0.28122089  1  0.324356  0  -0.003269  -0.116006  0  3.943336  0
C  C233  1  0.04806075  0.77111938  0.78121613  1  0.323726  0  -0.003143  -0.115785  0  3.943099  0
C  C234  1  0.54805711  0.72888174  0.21878292  1  0.324046  0  -0.003187  -0.115884  0  3.943098  0
C  C235  1  0.95193742  0.27112042  0.71878158  1  0.323975  0  -0.00322  -0.115976  0  3.943211  0
C  C236  1  0.54806438  0.77112304  0.71878165  1  0.324017  0  -0.00329  -0.116017  0  3.943277  0
C  C237  1  0.95193571  0.22887963  0.21878106  1  0.323918  0  -0.003193  -0.115939  0  3.943318  0
C  C238  1  0.45193287  0.27111878  0.78121784  1  0.323989  0  -0.003217  -0.115974  0  3.94333  0
C  C239  1  0.04807015  0.72888161  0.28121739  1  0.323982  0  -0.003194  -0.116008  0  3.943358  0
C  C240  1  0.94816595  0.17907585  0.58962629  1  -0.244586  0  -0.034449  -0.123867  0  3.991203  0
C  C241  1  0.55183383  0.82092620  0.08962814  1  -0.244565  0  -0.034431  -0.123834  0  3.991393  0
C  C242  1  0.05183879  0.67907998  0.91037045  1  -0.243961  0  -0.03445  -0.123913  0  3.99127  0
C  C243  1  0.44816730  0.32091851  0.41037484  1  -0.244092  0  -0.034532  -0.123965  0  3.991152  0
C  C244  1  0.05183051  0.82091912  0.41037670  1  -0.244148  0  -0.03453  -0.123997  0  3.991145  0
C  C245  1  0.44816818  0.17907886  0.91037752  1  -0.244163  0  -0.034623  -0.123987  0  3.991119  0
C  C246  1  0.94816507  0.32093164  0.08963253  1  -0.244407  0  -0.034536  -0.123918  0  3.991529  0
C  C247  1  0.55183286  0.67907949  0.58962591  1  -0.243842  0  -0.03453  -0.124029  0  3.991103  0
C  C248  1  0.99247093  0.21729774  0.54229955  1  -0.060223  0  -0.110073  -0.133895  0  3.985441  0
C  C249  1  0.50753614  0.78270628  0.04229868  1  -0.060432  0  -0.110075  -0.133849  0  3.985631  0
C  C250  1  0.00753231  0.71729877  0.95769767  1  -0.060583  0  -0.110033  -0.133774  0  3.985247  0
C  C251  1  0.49247205  0.28270128  0.45770428  1  -0.060432  0  -0.110004  -0.133823  0  3.985331  0
C  C252  1  0.00752460  0.78270026  0.45770433  1  -0.060321  0  -0.11003  -0.133878  0  3.985244  0
C  C253  1  0.49247513  0.21729878  0.95770386  1  -0.060596  0  -0.109991  -0.133727  0  3.985206  0
C  C254  1  0.99246323  0.28270831  0.04230487  1  -0.060414  0  -0.110041  -0.133902  0  3.9855  0
C  C255  1  0.50752626  0.71730126  0.54229915  1  -0.060637  0  -0.110043  -0.133926  0  3.985314  0
C  C256  1  0.12325662  0.21488758  0.53746567  1  0.048012  0  -0.106225  -0.12127  0  3.99041  0
C  C257  1  0.37674859  0.78511158  0.03746500  1  0.048049  0  -0.106108  -0.121101  0  3.990556  0
C  C258  1  0.87674289  0.71488940  0.96252843  1  0.048131  0  -0.106199  -0.121294  0  3.99057  0
C  C259  1  0.62325500  0.28511046  0.46253706  1  0.047883  0  -0.106143  -0.121145  0  3.990527  0
C  C260  1  0.87673799  0.78511143  0.46253598  1  0.047951  0  -0.106075  -0.121053  0  3.990221  0
C  C261  1  0.62325990  0.21489146  0.96253665  1  0.048164  0  -0.106147  -0.121366  0  3.990397  0
C  C262  1  0.12325264  0.28511465  0.03747010  1  0.048195  0  -0.106186  -0.121221  0  3.990608  0
C  C263  1  0.37674146  0.71488804  0.53746503  1  0.047991  0  -0.106083  -0.121041  0  3.990404  0
C  C264  1  0.17685811  0.17570766  0.58167659  1  -0.272207  0  -0.036308  -0.129386  0  4.00887  0
C  C265  1  0.32314073  0.82428599  0.08167681  1  -0.27203  0  -0.036367  -0.129517  0  4.008935  0
C  C266  1  0.82314290  0.67571132  0.91831792  1  -0.272512  0  -0.036275  -0.129418  0  4.009161  0
C  C267  1  0.67685951  0.32428649  0.41832483  1  -0.271787  0  -0.036312  -0.129384  0  4.008662  0
C  C268  1  0.82313928  0.82428883  0.41832417  1  -0.272096  0  -0.036289  -0.129403  0  4.008774  0
C  C269  1  0.67686406  0.17571503  0.91832439  1  -0.271419  0  -0.036311  -0.129248  0  4.008641  0
C  C270  1  0.17685818  0.32429324  0.08167926  1  -0.272398  0  -0.036319  -0.129431  0  4.009237  0
C  C271  1  0.32314343  0.67570697  0.58167547  1  -0.272284  0  -0.036378  -0.129503  0  4.008964  0
C  C272  1  0.81821604  0.16828584  0.60948569  1  1.560014  0  0.171951  0.560986  0  4.305747  0
C  C273  1  0.68178009  0.83172278  0.10948673  1  1.560262  0  0.171731  0.560782  0  4.306186  0
C  C274  1  0.18178583  0.66828979  0.89051729  1  1.560141  0  0.171933  0.560953  0  4.305768  0
C  C275  1  0.31821744  0.33171473  0.39051804  1  1.560219  0  0.171844  0.560852  0  4.306072  0
C  C276  1  0.18178505  0.83170711  0.39051819  1  1.560747  0  0.171874  0.560769  0  4.305663  0
C  C277  1  0.31821822  0.16828278  0.89052027  1  1.560323  0  0.171805  0.560751  0  4.306244  0
C  C278  1  0.81821711  0.33172485  0.10948926  1  1.560297  0  0.17173  0.56058  0  4.3063  0
C  C279  1  0.68178365  0.66829083  0.60948405  1  1.560709  0  0.171992  0.56109  0  4.305361  0
C  C280  1  0.30883316  0.16129264  0.59434023  1  1.543904  0  0.174469  0.555016  0  4.299378  0
C  C281  1  0.19116478  0.83869397  0.09434574  1  1.54375  0  0.174433  0.555093  0  4.299604  0
C  C282  1  0.69117420  0.66130198  0.90565070  1  1.543645  0  0.174323  0.554938  0  4.299851  0
C  C283  1  0.80883281  0.33870035  0.40565547  1  1.543793  0  0.174367  0.554964  0  4.299636  0
C  C284  1  0.69116885  0.83869982  0.40565384  1  1.544037  0  0.17441  0.555103  0  4.299473  0
C  C285  1  0.80883538  0.16129848  0.90565947  1  1.543734  0  0.174356  0.554933  0  4.299668  0
C  C286  1  0.30882874  0.33870055  0.09434514  1  1.54376  0  0.17427  0.554865  0  4.299966  0
C  C287  1  0.19117290  0.66129362  0.59434038  1  1.543946  0  0.174436  0.554952  0  4.299866  0
S  S288  1  0.06688075  0.14010397  0.62757493  1  0.241491  0  0.075885  0.12896  0  2.992665  0
S  S289  1  0.43312005  0.85988973  0.12757703  1  0.241497  0  0.075853  0.128939  0  2.992732  0
S  S290  1  0.93312642  0.64011191  0.87242089  1  0.241343  0  0.075893  0.128977  0  2.992728  0
S  S291  1  0.56687681  0.35988888  0.37242152  1  0.240761  0  0.075868  0.128912  0  2.992449  0
S  S292  1  0.93312311  0.85988949  0.37242404  1  0.240968  0  0.075821  0.128875  0  2.992624  0
S  S293  1  0.56688104  0.14010928  0.87242506  1  0.240431  0  0.075861  0.128877  0  2.992424  0
S  S294  1  0.06687837  0.35989617  0.12757675  1  0.241428  0  0.075953  0.12908  0  2.99303  0
S  S295  1  0.43312520  0.64010509  0.62757388  1  0.241191  0  0.075932  0.129048  0  2.992633  0
N  N296  1  0.64685590  0.06541488  0.44225390  1  -1.278179  0  -0.222065  0.001224  0  3.774186  0
N  N297  1  0.85314934  0.93458144  0.94225522  1  -1.278135  0  -0.222018  0.001219  0  3.774361  0
N  N298  1  0.35315495  0.56541696  0.05774310  1  -1.277889  0  -0.221956  0.001131  0  3.774421  0
N  N299  1  0.14684568  0.43458423  0.55774260  1  -1.277827  0  -0.221968  0.001178  0  3.774362  0
N  N300  1  0.35314426  0.93457909  0.55774463  1  -1.278092  0  -0.222065  0.001087  0  3.774347  0
N  N301  1  0.14684434  0.06541807  0.05774464  1  -1.278125  0  -0.22198  0.001277  0  3.774201  0
N  N302  1  0.64684984  0.43457700  0.94225632  1  -1.277925  0  -0.222035  0.001191  0  3.774338  0
N  N303  1  0.85315911  0.56541780  0.44225592  1  -1.277938  0  -0.222011  0.001129  0  3.774286  0
N  N304  1  0.60244292  0.07838577  0.53774179  1  -1.210122  0  -0.3459  -0.272305  0  3.521007  0
N  N305  1  0.89757340  0.92160917  0.03774124  1  -1.210177  0  -0.346  -0.272476  0  3.521555  0
N  N306  1  0.39757017  0.57839288  0.96225666  1  -1.210162  0  -0.345951  -0.272395  0  3.521443  0
N  N307  1  0.10242865  0.42161171  0.46225691  1  -1.210096  0  -0.345961  -0.27237  0  3.521463  0
N  N308  1  0.39756650  0.92160819  0.46225673  1  -1.210057  0  -0.345952  -0.272314  0  3.521226  0
N  N309  1  0.10243694  0.07838934  0.96225862  1  -1.210105  0  -0.346024  -0.272449  0  3.521417  0
N  N310  1  0.60242814  0.42160562  0.03774142  1  -1.210106  0  -0.346  -0.272517  0  3.521773  0
N  N311  1  0.89756411  0.57839234  0.53774206  1  -1.210201  0  -0.34603  -0.272505  0  3.521378  0
N  N312  1  0.86619723  0.01997630  0.25874645  1  -1.250051  0  -0.230199  0.000365  0  3.801857  0
N  N313  1  0.63380018  0.98002691  0.75874991  1  -1.250044  0  -0.230139  0.000516  0  3.801641  0
N  N314  1  0.13380211  0.51997091  0.24124784  1  -1.250027  0  -0.230189  0.000501  0  3.801735  0
N  N315  1  0.36619803  0.48002592  0.74125017  1  -1.250094  0  -0.230158  0.000629  0  3.80171  0
N  N316  1  0.13380016  0.98002573  0.74125029  1  -1.25006  0  -0.230167  0.000512  0  3.801494  0
N  N317  1  0.36619258  0.01997361  0.24125084  1  -1.250082  0  -0.230134  0.000532  0  3.801633  0
N  N318  1  0.86619435  0.48002407  0.75874935  1  -1.250076  0  -0.230133  0.000493  0  3.801605  0
N  N319  1  0.63380120  0.51997612  0.25875058  1  -1.250111  0  -0.230153  0.000558  0  3.801546  0
N  N320  1  0.94241358  0.95201966  0.19001673  1  -1.212338  0  -0.350695  -0.275417  0  3.500781  0
N  N321  1  0.55758551  0.04798147  0.69001947  1  -1.21227  0  -0.350691  -0.275417  0  3.500662  0
N  N322  1  0.05758967  0.45201690  0.30997877  1  -1.212427  0  -0.350679  -0.275388  0  3.500678  0
N  N323  1  0.44241897  0.54797898  0.80998208  1  -1.212172  0  -0.350773  -0.275565  0  3.500483  0
N  N324  1  0.05758843  0.04798238  0.80997956  1  -1.212118  0  -0.350652  -0.275358  0  3.500653  0
N  N325  1  0.44240817  0.95201955  0.30998084  1  -1.212804  0  -0.350697  -0.27547  0  3.50087  0
N  N326  1  0.94240679  0.54797858  0.69001708  1  -1.212475  0  -0.3507  -0.275491  0  3.500801  0
N  N327  1  0.55758582  0.45202305  0.19001956  1  -1.212597  0  -0.350783  -0.275524  0  3.50085  0
N  N328  1  0.56564214  0.20159590  0.26520645  1  -1.254049  0  -0.225466  0.006762  0  3.77578  0
N  N329  1  0.93435250  0.79840480  0.76520192  1  -1.254302  0  -0.225368  0.006814  0  3.77577  0
N  N330  1  0.43434773  0.70159685  0.23479422  1  -1.254129  0  -0.225356  0.006929  0  3.775773  0
N  N331  1  0.06564777  0.29840350  0.73479358  1  -1.253992  0  -0.225355  0.006837  0  3.77573  0
N  N332  1  0.43435524  0.79840563  0.73479609  1  -1.253982  0  -0.225367  0.00713  0  3.775301  0
N  N333  1  0.06564396  0.20159573  0.23479438  1  -1.254096  0  -0.225421  0.006854  0  3.77566  0
N  N334  1  0.56564132  0.29840367  0.76520475  1  -1.253836  0  -0.225431  0.006901  0  3.775658  0
N  N335  1  0.93435887  0.70159853  0.26520450  1  -1.253806  0  -0.225391  0.007204  0  3.775565  0
N  N336  1  0.52356456  0.28230937  0.20007608  1  -1.184559  0  -0.339827  -0.258131  0  3.487208  0
N  N337  1  0.97643270  0.71769127  0.70007330  1  -1.184117  0  -0.339781  -0.25815  0  3.487095  0
N  N338  1  0.47642326  0.78231149  0.29992420  1  -1.184143  0  -0.339654  -0.258135  0  3.486974  0
N  N339  1  0.02356961  0.21769042  0.79992481  1  -1.184384  0  -0.339807  -0.258203  0  3.487095  0
N  N340  1  0.47643745  0.71768964  0.79992512  1  -1.184169  0  -0.339795  -0.258003  0  3.487138  0
N  N341  1  0.02356931  0.28230925  0.29992389  1  -1.184419  0  -0.339766  -0.258127  0  3.48701  0
N  N342  1  0.52356764  0.21768751  0.70007567  1  -1.184218  0  -0.339859  -0.258221  0  3.487085  0
N  N343  1  0.97643703  0.78231161  0.20007595  1  -1.184101  0  -0.339773  -0.258034  0  3.487193  0
O  O344  1  0.79595790  0.11851920  0.64365827  1  -1.179608  0  -0.352381  -0.590541  0  2.156788  0
O  O345  1  0.70403645  0.88149399  0.14365179  1  -1.179634  0  -0.352288  -0.590458  0  2.157296  0
O  O346  1  0.20405555  0.61852469  0.85634511  1  -1.179689  0  -0.352418  -0.590562  0  2.156791  0
O  O347  1  0.29595597  0.38148333  0.35634946  1  -1.179792  0  -0.352294  -0.590493  0  2.157074  0
O  O348  1  0.20404874  0.88147224  0.35634382  1  -1.180059  0  -0.352388  -0.59043  0  2.156787  0
O  O349  1  0.29596186  0.11851561  0.85634808  1  -1.179774  0  -0.352326  -0.590509  0  2.157112  0
O  O350  1  0.79595757  0.38149852  0.14365297  1  -1.179862  0  -0.352287  -0.590328  0  2.157292  0
O  O351  1  0.70404696  0.61852576  0.64365843  1  -1.18022  0  -0.352446  -0.590626  0  2.156742  0
O  O352  1  0.73514620  0.20971740  0.59136366  1  -1.172037  0  -0.347725  -0.570064  0  2.132593  0
O  O353  1  0.76486284  0.79029423  0.09136695  1  -1.172169  0  -0.347604  -0.56997  0  2.132497  0
O  O354  1  0.26485974  0.70971604  0.90864024  1  -1.172108  0  -0.347715  -0.57  0  2.132607  0
O  O355  1  0.23513987  0.29028598  0.40863914  1  -1.171957  0  -0.34775  -0.570049  0  2.132675  0
O  O356  1  0.26485488  0.79027808  0.40864334  1  -1.172172  0  -0.347688  -0.569943  0  2.13256  0
O  O357  1  0.23514195  0.20971184  0.90864094  1  -1.171995  0  -0.34766  -0.569942  0  2.132756  0
O  O358  1  0.73513764  0.29029507  0.09137077  1  -1.172147  0  -0.347575  -0.569842  0  2.132611  0
O  O359  1  0.76485751  0.70971908  0.59136028  1  -1.172097  0  -0.34774  -0.570042  0  2.132429  0
O  O360  1  0.39304823  0.19123309  0.56470830  1  -1.165457  0  -0.333253  -0.543988  0  2.159981  0
O  O361  1  0.10695057  0.80875752  0.06470661  1  -1.16554  0  -0.333344  -0.544175  0  2.159762  0
O  O362  1  0.60695940  0.69123418  0.93528711  1  -1.165325  0  -0.333191  -0.543968  0  2.160013  0
O  O363  1  0.89304861  0.30876617  0.43529547  1  -1.165312  0  -0.333291  -0.544123  0  2.159889  0
O  O364  1  0.60695008  0.80877096  0.43529112  1  -1.165528  0  -0.33327  -0.544079  0  2.159931  0
O  O365  1  0.89305145  0.19123645  0.93529637  1  -1.165514  0  -0.333339  -0.544157  0  2.159789  0
O  O366  1  0.39304261  0.30876836  0.06470606  1  -1.165342  0  -0.333218  -0.543989  0  2.159963  0
O  O367  1  0.10695433  0.69123082  0.56470974  1  -1.165483  0  -0.333252  -0.543975  0  2.1601  0
O  O368  1  0.33117334  0.11818726  0.63555124  1  -1.177867  0  -0.348551  -0.585145  0  2.185  0
O  O369  1  0.16882099  0.88179081  0.13556123  1  -1.17768  0  -0.348374  -0.584921  0  2.185313  0
O  O370  1  0.66882622  0.61820206  0.86443788  1  -1.177641  0  -0.348521  -0.585076  0  2.185242  0
O  O371  1  0.83117884  0.38179671  0.36444046  1  -1.177789  0  -0.348416  -0.584932  0  2.185272  0
O  O372  1  0.66882404  0.88179611  0.36443703  1  -1.177929  0  -0.348524  -0.585126  0  2.185123  0
O  O373  1  0.83118380  0.11819610  0.86445067  1  -1.177685  0  -0.348339  -0.584895  0  2.185354  0
O  O374  1  0.33118412  0.38179594  0.13555976  1  -1.177842  0  -0.348419  -0.58499  0  2.185404  0
O  O375  1  0.16882410  0.61818919  0.63554870  1  -1.17779  0  -0.348526  -0.585093  0  2.185229  0
