# generated using pymatgen
data_ZnH7C26N6ClO14
_symmetry_space_group_name_H-M   'P 1'
_cell_length_a   14.76807250
_cell_length_b   16.03632939
_cell_length_c   23.75578503
_cell_angle_alpha   90.09067712
_cell_angle_beta   90.16470571
_cell_angle_gamma   90.09036823
_symmetry_Int_Tables_number   1
_chemical_formula_structural   ZnH7C26N6ClO14
_chemical_formula_sum   'Zn2 H14 C52 N12 Cl2 O28'
_cell_volume   5625.94249614
_cell_formula_units_Z   2
loop_
 _symmetry_equiv_pos_site_id
 _symmetry_equiv_pos_as_xyz
  1  'x, y, z'
loop_
 _atom_site_type_symbol
 _atom_site_label
 _atom_site_symmetry_multiplicity
 _atom_site_fract_x
 _atom_site_fract_y
 _atom_site_fract_z
 _atom_site_occupancy
 _atom_site_pbe_bader_charge
 _atom_site_pbe_bader_spin_density
 _atom_site_pbe_cm5_charge
 _atom_site_pbe_ddec_charge
 _atom_site_pbe_ddec_spin_density
 _atom_site_pbe_ddec_sum_bond_order
 _atom_site_pbe_magmom
Zn  Zn0  1  0.59378091  0.49985560  0.50010244  1  1.313104  0  0.684873  0.884758  0  2.435266  0
Zn  Zn1  1  0.40575085  0.50023624  0.49970685  1  1.305349  0  0.686527  0.891681  0  2.429411  0
H  H2  1  0.37332936  0.45143998  0.21100487  1  0.096293  0  0.122036  0.146763  0  0.961382  0
H  H3  1  0.37775356  0.55927656  0.78839055  1  0.097695  0  0.122508  0.146858  0  0.960364  0
H  H4  1  0.64051761  0.53368420  0.32461955  1  0.145858  0  0.127076  0.146315  0  0.979571  0
H  H5  1  0.63439213  0.45284749  0.67572595  1  0.155129  0  0.12572  0.141852  0  0.981136  0
H  H6  1  0.41836825  0.94811479  0.58292359  1  0.079466  0  0.103934  0.092471  0  0.987193  0
H  H7  1  0.58093941  0.05217122  0.41758556  1  0.092241  0  0.104636  0.092864  0  0.986401  0
H  H8  1  0.57251176  0.05351523  0.58586023  1  0.059718  0  0.104808  0.093727  0  0.985005  0
H  H9  1  0.42717941  0.94626283  0.41461969  1  0.057253  0  0.104549  0.092835  0  0.985674  0
H  H10  1  0.34239753  0.04903582  0.49659802  1  0.051034  0  0.100512  0.087172  0  0.992943  0
H  H11  1  0.65704367  0.95101678  0.50370913  1  0.06077  0  0.10049  0.087414  0  0.992228  0
H  H12  1  0.94402007  0.61210649  0.56075624  1  0.151839  0  0.140337  0.150113  0  0.933982  0
H  H13  1  0.05528074  0.38783623  0.43870881  1  0.147995  0  0.139712  0.149512  0  0.935403  0
H  H14  1  0.94272375  0.36649870  0.53541855  1  0.123931  0  0.140855  0.151333  0  0.933104  0
H  H15  1  0.05659541  0.63355377  0.46403984  1  0.124511  0  0.140432  0.150733  0  0.933667  0
C  C16  1  0.49808496  0.66052485  0.50048651  1  1.704947  0  0.216242  0.675351  0  4.230929  0
C  C17  1  0.49815232  0.33955041  0.49921517  1  1.706246  0  0.21632  0.675397  0  4.230743  0
C  C18  1  0.50192695  0.49782158  0.39093237  1  1.642639  0  0.216758  0.606161  0  4.174078  0
C  C19  1  0.50097766  0.50216709  0.60893446  1  1.626265  0  0.216619  0.606247  0  4.175588  0
C  C20  1  0.50334198  0.42480310  0.87673616  1  1.420209  0  0.252882  0.455081  0  4.092027  0
C  C21  1  0.51319719  0.57295621  0.12314944  1  1.41222  0  0.252251  0.452446  0  4.090591  0
C  C22  1  0.52538193  0.57950063  0.87883351  1  1.399149  0  0.25435  0.455816  0  4.085773  0
C  C23  1  0.51796694  0.41703409  0.12106425  1  1.396906  0  0.254297  0.455624  0  4.083939  0
C  C24  1  0.52073019  0.57691082  0.94125858  1  0.109628  0  0.01541  -0.074791  0  3.912492  0
C  C25  1  0.51296908  0.42001073  0.05863925  1  -0.026173  0  0.015848  -0.073588  0  3.91037  0
C  C26  1  0.51637049  0.49935014  0.96993099  1  -0.070516  0  0.018841  0.056954  0  3.954401  0
C  C27  1  0.51669432  0.49758587  0.02997077  1  0.122653  0  0.01893  0.055215  0  3.956324  0
C  C28  1  0.51103662  0.42360256  0.93902758  1  0.081339  0  0.015437  -0.075021  0  3.912791  0
C  C29  1  0.52004830  0.57345277  0.06085690  1  0.105949  0  0.01556  -0.072486  0  3.910656  0
C  C30  1  0.52390540  0.65007178  0.97251601  1  0.251261  0  0.11144  0.039972  0  3.86735  0
C  C31  1  0.50790062  0.34691555  0.02736798  1  0.359636  0  0.111743  0.04004  0  3.867664  0
C  C32  1  0.52535186  0.64832157  0.03175512  1  0.151704  0  0.11269  0.0445  0  3.860099  0
C  C33  1  0.50870287  0.34858216  0.96812625  1  0.162058  0  0.112225  0.042774  0  3.864302  0
C  C34  1  0.43200202  0.46977775  0.23600684  1  0.050001  0  -0.077204  -0.207409  0  3.929128  0
C  C35  1  0.43402606  0.53554492  0.76357139  1  0.070098  0  -0.076782  -0.205996  0  3.926466  0
C  C36  1  0.42649316  0.46970667  0.29478440  1  0.117688  0  0.040567  0.172048  0  3.983152  0
C  C37  1  0.42872087  0.53641400  0.70474815  1  0.09835  0  0.041141  0.16829  0  3.992267  0
C  C38  1  0.50161078  0.49397612  0.32755348  1  0.003224  0  -0.001392  -0.057496  0  3.884292  0
C  C39  1  0.50079974  0.50539356  0.67231594  1  0.03239  0  -0.001255  -0.055834  0  3.88979  0
C  C40  1  0.58135973  0.51617631  0.29980848  1  0.139948  0  -0.055469  -0.093269  0  3.905994  0
C  C41  1  0.57744809  0.47565652  0.70027628  1  0.12732  0  -0.056865  -0.093614  0  3.91418  0
C  C42  1  0.58716690  0.51573629  0.24144906  1  0.164612  0  0.084884  0.000153  0  3.890368  0
C  C43  1  0.58313258  0.47503467  0.75867361  1  0.162632  0  0.083989  -0.003364  0  3.893143  0
C  C44  1  0.51139284  0.49284004  0.20907884  1  0.437794  0  0.108008  0.178967  0  4.004008  0
C  C45  1  0.51023420  0.50480865  0.79077147  1  0.418451  0  0.107977  0.180619  0  4.000921  0
C  C46  1  0.54035967  0.02886768  0.54780858  1  -0.013249  0  -0.067385  -0.073775  0  3.62633  0
C  C47  1  0.45913125  0.97120016  0.45265187  1  -0.010556  0  -0.066148  -0.071398  0  3.624831  0
C  C48  1  0.45428221  0.97210395  0.54616568  1  -0.023249  0  -0.068382  -0.076142  0  3.631429  0
C  C49  1  0.54510853  0.02797006  0.45430854  1  -0.037233  0  -0.067271  -0.073437  0  3.626878  0
C  C50  1  0.49905903  0.75029632  0.50055129  1  0.219954  0  -0.060419  -0.20549  0  4.010213  0
C  C51  1  0.49791752  0.24976445  0.49906196  1  0.217104  0  -0.060151  -0.204608  0  4.008662  0
C  C52  1  0.58723277  0.97357418  0.50218586  1  -0.028691  0  -0.071308  -0.081238  0  3.639254  0
C  C53  1  0.41218628  0.02644740  0.49824207  1  -0.018674  0  -0.071822  -0.080803  0  3.641872  0
C  C54  1  0.50136256  0.91439334  0.50066137  1  0.089704  0  0.007051  0.122116  0  3.803153  0
C  C55  1  0.49798034  0.08566214  0.49995971  1  0.099058  0  0.00671  0.121088  0  3.804888  0
C  C56  1  0.50077369  0.82628405  0.50060355  1  -0.558635  0  -0.034915  -0.051548  0  4.103086  0
C  C57  1  0.49781782  0.17376676  0.49938990  1  -0.554338  0  -0.034648  -0.051672  0  4.104186  0
C  C58  1  0.96899146  0.56283298  0.53314316  1  -0.00965  0  -0.037541  -0.079511  0  3.555954  0
C  C59  1  0.03040077  0.43717214  0.46630181  1  -0.0055  0  -0.038118  -0.079977  0  3.558348  0
C  C60  1  0.02884140  0.48807545  0.55254095  1  0.287042  0  0.10667  0.065179  0  3.610428  0
C  C61  1  0.97056503  0.51194587  0.44688216  1  0.307761  0  0.106912  0.064602  0  3.609264  0
C  C62  1  0.03115453  0.57448666  0.48045202  1  0.010026  0  -0.038317  -0.080864  0  3.556757  0
C  C63  1  0.96823430  0.42553154  0.51897906  1  0.028577  0  -0.037824  -0.081144  0  3.557511  0
C  C64  1  0.09301474  0.49962405  0.50032548  1  0.145971  0  0.033504  0.03781  0  3.76007  0
C  C65  1  0.90643436  0.50040666  0.49909936  1  0.161126  0  0.033524  0.038933  0  3.761204  0
C  C66  1  0.18897224  0.49937184  0.50060727  1  0.872105  0  0.240263  0.288688  0  3.914295  0
C  C67  1  0.81048979  0.50065520  0.49885800  1  0.873558  0  0.241433  0.288283  0  3.918009  0
N  N68  1  0.50946679  0.50352492  0.85127041  1  -1.22279  0  -0.230684  -0.226051  0  3.645655  0
N  N69  1  0.51079380  0.49410770  0.14859102  1  -1.190885  0  -0.230559  -0.224419  0  3.644676  0
N  N70  1  0.26738022  0.49963944  0.49906281  1  -1.089406  0  -0.252918  -0.247393  0  3.106426  0
N  N71  1  0.73209743  0.50036770  0.50043109  1  -1.130282  0  -0.2535  -0.248881  0  3.109422  0
N  N72  1  0.52296030  0.73336591  0.94479722  1  0.466996  0  0.064582  0.503626  0  4.275015  0
N  N73  1  0.49834301  0.26409488  0.05510150  1  0.456912  0  0.062931  0.503462  0  4.274719  0
N  N74  1  0.05624711  0.47485673  0.61167123  1  0.429879  0  0.062192  0.498114  0  4.247064  0
N  N75  1  0.94315440  0.52501050  0.38771225  1  0.394368  0  0.063569  0.497961  0  4.248084  0
N  N76  1  0.53288895  0.72977964  0.06167519  1  0.464466  0  0.062365  0.499667  0  4.28025  0
N  N77  1  0.50695640  0.26691424  0.93815480  1  0.445309  0  0.062922  0.501846  0  4.279066  0
N  N78  1  0.67462031  0.53871079  0.21603059  1  0.390925  0  0.061955  0.530899  0  4.197401  0
N  N79  1  0.66760184  0.44388231  0.78416724  1  0.398183  0  0.062059  0.531232  0  4.197802  0
Cl  Cl80  1  0.32620425  0.43625376  0.32365756  1  -0.163532  0  0.006541  -0.054048  0  1.466304  0
Cl  Cl81  1  0.33323066  0.57873250  0.67501785  1  -0.16095  0  0.016205  -0.039382  0  1.490486  0
O  O82  1  0.57256039  0.62428532  0.48860067  1  -1.142124  0  -0.32035  -0.55196  0  2.257408  0
O  O83  1  0.42367140  0.37556086  0.48681754  1  -1.142192  0  -0.32092  -0.553871  0  2.259378  0
O  O84  1  0.42304521  0.62509220  0.51234154  1  -1.138793  0  -0.320931  -0.553685  0  2.259661  0
O  O85  1  0.57286470  0.37528503  0.51177461  1  -1.143746  0  -0.321141  -0.553024  0  2.256476  0
O  O86  1  0.57711136  0.48126932  0.41450526  1  -1.159404  0  -0.312372  -0.538316  0  2.285792  0
O  O87  1  0.42731583  0.48248521  0.58484917  1  -1.148119  0  -0.312168  -0.544997  0  2.337434  0
O  O88  1  0.42866854  0.51863006  0.41475470  1  -1.161057  0  -0.314618  -0.551351  0  2.350722  0
O  O89  1  0.57655600  0.51784865  0.58576062  1  -1.158315  0  -0.314465  -0.543008  0  2.282708  0
O  O90  1  0.49107895  0.36196064  0.84838528  1  -1.059403  0  -0.245888  -0.390029  0  2.093241  0
O  O91  1  0.50842136  0.63660042  0.15151936  1  -1.067027  0  -0.246166  -0.390181  0  2.09077  0
O  O92  1  0.54175643  0.64318975  0.85238737  1  -1.058201  0  -0.245909  -0.388863  0  2.086303  0
O  O93  1  0.52739135  0.35223498  0.14757243  1  -1.070325  0  -0.244951  -0.387738  0  2.088148  0
O  O94  1  0.44875596  0.75736809  0.92773996  1  -0.390819  0  -0.099669  -0.276213  0  1.866519  0
O  O95  1  0.59538707  0.77145389  0.94442893  1  -0.388781  0  -0.095346  -0.268274  0  1.861243  0
O  O96  1  0.42212769  0.24671450  0.07225650  1  -0.400734  0  -0.099184  -0.27626  0  1.868852  0
O  O97  1  0.56636140  0.21983846  0.05541261  1  -0.385603  0  -0.094336  -0.267839  0  1.859116  0
O  O98  1  0.99256480  0.46720669  0.64495221  1  -0.431294  0  -0.110499  -0.295535  0  1.839844  0
O  O99  1  0.13802025  0.47273536  0.62242720  1  -0.397704  0  -0.101661  -0.292589  0  1.894361  0
O  O100  1  0.00698403  0.53291027  0.35454686  1  -0.397335  0  -0.112379  -0.300274  0  1.8398  0
O  O101  1  0.86146059  0.52663664  0.37684883  1  -0.397175  0  -0.094553  -0.278444  0  1.870906  0
O  O102  1  0.46279839  0.77125336  0.06398030  1  -0.407276  0  -0.100907  -0.276209  0  1.858844  0
O  O103  1  0.60885647  0.74923517  0.07826790  1  -0.374401  0  -0.08897  -0.260896  0  1.870946  0
O  O104  1  0.43269989  0.23182425  0.93605505  1  -0.384678  0  -0.10088  -0.27667  0  1.860538  0
O  O105  1  0.58019760  0.24090927  0.92130813  1  -0.371823  0  -0.08892  -0.261031  0  1.869015  0
O  O106  1  0.68846186  0.51780687  0.16636430  1  -0.467752  0  -0.144859  -0.346885  0  1.89009  0
O  O107  1  0.72959090  0.57646092  0.24608864  1  -0.42859  0  -0.127011  -0.322003  0  1.871529  0
O  O108  1  0.68267070  0.46063838  0.83444420  1  -0.457191  0  -0.143428  -0.345512  0  1.892425  0
O  O109  1  0.71943818  0.40377364  0.75356018  1  -0.45236  0  -0.131447  -0.325257  0  1.859936  0
