# generated using pymatgen
data_SrH8(C3O4)2
_symmetry_space_group_name_H-M   'P 1'
_cell_length_a   10.12660325
_cell_length_b   10.27910188
_cell_length_c   10.34599655
_cell_angle_alpha   90.00001513
_cell_angle_beta   90.00000607
_cell_angle_gamma   117.76489919
_symmetry_Int_Tables_number   1
_chemical_formula_structural   SrH8(C3O4)2
_chemical_formula_sum   'Sr4 H32 C24 O32'
_cell_volume   952.94769258
_cell_formula_units_Z   4
loop_
 _symmetry_equiv_pos_site_id
 _symmetry_equiv_pos_as_xyz
  1  'x, y, z'
loop_
 _atom_site_type_symbol
 _atom_site_label
 _atom_site_symmetry_multiplicity
 _atom_site_fract_x
 _atom_site_fract_y
 _atom_site_fract_z
 _atom_site_occupancy
 _atom_site_hle17_bader_spin_density
 _atom_site_hle17_ddec_charge
 _atom_site_hle17_ddec_spin_density
 _atom_site_hle17_ddec_sum_bond_order
 _atom_site_hle17_magmom
 _atom_site_hse06_10hf_bader_spin_density
 _atom_site_hse06_10hf_ddec_charge
 _atom_site_hse06_10hf_ddec_spin_density
 _atom_site_hse06_10hf_ddec_sum_bond_order
 _atom_site_hse06_10hf_magmom
 _atom_site_hse06_bader_spin_density
 _atom_site_hse06_ddec_charge
 _atom_site_hse06_ddec_spin_density
 _atom_site_hse06_ddec_sum_bond_order
 _atom_site_hse06_magmom
 _atom_site_pbe_bader_spin_density
 _atom_site_pbe_cm5_charge
 _atom_site_pbe_ddec_charge
 _atom_site_pbe_ddec_spin_density
 _atom_site_pbe_ddec_sum_bond_order
 _atom_site_pbe_magmom
Sr  Sr0  1  0.99037015  0.35769943  0.15580046  1  0  1.590788  0  1.118237  0  0  1.432762  0  1.49877  0  0  1.472862  0  1.452492  0  0  0.959488  1.403773  0  1.531058  0
Sr  Sr1  1  0.50963055  0.64230072  0.65580064  1  0  1.590786  0  1.118249  0  0  1.43278  0  1.498763  0  0  1.472884  0  1.452472  0  0  0.959502  1.403835  0  1.530999  0
Sr  Sr2  1  0.00962994  0.64230182  0.84420006  1  0  1.590804  0  1.118221  0  0  1.432778  0  1.498759  0  0  1.472865  0  1.452503  0  0  0.959511  1.40383  0  1.530991  0
Sr  Sr3  1  0.49037047  0.35769833  0.34419988  1  0  1.59079  0  1.118243  0  0  1.432753  0  1.498804  0  0  1.472853  0  1.452518  0  0  0.959493  1.403778  0  1.531073  0
H  H4  1  0.10270137  0.45933907  0.58028926  1  0  0.068871  0  0.93393  0  0  0.074068  0  1.000158  0  0  0.076178  0  0.998314  0  0  0.124788  0.07263  0  1.001427  0
H  H5  1  0.39729844  0.54065987  0.08028815  1  0  0.068884  0  0.933918  0  0  0.074081  0  1.000144  0  0  0.076192  0  0.9983  0  0  0.124786  0.072644  0  1.001408  0
H  H6  1  0.89729815  0.54065888  0.41971029  1  0  0.068878  0  0.933932  0  0  0.074079  0  1.000143  0  0  0.076189  0  0.998299  0  0  0.124777  0.072643  0  1.001409  0
H  H7  1  0.60270258  0.45933918  0.91971043  1  0  0.068903  0  0.933909  0  0  0.074092  0  1.000146  0  0  0.076203  0  0.9983  0  0  0.124807  0.072657  0  1.001412  0
H  H8  1  0.25147155  0.67805979  0.45195270  1  0  0.078875  0  0.934227  0  0  0.081799  0  1.006756  0  0  0.084547  0  1.003739  0  0  0.122544  0.079763  0  1.009114  0
H  H9  1  0.24852988  0.32194040  0.95195378  1  0  0.078874  0  0.934241  0  0  0.081795  0  1.006773  0  0  0.084543  0  1.003756  0  0  0.122549  0.079761  0  1.009126  0
H  H10  1  0.74852901  0.32194036  0.54804685  1  0  0.078867  0  0.934243  0  0  0.08179  0  1.006774  0  0  0.084538  0  1.003758  0  0  0.122551  0.079757  0  1.009131  0
H  H11  1  0.75147067  0.67805975  0.04804770  1  0  0.078868  0  0.934223  0  0  0.081787  0  1.00675  0  0  0.084535  0  1.003734  0  0  0.122551  0.079755  0  1.009105  0
H  H12  1  0.95026876  0.91400673  0.12736731  1  0  0.05094  0  0.912299  0  0  0.059123  0  0.976604  0  0  0.060582  0  0.974945  0  0  0.110272  0.05799  0  0.977964  0
H  H13  1  0.54973093  0.08599341  0.62736735  1  0  0.050907  0  0.912323  0  0  0.059094  0  0.976626  0  0  0.060551  0  0.974966  0  0  0.110267  0.057967  0  0.977989  0
H  H14  1  0.04973080  0.08599341  0.87263224  1  0  0.050893  0  0.912325  0  0  0.059076  0  0.97664  0  0  0.060531  0  0.974981  0  0  0.110256  0.057943  0  0.977997  0
H  H15  1  0.45026863  0.91400674  0.37263317  1  0  0.050917  0  0.912316  0  0  0.059105  0  0.976613  0  0  0.060562  0  0.974954  0  0  0.110271  0.057976  0  0.97797  0
H  H16  1  0.74276046  0.91176044  0.98776774  1  0  0.071624  0  0.949087  0  0  0.073532  0  1.022616  0  0  0.076454  0  1.019576  0  0  0.113879  0.071249  0  1.025192  0
H  H17  1  0.75724086  0.08824094  0.48776747  1  0  0.071612  0  0.949077  0  0  0.073523  0  1.02262  0  0  0.076444  0  1.019579  0  0  0.113875  0.071243  0  1.025196  0
H  H18  1  0.25723963  0.08824080  0.01223278  1  0  0.07162  0  0.949101  0  0  0.073513  0  1.02264  0  0  0.076435  0  1.019598  0  0  0.113867  0.071232  0  1.025213  0
H  H19  1  0.24275970  0.91175921  0.51223305  1  0  0.07159  0  0.949088  0  0  0.0735  0  1.022638  0  0  0.076422  0  1.019596  0  0  0.113865  0.071221  0  1.025212  0
H  H20  1  0.14241062  0.13211883  0.17822259  1  0  0.39136  0  0.910948  0  0  0.363164  0  0.986092  0  0  0.374659  0  0.969391  0  0  0.304021  0.355081  0  0.997249  0
H  H21  1  0.35758922  0.86788015  0.67822286  1  0  0.391379  0  0.910905  0  0  0.363175  0  0.98607  0  0  0.374679  0  0.969356  0  0  0.304031  0.355099  0  0.997206  0
H  H22  1  0.85758993  0.86788132  0.82177793  1  0  0.391376  0  0.910909  0  0  0.363167  0  0.986081  0  0  0.374672  0  0.969367  0  0  0.304023  0.35509  0  0.997214  0
H  H23  1  0.64240931  0.13211780  0.32177766  1  0  0.391374  0  0.910918  0  0  0.363165  0  0.986087  0  0  0.37467  0  0.969372  0  0  0.304021  0.355086  0  0.997229  0
H  H24  1  0.84113713  0.13252510  0.88997233  1  0  0.381101  0  0.913087  0  0  0.352889  0  0.990392  0  0  0.364427  0  0.976765  0  0  0.297134  0.344313  0  1.000443  0
H  H25  1  0.65886364  0.86747515  0.38997128  1  0  0.381098  0  0.913095  0  0  0.352893  0  0.990384  0  0  0.364431  0  0.976756  0  0  0.297138  0.344325  0  1.000424  0
H  H26  1  0.15886395  0.86747615  0.11002819  1  0  0.381101  0  0.91308  0  0  0.352893  0  0.990382  0  0  0.36443  0  0.976758  0  0  0.297143  0.344321  0  1.000426  0
H  H27  1  0.34113691  0.13252500  0.61002924  1  0  0.381073  0  0.913139  0  0  0.352869  0  0.990428  0  0  0.364406  0  0.976795  0  0  0.297131  0.344298  0  1.000469  0
H  H28  1  0.14024041  0.70466274  0.28401817  1  0  0.396672  0  0.908948  0  0  0.368242  0  0.976197  0  0  0.379497  0  0.95979  0  0  0.30328  0.360242  0  0.987871  0
H  H29  1  0.35975900  0.29533738  0.78401733  1  0  0.39666  0  0.908973  0  0  0.368232  0  0.976211  0  0  0.379487  0  0.959805  0  0  0.303279  0.360235  0  0.987882  0
H  H30  1  0.85975916  0.29533740  0.71598138  1  0  0.396654  0  0.908972  0  0  0.368222  0  0.976225  0  0  0.379477  0  0.959818  0  0  0.303269  0.360222  0  0.9879  0
H  H31  1  0.64024104  0.70466167  0.21598319  1  0  0.396651  0  0.909014  0  0  0.368209  0  0.976255  0  0  0.379466  0  0.959848  0  0  0.303254  0.36021  0  0.987928  0
H  H32  1  0.01693418  0.26708712  0.45281093  1  0  0.384564  0  0.81957  0  0  0.376862  0  0.862245  0  0  0.383864  0  0.855715  0  0  0.346639  0.371732  0  0.867181  0
H  H33  1  0.48306574  0.73291197  0.95281022  1  0  0.384568  0  0.81958  0  0  0.376868  0  0.862254  0  0  0.383869  0  0.855725  0  0  0.346636  0.371738  0  0.867192  0
H  H34  1  0.98306585  0.73291193  0.54718958  1  0  0.384559  0  0.819591  0  0  0.376859  0  0.862267  0  0  0.383862  0  0.855736  0  0  0.346633  0.37173  0  0.867206  0
H  H35  1  0.51693481  0.26708818  0.04718836  1  0  0.384556  0  0.819583  0  0  0.376849  0  0.862266  0  0  0.383849  0  0.855738  0  0  0.346631  0.371716  0  0.867204  0
C  C36  1  0.05605628  0.47124579  0.48772592  1  0  0.150438  0  3.559341  0  0  0.11863  0  3.819605  0  0  0.124218  0  3.827416  0  0  0.00343  0.114801  0  3.814361  0
C  C37  1  0.44394366  0.52875332  0.98772515  1  0  0.15045  0  3.559332  0  0  0.11865  0  3.81959  0  0  0.12424  0  3.827397  0  0  0.003454  0.114824  0  3.814337  0
C  C38  1  0.94394277  0.52875326  0.51227460  1  0  0.150416  0  3.55936  0  0  0.118618  0  3.819625  0  0  0.124209  0  3.827432  0  0  0.003457  0.114792  0  3.814375  0
C  C39  1  0.55605737  0.47124574  0.01227344  1  0  0.150377  0  3.559336  0  0  0.118562  0  3.819605  0  0  0.124152  0  3.827411  0  0  0.003416  0.114734  0  3.81436  0
C  C40  1  0.18383292  0.57534169  0.39909939  1  0  0.035825  0  3.665249  0  0  0.00936  0  3.921696  0  0  0.011117  0  3.926925  0  0  -0.006595  0.008058  0  3.918558  0
C  C41  1  0.31616699  0.42465738  0.89909857  1  0  0.035811  0  3.665276  0  0  0.009361  0  3.9217  0  0  0.011115  0  3.926932  0  0  -0.006593  0.00806  0  3.918551  0
C  C42  1  0.81616612  0.42465736  0.60090113  1  0  0.035834  0  3.665261  0  0  0.009377  0  3.921696  0  0  0.011131  0  3.926925  0  0  -0.006597  0.00807  0  3.918557  0
C  C43  1  0.68383305  0.57534167  0.10090098  1  0  0.035856  0  3.665249  0  0  0.009425  0  3.921638  0  0  0.01118  0  3.926868  0  0  -0.006599  0.008115  0  3.918501  0
C  C44  1  0.27903447  0.49951526  0.36923372  1  0  0.647145  0  3.911794  0  0  0.596347  0  4.214172  0  0  0.629626  0  4.205407  0  0  0.212711  0.573629  0  4.219797  0
C  C45  1  0.22096444  0.50048380  0.86923485  1  0  0.647095  0  3.911879  0  0  0.596288  0  4.214273  0  0  0.629566  0  4.205509  0  0  0.212661  0.573574  0  4.219896  0
C  C46  1  0.72096557  0.50048379  0.63076486  1  0  0.64711  0  3.911836  0  0  0.596307  0  4.214225  0  0  0.629584  0  4.205461  0  0  0.212696  0.573592  0  4.219854  0
C  C47  1  0.77903413  0.49951635  0.13076470  1  0  0.647085  0  3.911847  0  0  0.596285  0  4.214219  0  0  0.629562  0  4.205458  0  0  0.212692  0.573568  0  4.219848  0
C  C48  1  0.96723764  0.00796845  0.06526781  1  0  0.147321  0  3.608178  0  0  0.116715  0  3.867693  0  0  0.122289  0  3.876866  0  0  -0.006579  0.112823  0  3.861482  0
C  C49  1  0.53276256  0.99203277  0.56526808  1  0  0.147397  0  3.608278  0  0  0.116792  0  3.867795  0  0  0.122377  0  3.876955  0  0  -0.006562  0.112885  0  3.861609  0
C  C50  1  0.03276244  0.99203280  0.93473174  1  0  0.147461  0  3.608245  0  0  0.116839  0  3.867753  0  0  0.122423  0  3.876917  0  0  -0.006551  0.112938  0  3.861551  0
C  C51  1  0.46723701  0.00796738  0.43473243  1  0  0.147399  0  3.608259  0  0  0.116806  0  3.867763  0  0  0.122383  0  3.876932  0  0  -0.006558  0.112902  0  3.861568  0
C  C52  1  0.81601916  0.00803779  0.04613770  1  0  0.036962  0  3.647179  0  0  0.01194  0  3.901783  0  0  0.013038  0  3.907881  0  0  -0.010494  0.011143  0  3.897667  0
C  C53  1  0.68398156  0.99196452  0.54613702  1  0  0.037071  0  3.647034  0  0  0.012029  0  3.901695  0  0  0.013127  0  3.907789  0  0  -0.010431  0.011233  0  3.897587  0
C  C54  1  0.18398093  0.99196346  0.95386282  1  0  0.036945  0  3.647271  0  0  0.011972  0  3.90181  0  0  0.013069  0  3.907907  0  0  -0.01047  0.011172  0  3.8977  0
C  C55  1  0.31601801  0.00803563  0.45386350  1  0  0.037078  0  3.647064  0  0  0.012019  0  3.901719  0  0  0.013115  0  3.907817  0  0  -0.010424  0.011222  0  3.897612  0
C  C56  1  0.74210716  0.99701960  0.17788154  1  0  0.668836  0  3.820739  0  0  0.611423  0  4.129948  0  0  0.6445  0  4.121732  0  0  0.224188  0.589023  0  4.134825  0
C  C57  1  0.75789453  0.00298056  0.67788157  1  0  0.668708  0  3.820882  0  0  0.611265  0  4.130145  0  0  0.644342  0  4.121932  0  0  0.224145  0.588865  0  4.13502  0
C  C58  1  0.25789287  0.00297945  0.82211898  1  0  0.668725  0  3.820906  0  0  0.611301  0  4.130111  0  0  0.644379  0  4.121898  0  0  0.224142  0.588904  0  4.134989  0
C  C59  1  0.24210452  0.99701849  0.32211991  1  0  0.668722  0  3.820852  0  0  0.611334  0  4.130031  0  0  0.64441  0  4.121817  0  0  0.224169  0.588924  0  4.134919  0
O  O60  1  0.97412736  0.32979328  0.42492968  1  0  -0.566681  0  2.044083  0  0  -0.518647  0  2.269453  0  0  -0.534881  0  2.259202  0  0  -0.390538  -0.507435  0  2.276556  0
O  O61  1  0.52587191  0.67020588  0.92492890  1  0  -0.566694  0  2.0441  0  0  -0.518667  0  2.269462  0  0  -0.534901  0  2.259212  0  0  -0.390545  -0.50746  0  2.276566  0
O  O62  1  0.02587168  0.67020577  0.57506987  1  0  -0.566674  0  2.044133  0  0  -0.518645  0  2.269491  0  0  -0.534879  0  2.259243  0  0  -0.390529  -0.507433  0  2.276594  0
O  O63  1  0.47412813  0.32979317  0.07506968  1  0  -0.566675  0  2.04411  0  0  -0.518619  0  2.26948  0  0  -0.534852  0  2.259231  0  0  -0.390528  -0.507402  0  2.27658  0
O  O64  1  0.12529397  0.60130686  0.28257219  1  0  -0.613396  0  2.127876  0  0  -0.559325  0  2.354369  0  0  -0.576042  0  2.338517  0  0  -0.440846  -0.547351  0  2.365184  0
O  O65  1  0.37470492  0.39869216  0.78257137  1  0  -0.613369  0  2.127882  0  0  -0.559316  0  2.354386  0  0  -0.57603  0  2.338526  0  0  -0.440856  -0.547348  0  2.365194  0
O  O66  1  0.87470508  0.39869219  0.71742833  1  0  -0.613391  0  2.127905  0  0  -0.559315  0  2.35438  0  0  -0.576032  0  2.338533  0  0  -0.440844  -0.547338  0  2.365187  0
O  O67  1  0.62529262  0.60130579  0.21742818  1  0  -0.613383  0  2.127945  0  0  -0.55931  0  2.354403  0  0  -0.576026  0  2.338544  0  0  -0.440825  -0.547334  0  2.365211  0
O  O68  1  0.37225438  0.50716868  0.45555891  1  0  -0.73256  0  1.997104  0  0  -0.666681  0  2.248511  0  0  -0.694248  0  2.237599  0  0  -0.413321  -0.647177  0  2.255437  0
O  O69  1  0.12774658  0.49283261  0.95555906  1  0  -0.732535  0  1.997143  0  0  -0.666651  0  2.248544  0  0  -0.694215  0  2.237636  0  0  -0.413296  -0.647149  0  2.255472  0
O  O70  1  0.62774570  0.49283256  0.54444064  1  0  -0.732539  0  1.997093  0  0  -0.66666  0  2.248503  0  0  -0.694227  0  2.237589  0  0  -0.413317  -0.647156  0  2.255431  0
O  O71  1  0.87225449  0.50716864  0.04444049  1  0  -0.732543  0  1.997111  0  0  -0.666664  0  2.24852  0  0  -0.694229  0  2.237614  0  0  -0.413318  -0.647159  0  2.25545  0
O  O72  1  0.25546805  0.42588724  0.26593289  1  0  -0.675271  0  1.952156  0  0  -0.618553  0  2.191426  0  0  -0.64337  0  2.181164  0  0  -0.345728  -0.601391  0  2.198189  0
O  O73  1  0.24453234  0.57411288  0.76593307  1  0  -0.67524  0  1.952136  0  0  -0.618522  0  2.191405  0  0  -0.643338  0  2.181143  0  0  -0.345704  -0.60137  0  2.198171  0
O  O74  1  0.74453251  0.57411291  0.73406666  1  0  -0.675255  0  1.95216  0  0  -0.618526  0  2.191406  0  0  -0.643341  0  2.181144  0  0  -0.345712  -0.60137  0  2.198175  0
O  O75  1  0.75546821  0.42588727  0.23406648  1  0  -0.675228  0  1.952158  0  0  -0.618523  0  2.191437  0  0  -0.643339  0  2.181177  0  0  -0.345701  -0.60136  0  2.198203  0
O  O76  1  0.06479586  0.14403655  0.12596276  1  0  -0.628209  0  2.109505  0  0  -0.573737  0  2.350268  0  0  -0.59228  0  2.334842  0  0  -0.427434  -0.560417  0  2.360166  0
O  O77  1  0.43520600  0.85596461  0.62596207  1  0  -0.62828  0  2.109604  0  0  -0.573809  0  2.350401  0  0  -0.592363  0  2.334956  0  0  -0.427458  -0.560496  0  2.3603  0
O  O78  1  0.93520620  0.85596470  0.87403679  1  0  -0.628283  0  2.109574  0  0  -0.573804  0  2.350374  0  0  -0.592357  0  2.334928  0  0  -0.427455  -0.560497  0  2.360268  0
O  O79  1  0.56479305  0.14403444  0.37403652  1  0  -0.628267  0  2.109602  0  0  -0.573788  0  2.350394  0  0  -0.59234  0  2.334952  0  0  -0.427443  -0.56047  0  2.360293  0
O  O80  1  0.83814933  0.14192040  0.98634777  1  0  -0.598618  0  2.091988  0  0  -0.544842  0  2.31695  0  0  -0.560629  0  2.302821  0  0  -0.427165  -0.533386  0  2.326884  0
O  O81  1  0.66185001  0.85808098  0.48634866  1  0  -0.598649  0  2.092001  0  0  -0.544874  0  2.316972  0  0  -0.560661  0  2.30284  0  0  -0.427204  -0.533424  0  2.326904  0
O  O82  1  0.16185076  0.85808084  0.01365178  1  0  -0.59858  0  2.092038  0  0  -0.544815  0  2.316984  0  0  -0.5606  0  2.302859  0  0  -0.427154  -0.533366  0  2.326919  0
O  O83  1  0.33814956  0.14191917  0.51365283  1  0  -0.598608  0  2.091986  0  0  -0.544826  0  2.316955  0  0  -0.560613  0  2.302819  0  0  -0.427187  -0.533367  0  2.326884  0
O  O84  1  0.76410031  0.11674746  0.23092223  1  0  -0.661146  0  2.04877  0  0  -0.598206  0  2.287579  0  0  -0.624144  0  2.276258  0  0  -0.346034  -0.580121  0  2.294962  0
O  O85  1  0.73589994  0.88325382  0.73092153  1  0  -0.661117  0  2.048828  0  0  -0.598168  0  2.287653  0  0  -0.624103  0  2.276331  0  0  -0.346031  -0.580083  0  2.295034  0
O  O86  1  0.23590076  0.88325378  0.76907926  1  0  -0.661071  0  2.048873  0  0  -0.598142  0  2.287697  0  0  -0.624076  0  2.276379  0  0  -0.346013  -0.58006  0  2.295082  0
O  O87  1  0.26409864  0.11674633  0.26907899  1  0  -0.661154  0  2.048789  0  0  -0.598227  0  2.287581  0  0  -0.62416  0  2.276261  0  0  -0.346063  -0.580132  0  2.294962  0
O  O88  1  0.66568185  0.87088542  0.22868861  1  0  -0.625469  0  2.006542  0  0  -0.566888  0  2.228704  0  0  -0.592294  0  2.216328  0  0  -0.307678  -0.549024  0  2.237083  0
O  O89  1  0.83432235  0.12911587  0.72868868  1  0  -0.625389  0  2.006647  0  0  -0.566797  0  2.228808  0  0  -0.592202  0  2.216434  0  0  -0.307637  -0.548921  0  2.237182  0
O  O90  1  0.33432219  0.12911583  0.77131094  1  0  -0.625445  0  2.00656  0  0  -0.566865  0  2.228718  0  0  -0.59227  0  2.216341  0  0  -0.307665  -0.548997  0  2.237093  0
O  O91  1  0.16567872  0.87088538  0.27131280  1  0  -0.625388  0  2.006601  0  0  -0.56682  0  2.228752  0  0  -0.592223  0  2.216377  0  0  -0.307644  -0.548942  0  2.237133  0
