# generated using pymatgen
data_ZnH12C13S(N2O3)2
_symmetry_space_group_name_H-M   'P 1'
_cell_length_a   6.92824483
_cell_length_b   10.64902871
_cell_length_c   19.70900000
_cell_angle_alpha   99.79656104
_cell_angle_beta   90.00000000
_cell_angle_gamma   90.00000000
_symmetry_Int_Tables_number   1
_chemical_formula_structural   ZnH12C13S(N2O3)2
_chemical_formula_sum   'Zn4 H48 C52 S4 N16 O24'
_cell_volume   1432.90815586
_cell_formula_units_Z   4
loop_
 _symmetry_equiv_pos_site_id
 _symmetry_equiv_pos_as_xyz
  1  'x, y, z'
loop_
 _atom_site_type_symbol
 _atom_site_label
 _atom_site_symmetry_multiplicity
 _atom_site_fract_x
 _atom_site_fract_y
 _atom_site_fract_z
 _atom_site_occupancy
 _atom_site_hle17_bader_spin_density
 _atom_site_hle17_ddec_charge
 _atom_site_hle17_ddec_spin_density
 _atom_site_hle17_ddec_sum_bond_order
 _atom_site_hle17_magmom
 _atom_site_hse06_10hf_bader_spin_density
 _atom_site_hse06_10hf_ddec_charge
 _atom_site_hse06_10hf_ddec_spin_density
 _atom_site_hse06_10hf_ddec_sum_bond_order
 _atom_site_hse06_10hf_magmom
 _atom_site_hse06_bader_spin_density
 _atom_site_hse06_ddec_charge
 _atom_site_hse06_ddec_spin_density
 _atom_site_hse06_ddec_sum_bond_order
 _atom_site_hse06_magmom
 _atom_site_pbe_bader_charge
 _atom_site_pbe_bader_spin_density
 _atom_site_pbe_cm5_charge
 _atom_site_pbe_ddec_charge
 _atom_site_pbe_ddec_spin_density
 _atom_site_pbe_ddec_sum_bond_order
 _atom_site_pbe_magmom
Zn  Zn0  1  0.16443703  0.15777207  0.82652559  1  0  1.095572  0  1.784991  0  0  0.926943  0  2.227471  0  0  0.970433  0  2.175302  0  1.329611  0  0.687249  0.896561  0  2.263206  0
Zn  Zn1  1  0.66443957  0.84222928  0.67347433  1  0  1.095599  0  1.784974  0  0  0.926955  0  2.227466  0  0  0.970448  0  2.17529  0  1.329653  0  0.687256  0.896572  0  2.263202  0
Zn  Zn2  1  0.83556083  0.84222928  0.17347484  1  0  1.095626  0  1.784968  0  0  0.92701  0  2.227445  0  0  0.970496  0  2.175275  0  1.329645  0  0.687278  0.896624  0  2.263182  0
Zn  Zn3  1  0.33556118  0.15777112  0.32652500  1  0  1.095603  0  1.784986  0  0  0.926962  0  2.227475  0  0  0.970448  0  2.175308  0  1.32966  0  0.687259  0.896578  0  2.263211  0
H  H4  1  0.84347770  0.23253184  0.77733791  1  0  0.42543  0  0.873754  0  0  0.396323  0  0.933545  0  0  0.406422  0  0.918889  0  0.642535  0  0.289496  0.389232  0  0.943799  0
H  H5  1  0.34347949  0.76746856  0.72266193  1  0  0.425471  0  0.873697  0  0  0.396366  0  0.933487  0  0  0.406464  0  0.918832  0  0.642548  0  0.289494  0.389274  0  0.943743  0
H  H6  1  0.15652016  0.76746856  0.22266193  1  0  0.425457  0  0.873725  0  0  0.396355  0  0.933509  0  0  0.406452  0  0.918855  0  0.642545  0  0.289498  0.389264  0  0.943763  0
H  H7  1  0.65652126  0.23253184  0.27733740  1  0  0.425429  0  0.873767  0  0  0.396332  0  0.933535  0  0  0.40643  0  0.918881  0  0.64253  0  0.289483  0.389238  0  0.943793  0
H  H8  1  0.82456526  0.28656593  0.86105227  1  0  0.395743  0  0.922712  0  0  0.353601  0  1.004942  0  0  0.365453  0  0.988318  0  0.652045  0  0.276323  0.345289  0  1.016576  0
H  H9  1  0.32456561  0.71343543  0.63894664  1  0  0.395769  0  0.922682  0  0  0.353636  0  1.004895  0  0  0.365488  0  0.988273  0  0.652033  0  0.276332  0.345325  0  1.016528  0
H  H10  1  0.17543260  0.71343543  0.13894715  1  0  0.395806  0  0.922629  0  0  0.353674  0  1.004839  0  0  0.365525  0  0.988217  0  0.652042  0  0.276353  0.345363  0  1.016472  0
H  H11  1  0.67543369  0.28656498  0.36105218  1  0  0.395767  0  0.922682  0  0  0.353624  0  1.004912  0  0  0.365475  0  0.988289  0  0.652039  0  0.276319  0.345313  0  1.016546  0
H  H12  1  0.12192698  0.92426482  0.82746556  1  0  0.419441  0  0.888464  0  0  0.38726  0  0.954512  0  0  0.398183  0  0.93854  0  0.662622  0  0.287664  0.379536  0  0.965808  0
H  H13  1  0.62192664  0.07573559  0.67253428  1  0  0.419502  0  0.888387  0  0  0.387288  0  0.954465  0  0  0.39823  0  0.938481  0  0.662618  0  0.287685  0.37956  0  0.965761  0
H  H14  1  0.87807232  0.07573559  0.17253377  1  0  0.419485  0  0.888406  0  0  0.387275  0  0.954479  0  0  0.398216  0  0.938496  0  0.662537  0  0.287687  0.379545  0  0.965778  0
H  H15  1  0.37807267  0.92426482  0.32746556  1  0  0.419436  0  0.888472  0  0  0.387255  0  0.95452  0  0  0.398178  0  0.938548  0  0.66262  0  0.287662  0.379532  0  0.965814  0
H  H16  1  0.90062348  0.96445637  0.81889103  1  0  0.436195  0  0.849126  0  0  0.405196  0  0.916135  0  0  0.415653  0  0.900817  0  0.631011  0  0.296361  0.397746  0  0.927088  0
H  H17  1  0.40062239  0.03554403  0.68110881  1  0  0.436213  0  0.849096  0  0  0.405208  0  0.916114  0  0  0.415667  0  0.900795  0  0.631007  0  0.296361  0.397758  0  0.927067  0
H  H18  1  0.09937582  0.03554403  0.18110881  1  0  0.436226  0  0.849092  0  0  0.405223  0  0.916096  0  0  0.415682  0  0.900775  0  0.631015  0  0.296382  0.397773  0  0.92705  0
H  H19  1  0.59937691  0.96445637  0.31889103  1  0  0.436201  0  0.84912  0  0  0.4052  0  0.916131  0  0  0.415657  0  0.900813  0  0.631011  0  0.296362  0.397749  0  0.927085  0
H  H20  1  0.45858801  0.81273934  0.93826331  1  0  0.324208  0  0.932526  0  0  0.300359  0  0.999774  0  0  0.309099  0  0.992888  0  0.565714  0  0.306148  0.294187  0  1.004569  0
H  H21  1  0.95859199  0.18726011  0.56173694  1  0  0.324268  0  0.932474  0  0  0.300439  0  0.999693  0  0  0.309179  0  0.992806  0  0.565689  0  0.306173  0.294267  0  1.00449  0
H  H22  1  0.54140841  0.18726011  0.06173694  1  0  0.324268  0  0.932453  0  0  0.300423  0  0.9997  0  0  0.309162  0  0.992815  0  0.565694  0  0.30617  0.294251  0  1.004497  0
H  H23  1  0.04141164  0.81274029  0.43826188  1  0  0.324211  0  0.932487  0  0  0.300364  0  0.999733  0  0  0.309103  0  0.992849  0  0.565685  0  0.306137  0.294192  0  1.004527  0
H  H24  1  0.40939373  0.28488588  0.71999975  1  0  0.083934  0  0.936016  0  0  0.094425  0  0.996191  0  0  0.096769  0  0.994081  0  0.099536  0  0.118992  0.092482  0  0.998032  0
H  H25  1  0.90939338  0.71511452  0.78000110  1  0  0.08392  0  0.936044  0  0  0.094441  0  0.996187  0  0  0.096763  0  0.994106  0  0.099499  0  0.118986  0.092497  0  0.998031  0
H  H26  1  0.59060268  0.71511643  0.28000077  1  0  0.083946  0  0.936038  0  0  0.094469  0  0.996165  0  0  0.096791  0  0.994083  0  0.09949  0  0.118989  0.092525  0  0.998009  0
H  H27  1  0.09060736  0.28488397  0.21999856  1  0  0.083879  0  0.936078  0  0  0.0944  0  0.996224  0  0  0.096724  0  0.99414  0  0.099472  0  0.118969  0.092456  0  0.998068  0
H  H28  1  0.55226253  0.50312730  0.71921125  1  0  0.104564  0  0.970663  0  0  0.112527  0  1.033836  0  0  0.11505  0  1.034432  0  0.105938  0  0.105202  0.110627  0  1.03374  0
H  H29  1  0.05226143  0.49687215  0.78079002  1  0  0.10465  0  0.970661  0  0  0.112634  0  1.033798  0  0  0.11516  0  1.034387  0  0.105916  0  0.105245  0.110734  0  1.033702  0
H  H30  1  0.44773389  0.49687501  0.28078927  1  0  0.10463  0  0.970692  0  0  0.11259  0  1.033853  0  0  0.11511  0  1.034456  0  0.105914  0  0.105229  0.110689  0  1.033758  0
H  H31  1  0.94773643  0.50312540  0.21920904  1  0  0.10463  0  0.970641  0  0  0.112563  0  1.033843  0  0  0.115091  0  1.034424  0  0.105902  0  0.105222  0.110664  0  1.033746  0
H  H32  1  0.52783787  0.66670759  0.82489378  1  0  0.112092  0  0.954153  0  0  0.119846  0  1.018256  0  0  0.122995  0  1.01558  0  0.126019  0  0.111586  0.117596  0  1.019932  0
H  H33  1  0.02783822  0.33329281  0.67510758  1  0  0.112084  0  0.95416  0  0  0.119844  0  1.018269  0  0  0.122992  0  1.015594  0  0.12598  0  0.111586  0.117599  0  1.019939  0
H  H34  1  0.47216288  0.33329376  0.17510766  1  0  0.112087  0  0.954142  0  0  0.119839  0  1.018256  0  0  0.122988  0  1.015581  0  0.126008  0  0.111602  0.1176  0  1.019918  0
H  H35  1  0.97216541  0.66670759  0.32489175  1  0  0.112081  0  0.954143  0  0  0.119846  0  1.018238  0  0  0.122995  0  1.015562  0  0.126008  0  0.111574  0.117596  0  1.019912  0
H  H36  1  0.37326048  0.87673746  0.06377757  1  0  0.104619  0  0.971419  0  0  0.112446  0  1.034241  0  0  0.115086  0  1.031152  0  0.214558  0  0.133929  0.110508  0  1.036248  0
H  H37  1  0.87326158  0.12326390  0.43622286  1  0  0.104658  0  0.971437  0  0  0.112485  0  1.034256  0  0  0.115124  0  1.03117  0  0.214556  0  0.133948  0.110547  0  1.036264  0
H  H38  1  0.62673593  0.12326390  0.93622286  1  0  0.104658  0  0.971426  0  0  0.112487  0  1.03424  0  0  0.115126  0  1.031153  0  0.21456  0  0.133945  0.110549  0  1.036247  0
H  H39  1  0.12673773  0.87673555  0.56377638  1  0  0.104649  0  0.971435  0  0  0.112462  0  1.034262  0  0  0.115102  0  1.031176  0  0.214579  0  0.133936  0.110525  0  1.03627  0
H  H40  1  0.13933399  0.46320543  0.11171133  1  0  0.105519  0  0.936694  0  0  0.117314  0  0.997842  0  0  0.120049  0  0.996106  0  0.106636  0  0.11066  0.115233  0  0.999289  0
H  H41  1  0.63933942  0.53679593  0.38828961  1  0  0.105452  0  0.93654  0  0  0.117218  0  0.997739  0  0  0.119952  0  0.996006  0  0.106678  0  0.110621  0.115138  0  0.999185  0
H  H42  1  0.86066243  0.53679593  0.88829011  1  0  0.105473  0  0.936546  0  0  0.117242  0  0.997733  0  0  0.119975  0  0.996003  0  0.106666  0  0.110639  0.115162  0  0.99918  0
H  H43  1  0.36066133  0.46320162  0.61170996  1  0  0.10546  0  0.936558  0  0  0.117228  0  0.997744  0  0  0.119962  0  0.996011  0  0.106677  0  0.110622  0.115148  0  0.99919  0
H  H44  1  0.04714903  0.23004369  0.09573517  1  0  0.109542  0  0.941904  0  0  0.120768  0  0.999625  0  0  0.12384  0  0.998102  0  0.07691  0  0.110062  0.118433  0  1.001044  0
H  H45  1  0.54715156  0.76995767  0.40426526  1  0  0.10957  0  0.941884  0  0  0.120801  0  0.999598  0  0  0.12387  0  0.99808  0  0.076939  0  0.110085  0.118466  0  1.001018  0
H  H46  1  0.95284883  0.76995767  0.90426577  1  0  0.109551  0  0.941919  0  0  0.12078  0  0.999636  0  0  0.123849  0  0.998118  0  0.076933  0  0.110078  0.118446  0  1.001054  0
H  H47  1  0.45285062  0.23004083  0.59573338  1  0  0.10952  0  0.941987  0  0  0.120785  0  0.999661  0  0  0.123854  0  0.998143  0  0.076958  0  0.11006  0.118448  0  1.001082  0
H  H48  1  0.07215969  0.09861207  0.97804347  1  0  0.085629  0  0.920314  0  0  0.096777  0  0.979373  0  0  0.09918  0  0.976728  0  0.102758  0  0.122353  0.095535  0  0.980038  0
H  H49  1  0.57216078  0.90138738  0.52195678  1  0  0.08562  0  0.920368  0  0  0.096776  0  0.979421  0  0  0.09918  0  0.976774  0  0.10279  0  0.122344  0.095534  0  0.980085  0
H  H50  1  0.92783817  0.90138928  0.02195797  1  0  0.085627  0  0.920356  0  0  0.096775  0  0.97941  0  0  0.099179  0  0.976764  0  0.102774  0  0.122356  0.095534  0  0.980075  0
H  H51  1  0.42783852  0.09861016  0.47804127  1  0  0.085633  0  0.920427  0  0  0.096789  0  0.979462  0  0  0.099192  0  0.976816  0  0.102741  0  0.122379  0.095548  0  0.980126  0
C  C52  1  0.40837038  0.35851450  0.76575957  1  0  0.146788  0  3.676096  0  0  0.114427  0  3.929082  0  0  0.122064  0  3.944848  0  0.51286  0  0.057007  0.109525  0  3.918293  0
C  C53  1  0.90837003  0.64148686  0.73424137  1  0  0.146795  0  3.676011  0  0  0.114412  0  3.929013  0  0  0.122062  0  3.944784  0  0.512833  0  0.057009  0.10951  0  3.918223  0
C  C54  1  0.59162892  0.64148876  0.23424104  1  0  0.146676  0  3.676021  0  0  0.114294  0  3.92901  0  0  0.121945  0  3.94478  0  0.512905  0  0.056961  0.109391  0  3.918219  0
C  C55  1  0.09163215  0.35851164  0.26575778  1  0  0.146812  0  3.67599  0  0  0.114427  0  3.928987  0  0  0.122077  0  3.944759  0  0.512826  0  0.057007  0.109525  0  3.918199  0
C  C56  1  0.48624148  0.47997923  0.76560666  1  0  -0.113227  0  3.735093  0  0  -0.126732  0  3.991276  0  0  -0.132798  0  4.012308  0  -0.028006  0  -0.082237  -0.122886  0  3.977178  0
C  C57  1  0.98624113  0.52002022  0.73439461  1  0  -0.113293  0  3.735109  0  0  -0.126806  0  3.991285  0  0  -0.132869  0  4.012309  0  -0.028018  0  -0.082244  -0.12296  0  3.977188  0
C  C58  1  0.51375638  0.52002117  0.23439470  1  0  -0.113238  0  3.734997  0  0  -0.126738  0  3.991178  0  0  -0.132801  0  4.012201  0  -0.028024  0  -0.082207  -0.122891  0  3.977084  0
C  C59  1  0.01375962  0.47997923  0.26560514  1  0  -0.113276  0  3.735043  0  0  -0.126752  0  3.991235  0  0  -0.132814  0  4.012264  0  -0.027994  0  -0.082244  -0.122906  0  3.977137  0
C  C60  1  0.47281239  0.57098200  0.82455390  1  0  -0.031589  0  3.6668  0  0  -0.058605  0  3.920346  0  0  -0.055565  0  3.936353  0  -0.005607  0  -0.063928  -0.060023  0  3.908796  0
C  C61  1  0.97281349  0.42901935  0.67544754  1  0  -0.03155  0  3.66668  0  0  -0.058551  0  3.92028  0  0  -0.05551  0  3.936288  0  -0.005498  0  -0.063914  -0.059975  0  3.908733  0
C  C62  1  0.52718836  0.42902030  0.17544712  1  0  -0.03154  0  3.666741  0  0  -0.058516  0  3.920343  0  0  -0.055476  0  3.936349  0  -0.005532  0  -0.063923  -0.05994  0  3.90878  0
C  C63  1  0.02719159  0.57097915  0.32455110  1  0  -0.03147  0  3.66666  0  0  -0.058449  0  3.920255  0  0  -0.055408  0  3.936259  0  -0.005521  0  -0.063835  -0.059872  0  3.908715  0
C  C64  1  0.38390964  0.53904965  0.88374364  1  0  -0.02789  0  3.787256  0  0  -0.01515  0  4.026316  0  0  -0.017554  0  4.048148  0  -0.031367  0  0.002468  -0.013912  0  4.011855  0
C  C65  1  0.88390785  0.46094694  0.61625635  1  0  -0.027864  0  3.787106  0  0  -0.015244  0  4.026327  0  0  -0.017649  0  4.048162  0  -0.03138  0  0.002443  -0.014006  0  4.011866  0
C  C66  1  0.61609255  0.46094885  0.11625754  1  0  -0.02774  0  3.786891  0  0  -0.015145  0  4.026141  0  0  -0.017549  0  4.047976  0  -0.031068  0  0.002521  -0.013906  0  4.011683  0
C  C67  1  0.11609434  0.53905060  0.38374170  1  0  -0.027888  0  3.786942  0  0  -0.015318  0  4.026258  0  0  -0.017723  0  4.048091  0  -0.031042  0  0.002481  -0.014079  0  4.011797  0
C  C68  1  0.35877341  0.62157786  0.94808155  1  0  0.093569  0  3.805531  0  0  0.074576  0  4.061093  0  0  0.076614  0  4.085674  0  0.369566  0  0.090615  0.07287  0  4.044991  0
C  C69  1  0.85877450  0.37842255  0.55191930  1  0  0.093376  0  3.80563  0  0  0.074478  0  4.061151  0  0  0.076515  0  4.085733  0  0.369496  0  0.090535  0.072772  0  4.045049  0
C  C70  1  0.64122878  0.37842159  0.05191972  1  0  0.093368  0  3.805517  0  0  0.074471  0  4.061091  0  0  0.076507  0  4.085671  0  0.369215  0  0.090549  0.072764  0  4.044991  0
C  C71  1  0.14123202  0.62157881  0.44807961  1  0  0.093507  0  3.805461  0  0  0.074529  0  4.061124  0  0  0.076566  0  4.085704  0  0.369253  0  0.09055  0.072822  0  4.045024  0
C  C72  1  0.35308654  0.78066404  0.03553013  1  0  0.254324  0  3.625026  0  0  0.192273  0  3.902899  0  0  0.20543  0  3.915509  0  0.970225  0  0.155882  0.183849  0  3.893582  0
C  C73  1  0.85309052  0.21933541  0.46446962  1  0  0.254261  0  3.625152  0  0  0.1922  0  3.903046  0  0  0.205356  0  3.91566  0  0.970206  0  0.155846  0.183775  0  3.89373  0
C  C74  1  0.64690843  0.21933541  0.96447013  1  0  0.254243  0  3.625127  0  0  0.192199  0  3.902998  0  0  0.205357  0  3.915611  0  0.970211  0  0.155848  0.183775  0  3.893681  0
C  C75  1  0.14691167  0.78066404  0.53552911  1  0  0.25426  0  3.62513  0  0  0.192234  0  3.902994  0  0  0.205391  0  3.915607  0  0.97022  0  0.15588  0.18381  0  3.893677  0
C  C76  1  0.28387998  0.58088314  0.00694115  1  0  0.081231  0  3.835125  0  0  0.070344  0  4.09523  0  0  0.071734  0  4.119821  0  0.477633  0  0.083838  0.069429  0  4.078535  0
C  C77  1  0.78388252  0.41911631  0.49306012  1  0  0.081275  0  3.835187  0  0  0.070396  0  4.095219  0  0  0.071789  0  4.11981  0  0.477665  0  0.083834  0.069472  0  4.078519  0
C  C78  1  0.71612077  0.41911631  0.99306012  1  0  0.081307  0  3.835081  0  0  0.070367  0  4.095205  0  0  0.07176  0  4.119798  0  0.477662  0  0.083819  0.069443  0  4.078506  0
C  C79  1  0.21612112  0.58088314  0.50693912  1  0  0.081304  0  3.835049  0  0  0.070447  0  4.095112  0  0  0.071839  0  4.119704  0  0.477669  0  0.083889  0.06952  0  4.078411  0
C  C80  1  0.22318495  0.45177672  0.00513474  1  0  -0.01948  0  3.779957  0  0  -0.009161  0  4.019117  0  0  -0.011099  0  4.041201  0  -0.018321  0  0.002367  -0.007904  0  4.004145  0
C  C81  1  0.72318749  0.54822369  0.49486713  1  0  -0.019571  0  3.780135  0  0  -0.00924  0  4.019258  0  0  -0.011185  0  4.041349  0  -0.018375  0  0.002368  -0.007958  0  4.004254  0
C  C82  1  0.77681435  0.54822369  0.99486713  1  0  -0.019568  0  3.780107  0  0  -0.009207  0  4.019225  0  0  -0.011152  0  4.041315  0  -0.018311  0  0.002371  -0.007924  0  4.00422  0
C  C83  1  0.27681614  0.45177576  0.50513262  1  0  -0.019542  0  3.780063  0  0  -0.009212  0  4.019188  0  0  -0.011157  0  4.041279  0  -0.018309  0  0.002365  -0.00792  0  4.004172  0
C  C84  1  0.15174117  0.40112083  0.06186743  1  0  -0.041376  0  3.673173  0  0  -0.072481  0  3.935891  0  0  -0.069806  0  3.952555  0  -0.095996  0  -0.066993  -0.073958  0  3.924499  0
C  C85  1  0.65174515  0.59888148  0.43813460  1  0  -0.041186  0  3.6731  0  0  -0.072308  0  3.935866  0  0  -0.06963  0  3.95253  0  -0.096041  0  -0.066912  -0.073793  0  3.924467  0
C  C86  1  0.84825524  0.59888053  0.93813452  1  0  -0.04129  0  3.673074  0  0  -0.072411  0  3.935832  0  0  -0.069733  0  3.952498  0  -0.095897  0  -0.066959  -0.073895  0  3.924434  0
C  C87  1  0.34825559  0.40111797  0.56186616  1  0  -0.041228  0  3.672998  0  0  -0.072341  0  3.935765  0  0  -0.069663  0  3.952429  0  -0.095938  0  -0.066927  -0.073829  0  3.924363  0
C  C88  1  0.10026205  0.27371542  0.05323329  1  0  -0.099437  0  3.707981  0  0  -0.116725  0  3.974551  0  0  -0.121394  0  3.993108  0  0.080207  0  -0.077811  -0.113738  0  3.962077  0
C  C89  1  0.60026747  0.72628403  0.44676748  1  0  -0.099506  0  3.70808  0  0  -0.116784  0  3.97466  0  0  -0.121455  0  3.993221  0  0.080278  0  -0.07785  -0.113797  0  3.962186  0
C  C90  1  0.89973870  0.72628403  0.94676748  1  0  -0.099427  0  3.707907  0  0  -0.116701  0  3.974483  0  0  -0.121371  0  3.993044  0  0.080175  0  -0.077822  -0.113715  0  3.962011  0
C  C91  1  0.39973905  0.27371351  0.55323260  1  0  -0.099446  0  3.707904  0  0  -0.116772  0  3.974498  0  0  -0.121437  0  3.993046  0  0.08016  0  -0.077816  -0.113785  0  3.962027  0
C  C92  1  0.11495408  0.19858305  0.98756658  1  0  0.158447  0  3.673201  0  0  0.120274  0  3.937274  0  0  0.128665  0  3.952552  0  0.482211  0  0.060155  0.114912  0  3.926037  0
C  C93  1  0.61495373  0.80141926  0.51243292  1  0  0.158414  0  3.673191  0  0  0.120223  0  3.937272  0  0  0.128615  0  3.952546  0  0.481862  0  0.060178  0.11486  0  3.926034  0
C  C94  1  0.88504667  0.80141926  0.01243444  1  0  0.158414  0  3.673113  0  0  0.120248  0  3.937207  0  0  0.128642  0  3.952475  0  0.481354  0  0.060182  0.114884  0  3.92597  0
C  C95  1  0.38504557  0.19858019  0.48756429  1  0  0.158374  0  3.673291  0  0  0.120187  0  3.93736  0  0  0.128583  0  3.952629  0  0.481379  0  0.060096  0.114824  0  3.926122  0
C  C96  1  0.23622144  0.36844422  0.94073303  1  0  0.133835  0  3.726549  0  0  0.124375  0  3.969828  0  0  0.12886  0  3.990473  0  0.540004  0  0.118352  0.121083  0  3.956216  0
C  C97  1  0.73621965  0.63155427  0.55926713  1  0  0.133934  0  3.726443  0  0  0.124519  0  3.969657  0  0  0.129005  0  3.990306  0  0.539984  0  0.118434  0.121219  0  3.956039  0
C  C98  1  0.76377930  0.63155618  0.05926782  1  0  0.133914  0  3.726505  0  0  0.124511  0  3.969716  0  0  0.129001  0  3.990357  0  0.539989  0  0.118416  0.121211  0  3.956099  0
C  C99  1  0.26378254  0.36844518  0.44073211  1  0  0.133865  0  3.726468  0  0  0.124433  0  3.969653  0  0  0.128919  0  3.990299  0  0.539991  0  0.11836  0.121131  0  3.956032  0
C  C100  1  0.31564993  0.41203685  0.88031328  1  0  0.135417  0  3.741189  0  0  0.123107  0  3.98787  0  0  0.128128  0  4.008099  0  0.550464  0  0.120611  0.119733  0  3.974373  0
C  C101  1  0.81564958  0.58796164  0.61968790  1  0  0.135461  0  3.741026  0  0  0.123133  0  3.987779  0  0  0.128155  0  4.00801  0  0.550454  0  0.120635  0.11976  0  3.974282  0
C  C102  1  0.68435082  0.58796450  0.11968817  1  0  0.135405  0  3.74107  0  0  0.123106  0  3.987799  0  0  0.128127  0  4.008028  0  0.550496  0  0.120629  0.11973  0  3.974304  0
C  C103  1  0.18435261  0.41203685  0.38031125  1  0  0.135413  0  3.741142  0  0  0.123164  0  3.987819  0  0  0.128187  0  4.008047  0  0.55044  0  0.120597  0.119789  0  3.974324  0
S  S104  1  0.49555119  0.93388960  0.82995171  1  0  1.565718  0  5.812321  0  0  1.441671  0  6.350884  0  0  1.496505  0  6.316528  0  3.793025  0  0.564786  1.403823  0  6.373827  0
S  S105  1  0.99555085  0.06610985  0.67004804  1  0  1.56568  0  5.812308  0  0  1.441623  0  6.350876  0  0  1.496461  0  6.316516  0  3.793027  0  0.564769  1.403781  0  6.373818  0
S  S106  1  0.50444811  0.06610985  0.17004804  1  0  1.565694  0  5.812364  0  0  1.441631  0  6.350941  0  0  1.496465  0  6.316585  0  3.793088  0  0.564767  1.403779  0  6.373888  0
S  S107  1  0.00444701  0.93389055  0.32995230  1  0  1.56572  0  5.812352  0  0  1.441661  0  6.350927  0  0  1.496499  0  6.316566  0  3.793084  0  0.564794  1.403817  0  6.373869  0
N  N108  1  0.32561494  0.32661073  0.82132314  1  0  -0.326092  0  3.281488  0  0  -0.255003  0  3.544412  0  0  -0.271554  0  3.560215  0  -1.235089  0  -0.315292  -0.243671  0  3.533032  0
N  N109  1  0.82561459  0.67338967  0.67867771  1  0  -0.32614  0  3.281485  0  0  -0.255052  0  3.544447  0  0  -0.271599  0  3.560241  0  -1.235086  0  -0.31533  -0.243719  0  3.533066  0
N  N110  1  0.67438292  0.67338967  0.17867822  1  0  -0.326121  0  3.281645  0  0  -0.255024  0  3.544564  0  0  -0.271572  0  3.560359  0  -1.235189  0  -0.315338  -0.243691  0  3.533183  0
N  N111  1  0.17438471  0.32660978  0.32132204  1  0  -0.326153  0  3.281597  0  0  -0.25508  0  3.544528  0  0  -0.271627  0  3.56032  0  -1.235133  0  -0.315334  -0.243748  0  3.533149  0
N  N112  1  0.17977569  0.24503548  0.93328929  1  0  -0.347191  0  3.275267  0  0  -0.277811  0  3.544054  0  0  -0.295114  0  3.560803  0  -1.254766  0  -0.315446  -0.266275  0  3.53287  0
N  N113  1  0.67977679  0.75496397  0.56671198  1  0  -0.347248  0  3.275156  0  0  -0.277861  0  3.543923  0  0  -0.295163  0  3.560671  0  -1.254502  0  -0.315561  -0.266325  0  3.532741  0
N  N114  1  0.82022217  0.75496493  0.06671257  1  0  -0.347225  0  3.275226  0  0  -0.277894  0  3.544034  0  0  -0.295197  0  3.560779  0  -1.254022  0  -0.315562  -0.266358  0  3.53285  0
N  N115  1  0.32022540  0.24503452  0.43328819  1  0  -0.347184  0  3.275397  0  0  -0.277769  0  3.544108  0  0  -0.295072  0  3.560858  0  -1.254043  0  -0.315451  -0.266233  0  3.532924  0
N  N116  1  0.40094137  0.74854205  0.96791264  1  0  -0.33389  0  3.397514  0  0  -0.266385  0  3.632724  0  0  -0.285056  0  3.650178  0  -1.299052  0  -0.370023  -0.253927  0  3.62064  0
N  N117  1  0.90094391  0.25145740  0.53208761  1  0  -0.333804  0  3.397389  0  0  -0.266345  0  3.632581  0  0  -0.285019  0  3.650037  0  -1.299041  0  -0.36996  -0.253886  0  3.620497  0
N  N118  1  0.59905649  0.25145835  0.03208770  1  0  -0.333876  0  3.397552  0  0  -0.266408  0  3.632775  0  0  -0.285081  0  3.65023  0  -1.299062  0  -0.370016  -0.253951  0  3.620691  0
N  N119  1  0.09906116  0.74854110  0.46791103  1  0  -0.333815  0  3.397523  0  0  -0.266318  0  3.632743  0  0  -0.284991  0  3.650202  0  -1.299081  0  -0.36998  -0.253859  0  3.620657  0
N  N120  1  0.28276426  0.68173750  0.06109619  1  0  -0.402357  0  3.075717  0  0  -0.348738  0  3.33892  0  0  -0.365723  0  3.355498  0  -1.190887  0  -0.327234  -0.337167  0  3.327444  0
N  N121  1  0.78276679  0.31826195  0.43890407  1  0  -0.402376  0  3.07574  0  0  -0.348744  0  3.338915  0  0  -0.365728  0  3.35549  0  -1.190837  0  -0.327242  -0.337173  0  3.32744  0
N  N122  1  0.71723360  0.31826290  0.93890466  1  0  -0.402357  0  3.075722  0  0  -0.348717  0  3.338942  0  0  -0.365696  0  3.355501  0  -1.190822  0  -0.327235  -0.337145  0  3.327465  0
N  N123  1  0.21723395  0.68173750  0.56109517  1  0  -0.402398  0  3.075704  0  0  -0.348794  0  3.338901  0  0  -0.365772  0  3.355463  0  -1.190806  0  -0.327266  -0.337223  0  3.327426  0
O  O124  1  0.91340161  0.27047634  0.81966796  1  0  -0.849411  0  1.951274  0  0  -0.787717  0  2.167512  0  0  -0.810024  0  2.135155  0  -1.294664  0  -0.586848  -0.771825  0  2.1899  0
O  O125  1  0.41340340  0.72952787  0.68033070  1  0  -0.849479  0  1.951212  0  0  -0.78776  0  2.167384  0  0  -0.810067  0  2.135027  0  -1.294631  0  -0.586855  -0.77187  0  2.189775  0
O  O126  1  0.08659625  0.72952882  0.18033180  1  0  -0.849505  0  1.951213  0  0  -0.787791  0  2.167391  0  0  -0.810096  0  2.135032  0  -1.294647  0  -0.586872  -0.771899  0  2.18978  0
O  O127  1  0.58659734  0.27047158  0.31966803  1  0  -0.84944  0  1.951257  0  0  -0.787722  0  2.167445  0  0  -0.810025  0  2.135087  0  -1.294636  0  -0.586835  -0.771831  0  2.189837  0
O  O128  1  0.44284809  0.06627948  0.82296637  1  0  -0.734524  0  2.025181  0  0  -0.675511  0  2.306122  0  0  -0.698423  0  2.287221  0  -1.339404  0  -0.359456  -0.659299  0  2.318152  0
O  O129  1  0.94284919  0.93372092  0.67703346  1  0  -0.734528  0  2.025225  0  0  -0.675513  0  2.306166  0  0  -0.698427  0  2.287265  0  -1.339371  0  -0.359453  -0.659303  0  2.318197  0
O  O130  1  0.55715121  0.93372092  0.17703296  1  0  -0.734527  0  2.025221  0  0  -0.675511  0  2.306158  0  0  -0.698421  0  2.287256  0  -1.339372  0  -0.359449  -0.659301  0  2.31819  0
O  O131  1  0.05715012  0.06627948  0.32296688  1  0  -0.734522  0  2.02521  0  0  -0.675507  0  2.306153  0  0  -0.698421  0  2.287252  0  -1.339379  0  -0.359454  -0.659296  0  2.318183  0
O  O132  1  0.02201279  0.99049951  0.84402667  1  0  -0.825417  0  1.881105  0  0  -0.765432  0  2.084077  0  0  -0.785671  0  2.048809  0  -1.266273  0  -0.57557  -0.751277  0  2.108681  0
O  O133  1  0.52201244  0.00950185  0.65597325  1  0  -0.825512  0  1.881022  0  0  -0.765481  0  2.084072  0  0  -0.785749  0  2.048745  0  -1.266274  0  -0.575595  -0.751319  0  2.108689  0
O  O134  1  0.97798651  0.00950090  0.15597316  1  0  -0.825513  0  1.881044  0  0  -0.765503  0  2.084094  0  0  -0.785769  0  2.048766  0  -1.266276  0  -0.57562  -0.751342  0  2.108715  0
O  O135  1  0.47798686  0.99049951  0.34402667  1  0  -0.825435  0  1.881129  0  0  -0.765458  0  2.084109  0  0  -0.785698  0  2.048842  0  -1.266273  0  -0.575574  -0.751303  0  2.108712  0
O  O136  1  0.66677638  0.89253353  0.78431040  1  0  -0.764776  0  2.038478  0  0  -0.690196  0  2.310197  0  0  -0.714844  0  2.290495  0  -1.337434  0  -0.355281  -0.673117  0  2.323698  0
O  O137  1  0.16677673  0.10746687  0.71568994  1  0  -0.764738  0  2.038393  0  0  -0.69016  0  2.310127  0  0  -0.714807  0  2.290419  0  -1.337432  0  -0.355268  -0.673084  0  2.323628  0
O  O138  1  0.33322292  0.10746496  0.21568977  1  0  -0.764732  0  2.038424  0  0  -0.690157  0  2.310161  0  0  -0.7148  0  2.290447  0  -1.337506  0  -0.355253  -0.673075  0  2.323663  0
O  O139  1  0.83322402  0.89253449  0.28431049  1  0  -0.764755  0  2.0385  0  0  -0.690176  0  2.310224  0  0  -0.714826  0  2.290521  0  -1.337505  0  -0.355271  -0.673094  0  2.323721  0
O  O140  1  0.55124495  0.92722849  0.90184224  1  0  -0.703772  0  1.932514  0  0  -0.654994  0  2.17411  0  0  -0.675107  0  2.15786  0  -1.346579  0  -0.358174  -0.640348  0  2.183946  0
O  O141  1  0.05124530  0.07277192  0.59815760  1  0  -0.70379  0  1.932527  0  0  -0.655015  0  2.174121  0  0  -0.675128  0  2.157867  0  -1.346592  0  -0.358185  -0.640368  0  2.183956  0
O  O142  1  0.44875291  0.07277096  0.09815751  1  0  -0.70381  0  1.932582  0  0  -0.655021  0  2.174177  0  0  -0.675135  0  2.157924  0  -1.346601  0  -0.358184  -0.640378  0  2.184017  0
O  O143  1  0.94875256  0.92722849  0.40184224  1  0  -0.703835  0  1.932584  0  0  -0.655029  0  2.174153  0  0  -0.675141  0  2.157901  0  -1.346612  0  -0.358186  -0.640382  0  2.183987  0
O  O144  1  0.32892313  0.84571803  0.80843000  1  0  -0.751396  0  1.958717  0  0  -0.684222  0  2.190072  0  0  -0.70651  0  2.172529  0  -1.34866  0  -0.357814  -0.66889  0  2.201539  0
O  O145  1  0.82892278  0.15428237  0.69156932  1  0  -0.751384  0  1.958723  0  0  -0.68419  0  2.190071  0  0  -0.706484  0  2.172539  0  -1.348655  0  -0.357806  -0.668867  0  2.201539  0
O  O146  1  0.67107473  0.15428237  0.19156983  1  0  -0.75138  0  1.9587  0  0  -0.684193  0  2.19004  0  0  -0.706487  0  2.172512  0  -1.348554  0  -0.357818  -0.668854  0  2.201503  0
O  O147  1  0.17107507  0.84571803  0.30843051  1  0  -0.751377  0  1.958607  0  0  -0.684213  0  2.189972  0  0  -0.7065  0  2.172429  0  -1.348623  0  -0.357831  -0.668892  0  2.201445  0
