# generated using pymatgen
data_CdH4C6S2(N2O)2
_symmetry_space_group_name_H-M   'P 1'
_cell_length_a   6.77620940
_cell_length_b   10.56341966
_cell_length_c   14.30749927
_cell_angle_alpha   89.99966222
_cell_angle_beta   90.00005956
_cell_angle_gamma   98.96279531
_symmetry_Int_Tables_number   1
_chemical_formula_structural   CdH4C6S2(N2O)2
_chemical_formula_sum   'Cd4 H16 C24 S8 N16 O8'
_cell_volume   1011.62506919
_cell_formula_units_Z   4
loop_
 _symmetry_equiv_pos_site_id
 _symmetry_equiv_pos_as_xyz
  1  'x, y, z'
loop_
 _atom_site_type_symbol
 _atom_site_label
 _atom_site_symmetry_multiplicity
 _atom_site_fract_x
 _atom_site_fract_y
 _atom_site_fract_z
 _atom_site_occupancy
 _atom_site_hle17_bader_spin_density
 _atom_site_hle17_ddec_charge
 _atom_site_hle17_ddec_spin_density
 _atom_site_hle17_ddec_sum_bond_order
 _atom_site_hle17_magmom
 _atom_site_hse06_10hf_bader_spin_density
 _atom_site_hse06_10hf_ddec_charge
 _atom_site_hse06_10hf_ddec_spin_density
 _atom_site_hse06_10hf_ddec_sum_bond_order
 _atom_site_hse06_10hf_magmom
 _atom_site_hse06_bader_spin_density
 _atom_site_hse06_ddec_charge
 _atom_site_hse06_ddec_spin_density
 _atom_site_hse06_ddec_sum_bond_order
 _atom_site_hse06_magmom
 _atom_site_pbe_bader_spin_density
 _atom_site_pbe_cm5_charge
 _atom_site_pbe_ddec_charge
 _atom_site_pbe_ddec_spin_density
 _atom_site_pbe_ddec_sum_bond_order
 _atom_site_pbe_magmom
Cd  Cd0  1  0.93284906  0.24522734  0.05904842  1  0  0.997099  0  1.980476  0  0  0.837332  0  2.454145  0  0  0.881774  0  2.413036  0  0  0.703474  0.807415  0  2.479896  0
Cd  Cd1  1  0.56715784  0.25477308  0.55904695  1  0  0.99713  0  1.980382  0  0  0.837337  0  2.454097  0  0  0.881816  0  2.412918  0  0  0.703487  0.807414  0  2.479866  0
Cd  Cd2  1  0.06713661  0.75477071  0.94095247  1  0  0.997201  0  1.980124  0  0  0.837375  0  2.453808  0  0  0.88186  0  2.412621  0  0  0.70352  0.807435  0  2.479596  0
Cd  Cd3  1  0.43284896  0.74522695  0.44095394  1  0  0.997106  0  1.9803  0  0  0.837319  0  2.45397  0  0  0.881784  0  2.412819  0  0  0.703516  0.807388  0  2.479743  0
H  H4  1  0.95029233  0.09097117  0.26578929  1  0  0.139756  0  0.936895  0  0  0.141875  0  1.005113  0  0  0.146555  0  1.000825  0  0  0.133461  0.13859  0  1.008039  0
H  H5  1  0.54970082  0.40903140  0.76578854  1  0  0.139765  0  0.936947  0  0  0.141864  0  1.005156  0  0  0.146544  0  1.000871  0  0  0.133464  0.13858  0  1.008083  0
H  H6  1  0.04969800  0.90902786  0.73420741  1  0  0.13971  0  0.936908  0  0  0.141822  0  1.00515  0  0  0.1465  0  1.000867  0  0  0.133455  0.138538  0  1.008072  0
H  H7  1  0.45030519  0.59097150  0.23420746  1  0  0.1397  0  0.936937  0  0  0.141792  0  1.005184  0  0  0.14647  0  1.000902  0  0  0.13346  0.138508  0  1.008112  0
H  H8  1  0.96015747  0.86678247  0.33435795  1  0  0.147057  0  0.946067  0  0  0.149132  0  1.013006  0  0  0.153771  0  1.008874  0  0  0.132599  0.145811  0  1.01618  0
H  H9  1  0.53983379  0.63321405  0.83436049  1  0  0.147022  0  0.946127  0  0  0.149096  0  1.013105  0  0  0.153737  0  1.008975  0  0  0.132594  0.14578  0  1.016284  0
H  H10  1  0.03983877  0.13321657  0.66564015  1  0  0.147063  0  0.946067  0  0  0.149108  0  1.013009  0  0  0.15375  0  1.008881  0  0  0.132605  0.145787  0  1.016196  0
H  H11  1  0.46016983  0.36678501  0.16564391  1  0  0.146961  0  0.946177  0  0  0.149042  0  1.013139  0  0  0.153683  0  1.009008  0  0  0.132584  0.145724  0  1.01633  0
H  H12  1  0.49369333  0.85159607  0.19309770  1  0  0.132213  0  0.931191  0  0  0.136413  0  0.997181  0  0  0.140464  0  0.993375  0  0  0.132219  0.133565  0  0.999842  0
H  H13  1  0.00630495  0.64840169  0.69309526  1  0  0.132257  0  0.931163  0  0  0.136436  0  0.997196  0  0  0.140486  0  0.993392  0  0  0.132224  0.133588  0  0.99985  0
H  H14  1  0.50630256  0.14840777  0.80690320  1  0  0.132187  0  0.931244  0  0  0.136434  0  0.997176  0  0  0.140484  0  0.993373  0  0  0.132236  0.133586  0  0.999838  0
H  H15  1  0.99370435  0.35159643  0.30690843  1  0  0.132269  0  0.931125  0  0  0.136537  0  0.997071  0  0  0.140591  0  0.993267  0  0  0.132246  0.133684  0  0.999729  0
H  H16  1  0.47967396  0.07115349  0.12141739  1  0  0.145811  0  0.934075  0  0  0.150123  0  0.996024  0  0  0.154508  0  0.991885  0  0  0.136738  0.146774  0  0.999518  0
H  H17  1  0.02032280  0.42884841  0.62141375  1  0  0.145777  0  0.934048  0  0  0.150098  0  0.996018  0  0  0.154481  0  0.991884  0  0  0.136702  0.146748  0  0.999511  0
H  H18  1  0.52031557  0.92884840  0.87858071  1  0  0.14577  0  0.934112  0  0  0.150051  0  0.996088  0  0  0.154434  0  0.991953  0  0  0.13672  0.146721  0  0.999559  0
H  H19  1  0.97968173  0.57115449  0.37858505  1  0  0.145748  0  0.934148  0  0  0.150055  0  0.996117  0  0  0.154436  0  0.991986  0  0  0.136712  0.146733  0  0.99957  0
C  C20  1  0.06928608  0.03544343  0.25142053  1  0  -0.019823  0  3.591927  0  0  -0.05978  0  3.858954  0  0  -0.055764  0  3.868735  0  0  0.043196  -0.061615  0  3.851837  0
C  C21  1  0.43071133  0.46455360  0.75141901  1  0  -0.019764  0  3.591848  0  0  -0.059645  0  3.858838  0  0  -0.055621  0  3.868626  0  0  0.043251  -0.061487  0  3.851736  0
C  C22  1  0.93070403  0.96455463  0.74857687  1  0  -0.019709  0  3.592017  0  0  -0.059751  0  3.85909  0  0  -0.055736  0  3.868877  0  0  0.043179  -0.06159  0  3.851976  0
C  C23  1  0.56929968  0.53544549  0.24857769  1  0  -0.01969  0  3.592144  0  0  -0.059645  0  3.859235  0  0  -0.055621  0  3.869026  0  0  0.043216  -0.061485  0  3.852134  0
C  C24  1  0.07537477  0.91617100  0.28857187  1  0  -0.016863  0  3.59954  0  0  -0.059582  0  3.87089  0  0  -0.054322  0  3.879973  0  0  0.045468  -0.063556  0  3.864987  0
C  C25  1  0.42461856  0.58382982  0.78857409  1  0  -0.016812  0  3.599446  0  0  -0.059617  0  3.870869  0  0  -0.054369  0  3.879965  0  0  0.045448  -0.063604  0  3.864989  0
C  C26  1  0.92462169  0.08382901  0.71142763  1  0  -0.016956  0  3.599691  0  0  -0.059544  0  3.870925  0  0  -0.054289  0  3.880012  0  0  0.045461  -0.063523  0  3.86504  0
C  C27  1  0.57538597  0.41617308  0.21142890  1  0  -0.016772  0  3.599746  0  0  -0.059528  0  3.871153  0  0  -0.054279  0  3.880245  0  0  0.045468  -0.063507  0  3.865278  0
C  C28  1  0.37451437  0.90657746  0.20759554  1  0  -0.002216  0  3.604266  0  0  -0.045753  0  3.87752  0  0  -0.04049  0  3.886683  0  0  0.049954  -0.048783  0  3.871167  0
C  C29  1  0.12548084  0.59342592  0.70759479  1  0  -0.002176  0  3.603902  0  0  -0.045738  0  3.87724  0  0  -0.040474  0  3.886399  0  0  0.049966  -0.048765  0  3.870883  0
C  C30  1  0.62548595  0.09342639  0.79240466  1  0  -0.002135  0  3.60421  0  0  -0.045783  0  3.877496  0  0  -0.040518  0  3.886656  0  0  0.049956  -0.048816  0  3.871154  0
C  C31  1  0.87452709  0.40657890  0.29240820  1  0  -0.002097  0  3.603794  0  0  -0.045832  0  3.877225  0  0  -0.040575  0  3.886385  0  0  0.049938  -0.048852  0  3.870877  0
C  C32  1  0.36645509  0.02439601  0.16893241  1  0  0.001431  0  3.565106  0  0  -0.038856  0  3.829374  0  0  -0.034493  0  3.839032  0  0  0.052172  -0.04269  0  3.823779  0
C  C33  1  0.13354226  0.47560168  0.66892862  1  0  0.001551  0  3.564755  0  0  -0.038774  0  3.829109  0  0  -0.034408  0  3.838762  0  0  0.052267  -0.042616  0  3.82352  0
C  C34  1  0.63353717  0.97560494  0.83106778  1  0  0.001502  0  3.565012  0  0  -0.038667  0  3.829188  0  0  -0.034302  0  3.838844  0  0  0.052254  -0.042517  0  3.823583  0
C  C35  1  0.86646726  0.52439740  0.33106949  1  0  0.0014  0  3.564971  0  0  -0.038801  0  3.829277  0  0  -0.034436  0  3.838932  0  0  0.052218  -0.042647  0  3.823645  0
C  C36  1  0.82361378  0.92475957  0.07484144  1  0  0.298497  0  3.997995  0  0  0.281968  0  4.290594  0  0  0.302815  0  4.308559  0  0  0.146693  0.267885  0  4.277929  0
C  C37  1  0.67639597  0.57524291  0.57483450  1  0  0.298522  0  3.998008  0  0  0.281988  0  4.290621  0  0  0.302835  0  4.308588  0  0  0.146625  0.267906  0  4.277952  0
C  C38  1  0.17636826  0.07523560  0.92515456  1  0  0.298552  0  3.998213  0  0  0.282016  0  4.290803  0  0  0.302859  0  4.30876  0  0  0.146768  0.267934  0  4.278152  0
C  C39  1  0.32363071  0.42476005  0.42516080  1  0  0.298429  0  3.998441  0  0  0.281889  0  4.291056  0  0  0.302731  0  4.309021  0  0  0.146598  0.267809  0  4.278394  0
C  C40  1  0.19780992  0.53414718  0.07081280  1  0  0.303922  0  3.989166  0  0  0.287505  0  4.283972  0  0  0.30906  0  4.300738  0  0  0.144311  0.273279  0  4.272807  0
C  C41  1  0.30221065  0.96586503  0.57082519  1  0  0.304206  0  3.98895  0  0  0.287806  0  4.283716  0  0  0.309351  0  4.300479  0  0  0.144546  0.273586  0  4.272547  0
C  C42  1  0.80219005  0.46586145  0.92918670  1  0  0.304204  0  3.989254  0  0  0.287799  0  4.28401  0  0  0.309348  0  4.300765  0  0  0.144561  0.273577  0  4.272851  0
C  C43  1  0.69779569  0.03413309  0.42917640  1  0  0.304205  0  3.988914  0  0  0.287801  0  4.283685  0  0  0.309347  0  4.300448  0  0  0.144572  0.273584  0  4.272511  0
S  S44  1  0.35362576  0.65584281  0.03137032  1  0  -0.326677  0  2.205007  0  0  -0.29498  0  2.541111  0  0  -0.315916  0  2.537075  0  0  -0.132201  -0.282231  0  2.543725  0
S  S45  1  0.14637346  0.84415432  0.53138107  1  0  -0.326829  0  2.204205  0  0  -0.295145  0  2.540294  0  0  -0.316081  0  2.536257  0  0  -0.132299  -0.282414  0  2.542934  0
S  S46  1  0.64635696  0.34415524  0.96863687  1  0  -0.3269  0  2.204278  0  0  -0.295203  0  2.540341  0  0  -0.316141  0  2.536301  0  0  -0.132315  -0.282444  0  2.542939  0
S  S47  1  0.85363539  0.15584189  0.46862472  1  0  -0.326873  0  2.20416  0  0  -0.2952  0  2.540267  0  0  -0.316142  0  2.536235  0  0  -0.132323  -0.282462  0  2.542892  0
S  S48  1  0.85215746  0.77699966  0.09530446  1  0  -0.306195  0  2.209399  0  0  -0.272181  0  2.537286  0  0  -0.292022  0  2.536006  0  0  -0.129506  -0.258102  0  2.537096  0
S  S49  1  0.64784855  0.72300552  0.59529897  1  0  -0.306134  0  2.209268  0  0  -0.272106  0  2.537125  0  0  -0.291942  0  2.535843  0  0  -0.129449  -0.25803  0  2.536932  0
S  S50  1  0.14782354  0.22300987  0.90469014  1  0  -0.306321  0  2.209064  0  0  -0.272322  0  2.536952  0  0  -0.292157  0  2.535668  0  0  -0.129582  -0.25824  0  2.53677  0
S  S51  1  0.35217042  0.27698976  0.40469773  1  0  -0.306221  0  2.209114  0  0  -0.272171  0  2.536933  0  0  -0.292013  0  2.535653  0  0  -0.129503  -0.258088  0  2.536743  0
N  N52  1  0.21374307  0.08931965  0.19061108  1  0  0.293838  0  3.725514  0  0  0.339865  0  3.991156  0  0  0.343406  0  4.01267  0  0  -0.104987  0.336951  0  3.976675  0
N  N53  1  0.28625395  0.41068266  0.69060763  1  0  0.293802  0  3.725647  0  0  0.339843  0  3.991272  0  0  0.343383  0  4.012787  0  0  -0.104965  0.336937  0  3.976787  0
N  N54  1  0.78624703  0.91067842  0.80938842  1  0  0.293855  0  3.725696  0  0  0.339844  0  3.991352  0  0  0.343385  0  4.012871  0  0  -0.104992  0.336938  0  3.97686  0
N  N55  1  0.71375421  0.58932312  0.30939047  1  0  0.293758  0  3.725739  0  0  0.33979  0  3.991369  0  0  0.343331  0  4.012884  0  0  -0.105007  0.336875  0  3.976885  0
N  N56  1  0.22823717  0.85144701  0.26659126  1  0  0.28452  0  3.74895  0  0  0.328799  0  4.019163  0  0  0.332004  0  4.039373  0  0  -0.110664  0.326505  0  4.005366  0
N  N57  1  0.27175547  0.64855111  0.76659034  1  0  0.284466  0  3.749221  0  0  0.328779  0  4.019446  0  0  0.331989  0  4.039662  0  0  -0.110699  0.326493  0  4.00564  0
N  N58  1  0.77176145  0.14855588  0.73341033  1  0  0.2845  0  3.749075  0  0  0.328756  0  4.019304  0  0  0.331962  0  4.039515  0  0  -0.110722  0.326467  0  4.005505  0
N  N59  1  0.72824475  0.35144603  0.23341265  1  0  0.284448  0  3.748959  0  0  0.32879  0  4.01922  0  0  0.332006  0  4.039428  0  0  -0.110681  0.326495  0  4.005424  0
N  N60  1  0.79808727  0.03184397  0.06147835  1  0  -0.538224  0  2.872216  0  0  -0.478933  0  3.139268  0  0  -0.501356  0  3.148176  0  0  -0.394132  -0.463369  0  3.132255  0
N  N61  1  0.70192429  0.46815741  0.56147252  1  0  -0.538361  0  2.872446  0  0  -0.479039  0  3.139448  0  0  -0.501466  0  3.14836  0  0  -0.394156  -0.463476  0  3.132437  0
N  N62  1  0.20189021  0.96816938  0.93851556  1  0  -0.538174  0  2.872683  0  0  -0.478818  0  3.139609  0  0  -0.501239  0  3.148509  0  0  -0.394163  -0.463256  0  3.132609  0
N  N63  1  0.29810934  0.53183121  0.43852069  1  0  -0.538136  0  2.872913  0  0  -0.478795  0  3.139852  0  0  -0.501214  0  3.148758  0  0  -0.394065  -0.463234  0  3.132853  0
N  N64  1  0.08791970  0.44601636  0.10199731  1  0  -0.531097  0  2.871722  0  0  -0.473835  0  3.135533  0  0  -0.496201  0  3.145326  0  0  -0.395618  -0.459356  0  3.128924  0
N  N65  1  0.41207433  0.05397419  0.60199965  1  0  -0.531169  0  2.872272  0  0  -0.473924  0  3.136096  0  0  -0.496282  0  3.145881  0  0  -0.395742  -0.459452  0  3.12949  0
N  N66  1  0.91205599  0.55396442  0.89800708  1  0  -0.531143  0  2.872512  0  0  -0.473902  0  3.13633  0  0  -0.496263  0  3.146111  0  0  -0.395742  -0.459423  0  3.129723  0
N  N67  1  0.58793122  0.94602679  0.39799985  1  0  -0.531141  0  2.872267  0  0  -0.473893  0  3.13609  0  0  -0.496249  0  3.145877  0  0  -0.395757  -0.459417  0  3.129477  0
O  O68  1  0.20750077  0.20152802  0.15364910  1  0  -0.49899  0  1.818403  0  0  -0.463266  0  2.072247  0  0  -0.485691  0  2.07046  0  0  -0.224042  -0.447335  0  2.072871  0
O  O69  1  0.29250146  0.29847172  0.65364474  1  0  -0.499099  0  1.818445  0  0  -0.463378  0  2.072304  0  0  -0.485813  0  2.070522  0  0  -0.224138  -0.447442  0  2.072923  0
O  O70  1  0.79248809  0.79847100  0.84634970  1  0  -0.499136  0  1.818646  0  0  -0.463325  0  2.072403  0  0  -0.485756  0  2.070622  0  0  -0.224066  -0.447393  0  2.073023  0
O  O71  1  0.70750556  0.70152927  0.34635266  1  0  -0.49901  0  1.818556  0  0  -0.46327  0  2.072361  0  0  -0.485697  0  2.070579  0  0  -0.224069  -0.44733  0  2.072974  0
O  O72  1  0.23502219  0.73787269  0.30172553  1  0  -0.504096  0  1.799585  0  0  -0.465897  0  2.050321  0  0  -0.488173  0  2.048134  0  0  -0.229152  -0.449783  0  2.051241  0
O  O73  1  0.26496751  0.76212514  0.80172481  1  0  -0.504135  0  1.799814  0  0  -0.465895  0  2.050512  0  0  -0.488173  0  2.048325  0  0  -0.229134  -0.449783  0  2.051427  0
O  O74  1  0.76497960  0.26213116  0.69827746  1  0  -0.504055  0  1.799658  0  0  -0.465846  0  2.05037  0  0  -0.488123  0  2.048181  0  0  -0.229103  -0.449733  0  2.051287  0
O  O75  1  0.73502635  0.23787007  0.19828167  1  0  -0.504079  0  1.799745  0  0  -0.465857  0  2.05045  0  0  -0.48813  0  2.048258  0  0  -0.229127  -0.449746  0  2.051369  0
