# generated using pymatgen
data_Zn8H40C75(Br3O13)2
_symmetry_space_group_name_H-M   'P 1'
_cell_length_a   18.32549078
_cell_length_b   18.32437690
_cell_length_c   18.36357605
_cell_angle_alpha   119.62428692
_cell_angle_beta   90.25455569
_cell_angle_gamma   119.84811406
_symmetry_Int_Tables_number   1
_chemical_formula_structural   Zn8H40C75(Br3O13)2
_chemical_formula_sum   'Zn8 H40 C75 Br6 O26'
_cell_volume   4385.38093766
_cell_formula_units_Z   1
loop_
 _symmetry_equiv_pos_site_id
 _symmetry_equiv_pos_as_xyz
  1  'x, y, z'
loop_
 _atom_site_type_symbol
 _atom_site_label
 _atom_site_symmetry_multiplicity
 _atom_site_fract_x
 _atom_site_fract_y
 _atom_site_fract_z
 _atom_site_occupancy
 _atom_site_pbe_bader_charge
 _atom_site_pbe_bader_spin_density
 _atom_site_pbe_cm5_charge
 _atom_site_pbe_ddec_charge
 _atom_site_pbe_ddec_spin_density
 _atom_site_pbe_ddec_sum_bond_order
 _atom_site_pbe_magmom
Zn  Zn0  1  0.45875047  0.41090022  0.54312775  1  1.319733  0  0.671125  0.962346  0  2.378004  0
Zn  Zn1  1  0.45827144  0.58853465  0.54544155  1  1.302265  0  0.672302  0.962216  0  2.368319  0
Zn  Zn2  1  0.45604355  0.41667049  0.37106473  1  1.31236  0  0.672992  0.968705  0  2.365575  0
Zn  Zn3  1  0.63230751  0.58553788  0.54653438  1  1.316882  0  0.670949  0.959569  0  2.372966  0
Zn  Zn4  1  0.04575020  0.58961540  0.95703046  1  1.310825  0  0.668376  0.95423  0  2.383916  0
Zn  Zn5  1  0.04528630  0.58756930  0.12997056  1  1.295791  0  0.675031  0.968095  0  2.353229  0
Zn  Zn6  1  0.04319979  0.41316806  0.95383491  1  1.30369  0  0.670179  0.955107  0  2.402728  0
Zn  Zn7  1  0.86849833  0.41130547  0.95488098  1  1.303307  0  0.669495  0.964328  0  2.359835  0
H  H8  1  0.72472648  0.33337056  0.67994802  1  0.079871  0  0.101488  0.088109  0  0.989287  0
H  H9  1  0.88095642  0.90434768  0.51167714  1  0.049478  0  0.097665  0.098847  0  1.01778  0
H  H10  1  0.94241856  0.19024189  0.73546723  1  0.042362  0  0.097813  0.109386  0  1.036565  0
H  H11  1  0.71033537  0.09537828  0.86021764  1  0.089491  0  0.109533  0.114911  0  0.985779  0
H  H12  1  0.36718618  0.48925299  0.21906376  1  0.096992  0  0.110431  0.116508  0  0.984949  0
H  H13  1  0.23936841  0.50520043  0.44984566  1  0.112619  0  0.100316  0.117742  0  1.039228  0
H  H14  1  0.90888823  0.63027074  0.78359033  1  0.075726  0  0.10229  0.094599  0  0.986912  0
H  H15  1  0.27004704  0.48605854  0.11977069  1  0.07286  0  0.11067  0.117067  0  0.98275  0
H  H16  1  0.54848324  0.75694281  0.96992413  1  0.061505  0  0.100186  0.09845  0  1.002589  0
H  H17  1  0.44549769  0.74840565  0.05748828  1  0.038786  0  0.103119  0.099704  0  0.990749  0
H  H18  1  0.28224447  0.63016029  0.98031269  1  0.054924  0  0.100453  0.102354  0  1.012989  0
H  H19  1  0.03109228  0.80594732  0.08725841  1  0.099598  0  0.104352  0.123354  0  1.00892  0
H  H20  1  0.77942149  0.67201716  0.82673830  1  0.093189  0  0.095198  0.085144  0  0.999995  0
H  H21  1  0.72255572  0.54892565  0.89430475  1  0.088065  0  0.100427  0.088374  0  0.990321  0
H  H22  1  0.59509792  0.37522101  0.72327809  1  0.085387  0  0.103173  0.094609  0  0.985375  0
H  H23  1  0.39211670  0.10045175  0.36076471  1  0.114527  0  0.111748  0.129594  0  0.985886  0
H  H24  1  0.21622982  0.18822473  0.27295104  1  0.082121  0  0.106716  0.116202  0  1.007913  0
H  H25  1  0.06521136  0.08858667  0.16966129  1  0.099296  0  0.109052  0.122044  0  0.981568  0
H  H26  1  0.01133728  0.06090954  0.54651051  1  0.052034  0  0.09222  0.127902  0  1.000386  0
H  H27  1  0.97680779  0.14134883  0.56452200  1  0.042091  0  0.090859  0.125936  0  1.006571  0
H  H28  1  0.05557007  0.17732014  0.65305151  1  0.074548  0  0.096896  0.138899  0  0.982527  0
H  H29  1  0.15224504  0.50569449  0.53975195  1  0.056571  0  0.088893  0.133425  0  1.00782  0
H  H30  1  0.68693389  0.66643006  0.37824523  1  0.074227  0  0.106424  0.110612  0  0.999138  0
H  H31  1  0.08021603  0.54133906  0.52886905  1  0.042475  0  0.09296  0.137487  0  0.985937  0
H  H32  1  0.03564367  0.41105775  0.48082425  1  0.068587  0  0.084574  0.122264  0  1.013779  0
H  H33  1  0.97188865  0.44651657  0.19924885  1  0.059098  0  0.088957  0.134636  0  1.018002  0
H  H34  1  0.99739095  0.36029280  0.12512937  1  0.069485  0  0.092334  0.13195  0  1.011168  0
H  H35  1  0.92390433  0.32594321  0.18213937  1  0.061906  0  0.084525  0.125695  0  1.019522  0
H  H36  1  0.58318653  0.71633044  0.84904111  1  0.034621  0  0.092821  0.128152  0  0.999049  0
H  H37  1  0.51343134  0.58658518  0.75637323  1  0.016212  0  0.091321  0.135369  0  1.012072  0
H  H38  1  0.51098958  0.68244684  0.75665418  1  0.041767  0  0.090924  0.134911  0  1.013898  0
H  H39  1  0.03787632  0.42568033  0.69190515  1  0.032267  0  0.098938  0.144821  0  0.973679  0
H  H40  1  0.03886032  0.32719704  0.59879952  1  0.025819  0  0.083263  0.121495  0  1.048501  0
H  H41  1  0.76558316  0.80942492  0.36158162  1  0.073982  0  0.108146  0.118762  0  0.992382  0
H  H42  1  0.02648225  0.32464321  0.69360726  1  0.021621  0  0.095333  0.135859  0  1.003776  0
H  H43  1  0.88834912  0.67450869  0.19628248  1  0.084585  0  0.105945  0.125753  0  1.002076  0
H  H44  1  0.76482383  0.35728653  0.16890253  1  0.108988  0  0.110292  0.127442  0  0.985329  0
H  H45  1  0.61581121  0.90359395  0.76699986  1  0.095793  0  0.109513  0.115738  0  0.987182  0
H  H46  1  0.78159018  0.45661617  0.61251607  1  0.055957  0  0.101438  0.088891  0  0.989646  0
H  H47  1  0.75598634  0.80915731  0.54947614  1  0.084707  0  0.098235  0.105853  0  1.039327  0
C  C48  1  0.64065630  0.77713609  0.63635855  1  1.567008  0  0.230842  0.611186  0  4.156864  0
C  C49  1  0.07210624  0.88943990  0.12882213  1  0.028035  0  -0.098314  -0.191054  0  3.958119  0
C  C50  1  0.15856650  0.94503520  0.18831188  1  -0.005346  0  0.006899  0.089499  0  3.941788  0
C  C51  1  0.35853954  0.22455750  0.36098401  1  1.578526  0  0.23321  0.61353  0  4.157342  0
C  C52  1  0.21196798  0.05524687  0.24186083  1  0.043052  0  0.001673  0.053784  0  3.949479  0
C  C53  1  0.29736719  0.10972748  0.30359574  1  0.019187  0  -0.003912  -0.047271  0  3.925833  0
C  C54  1  0.32750962  0.05776949  0.31238435  1  -0.00136  0  -0.086474  -0.14915  0  3.981064  0
C  C55  1  0.27550316  0.94988555  0.25790450  1  -0.065972  0  -0.009454  0.097775  0  3.971574  0
C  C56  1  0.19257400  0.89322084  0.19663763  1  0.047755  0  -0.011154  -0.111206  0  3.910406  0
C  C57  1  0.73054758  0.66716982  0.33802889  1  -0.047695  0  -0.082605  -0.104875  0  3.958811  0
C  C58  1  0.77444527  0.74749308  0.32917650  1  -0.022096  0  -0.093952  -0.13691  0  4.018396  0
C  C59  1  0.83898581  0.57371126  0.76973697  1  -0.029854  0  -0.077773  -0.070285  0  3.645861  0
C  C60  1  0.83164178  0.74905259  0.27777444  1  -0.105611  0  -0.017073  0.118303  0  4.00111  0
C  C61  1  0.84343325  0.67127866  0.23500532  1  0.040474  0  -0.094483  -0.183464  0  3.952005  0
C  C62  1  0.79774938  0.58718159  0.24228332  1  0.048165  0  0.003836  0.0733  0  3.955058  0
C  C63  1  0.36460416  0.49801573  0.64002444  1  1.594828  0  0.22508  0.620354  0  4.209478  0
C  C64  1  0.74092044  0.58540122  0.29582758  1  0.018829  0  0.002648  0.068654  0  3.952001  0
C  C65  1  0.69615484  0.50195496  0.30473034  1  0.054343  0  -0.012658  -0.11271  0  3.92326  0
C  C66  1  0.70673811  0.42307343  0.26019649  1  -0.096065  0  -0.012216  0.09461  0  3.973807  0
C  C67  1  0.75927332  0.42163904  0.20439754  1  0.035255  0  -0.088541  -0.154684  0  3.991068  0
C  C68  1  0.80455861  0.50246485  0.19620415  1  -0.004542  0  -0.003819  -0.045768  0  3.928136  0
C  C69  1  0.79538913  0.89248481  0.58994963  1  -0.021786  0  -0.095828  -0.130518  0  4.005283  0
C  C70  1  0.76794285  0.59688455  0.79493174  1  -0.034443  0  -0.072181  -0.063081  0  3.630028  0
C  C71  1  0.86592668  0.94619420  0.56914070  1  -0.096202  0  -0.093786  -0.139214  0  3.992789  0
C  C72  1  0.91985136  0.05479235  0.62086134  1  0.062982  0  -0.007745  0.179065  0  3.995082  0
C  C73  1  0.90063747  0.10671083  0.69422033  1  -0.004722  0  -0.097358  -0.202478  0  3.930444  0
C  C74  1  0.82818174  0.05461865  0.71784201  1  -0.071464  0  0.001696  0.069322  0  3.957627  0
C  C75  1  0.63841445  0.50124430  0.36266410  1  1.594198  0  0.226243  0.618543  0  4.197823  0
C  C76  1  0.77352489  0.94401009  0.66411486  1  0.036532  0  -0.000415  0.056184  0  3.947075  0
C  C77  1  0.69791280  0.89132995  0.68541516  1  -0.031042  0  -0.009191  -0.069341  0  3.930159  0
C  C78  1  0.67498422  0.94558022  0.75358787  1  -0.050719  0  -0.083845  -0.097054  0  4.002064  0
C  C79  1  0.72806135  0.05323889  0.80590565  1  -0.00269  0  -0.082896  -0.095171  0  4.001706  0
C  C80  1  0.80446955  0.10739312  0.79058231  1  0.044453  0  -0.008359  -0.069611  0  3.928559  0
C  C81  1  0.73473112  0.52829994  0.83098479  1  -0.053736  0  -0.071007  -0.06256  0  3.626667  0
C  C82  1  0.19049287  0.48729635  0.39884782  1  -0.038575  0  -0.098042  -0.202122  0  3.949032  0
C  C83  1  0.11087856  0.47147367  0.41112379  1  0.012757  0  -0.013469  0.141469  0  4.013986  0
C  C84  1  0.04631946  0.44216019  0.34102004  1  -0.183811  0  -0.014679  -0.00725  0  3.868577  0
C  C85  1  0.06091832  0.43523259  0.26436536  1  0.078187  0  -0.010883  0.08853  0  3.937196  0
C  C86  1  0.14829683  0.46520001  0.25851308  1  0.042943  0  0.00171  0.006499  0  3.902074  0
C  C87  1  0.35688817  0.50255098  0.36647420  1  1.560695  0  0.231252  0.612631  0  4.156925  0
C  C88  1  0.21131637  0.48332661  0.32336297  1  0.009174  0  -0.000526  0.068971  0  3.983573  0
C  C89  1  0.29079214  0.49199571  0.30713369  1  -0.024782  0  -0.009052  -0.07021  0  3.923604  0
C  C90  1  0.30813730  0.48639656  0.23182454  1  -0.037701  0  -0.083508  -0.09406  0  4.006506  0
C  C91  1  0.25239315  0.48167783  0.17475490  1  0.010527  0  -0.083462  -0.099066  0  3.996295  0
C  C92  1  0.66502202  0.43167542  0.73706048  1  -0.009011  0  -0.076629  -0.067339  0  3.639031  0
C  C93  1  0.17543697  0.47439844  0.18880486  1  -0.029062  0  -0.00806  -0.057056  0  3.928279  0
C  C94  1  0.44682946  0.64309748  0.84299145  1  -0.036315  0  -0.004899  0.132464  0  3.916825  0
C  C95  1  0.47665701  0.70353677  0.93507048  1  0.012504  0  -0.09618  -0.152568  0  4.005635  0
C  C96  1  0.41845114  0.69912259  0.98510968  1  -0.013439  0  -0.094056  -0.076046  0  4.07935  0
C  C97  1  0.32787196  0.63325293  0.94222646  1  -0.068641  0  -0.094789  -0.138682  0  4.006504  0
C  C98  1  0.29286875  0.56929045  0.84801565  1  0.04321  0  -0.002046  0.064891  0  3.997418  0
C  C99  1  0.64013679  0.49928203  0.64272379  1  1.550478  0  0.228064  0.607587  0  4.176773  0
C  C100  1  0.35203465  0.57217646  0.79646590  1  0.044757  0  0.001814  0.010901  0  3.886202  0
C  C101  1  0.31110326  0.50272818  0.70196643  1  -0.094126  0  -0.016846  -0.109498  0  3.946917  0
C  C102  1  0.21903729  0.43796251  0.66291900  1  -0.00464  0  -0.011083  0.02671  0  3.906979  0
C  C103  1  0.69685677  0.49933403  0.70041832  1  -0.014274  0  -0.008401  -0.0324  0  3.649925  0
C  C104  1  0.15991855  0.43805385  0.71228592  1  0.006354  0  -0.009755  0.106524  0  3.982138  0
C  C105  1  0.19920301  0.50298851  0.80391427  1  0.01376  0  -0.009913  -0.120947  0  3.911841  0
C  C106  1  0.86189501  0.49979946  0.13813847  1  1.55587  0  0.235198  0.620528  0  4.161379  0
C  C107  1  0.13926349  0.50190758  0.85945442  1  1.542268  0  0.234942  0.628488  0  4.171783  0
C  C108  1  0.13781299  0.77820555  0.13894259  1  1.568644  0  0.226932  0.619204  0  4.192501  0
C  C109  1  0.86063074  0.22168649  0.85348750  1  1.514342  0  0.23054  0.612417  0  4.157559  0
C  C110  1  0.13047292  0.48855652  0.13377156  1  1.539869  0  0.228386  0.606114  0  4.183613  0
C  C111  1  0.76927786  0.47710987  0.67577945  1  -0.034878  0  -0.070256  -0.061034  0  3.621748  0
C  C112  1  0.86383830  0.50621262  0.86422226  1  1.534189  0  0.226769  0.608551  0  4.174111  0
C  C113  1  0.73606691  0.40845687  0.71183788  1  -0.024044  0  -0.070042  -0.061177  0  3.621923  0
C  C114  1  0.17602194  0.10480055  0.23337206  1  -0.040461  0  -0.08329  -0.103418  0  3.965119  0
C  C115  1  0.80712198  0.50596832  0.80630245  1  0.019855  0  -0.008798  -0.034647  0  3.65576  0
C  C116  1  0.99499285  0.11141464  0.59510090  1  -0.101641  0  -0.23554  -0.414759  0  3.96943  0
C  C117  1  0.09413487  0.48303303  0.49480363  1  -0.07468  0  -0.245469  -0.415549  0  3.99497  0
C  C118  1  0.98500762  0.39020154  0.18848097  1  -0.095036  0  -0.24884  -0.409863  0  3.98206  0
C  C119  1  0.51677184  0.65720532  0.79826941  1  -0.026817  0  -0.244351  -0.418081  0  3.965129  0
C  C120  1  0.06033718  0.37498722  0.67136910  1  0.011299  0  -0.242557  -0.4103  0  3.965256  0
C  C121  1  0.09189453  0.04956360  0.17547384  1  -0.047977  0  -0.095315  -0.136111  0  4.010842  0
C  C122  1  0.04053283  0.94134715  0.12325788  1  -0.077045  0  -0.015709  0.123494  0  4.001639  0
Br  Br123  1  0.92446841  0.86561449  0.04318146  1  -0.08258  0  0.00571  -0.094739  0  1.336079  0
Br  Br124  1  0.32538162  0.88476937  0.26898840  1  -0.051182  0  0.019563  -0.064047  0  1.330904  0
Br  Br125  1  0.65263101  0.31366821  0.27463991  1  -0.0629  0  0.01636  -0.067038  0  1.338657  0
Br  Br126  1  0.89362834  0.86160934  0.26781794  1  -0.073393  0  0.00797  -0.08868  0  1.35231  0
Br  Br127  1  0.93193193  0.40807173  0.35333555  1  -0.084925  0  0.023597  -0.077264  0  1.432778  0
Br  Br128  1  0.16994762  0.34278143  0.53591668  1  -0.066232  0  0.047609  -0.044988  0  1.449374  0
O  O129  1  0.50120364  0.50038103  0.50129731  1  -1.234126  0  -0.572275  -1.031198  0  2.53476  0
O  O130  1  0.94501414  0.26722826  0.87879274  1  -1.181617  0  -0.311094  -0.54176  0  2.359202  0
O  O131  1  0.11486589  0.55648716  0.17544297  1  -1.154559  0  -0.311103  -0.541147  0  2.343687  0
O  O132  1  0.67941574  0.73146831  0.61344054  1  -1.193615  0  -0.309703  -0.540695  0  2.360334  0
O  O133  1  0.82326615  0.44295602  0.88535036  1  -1.157931  0  -0.319826  -0.552389  0  2.313517  0
O  O134  1  0.11612867  0.43560708  0.05036979  1  -1.17006  0  -0.316498  -0.547785  0  2.342084  0
O  O135  1  0.94821890  0.56957745  0.88802342  1  -1.181492  0  -0.317601  -0.547635  0  2.333628  0
O  O136  1  0.12443632  0.73604296  0.05609603  1  -1.153929  0  -0.305845  -0.530337  0  2.322045  0
O  O137  1  0.81954162  0.26460330  0.87858889  1  -1.15945  0  -0.314713  -0.546758  0  2.321084  0
O  O138  1  0.94560356  0.56657096  0.17777681  1  -1.167439  0  -0.306022  -0.536998  0  2.323344  0
O  O139  1  0.11354831  0.43601786  0.87752186  1  -1.153124  0  -0.309411  -0.541797  0  2.31929  0
O  O140  1  0.38447427  0.43411354  0.61625671  1  -1.165507  0  -0.309068  -0.543572  0  2.350381  0
O  O141  1  0.39490550  0.26622006  0.44255875  1  -1.172459  0  -0.310925  -0.537913  0  2.318381  0
O  O142  1  0.38350786  0.55824804  0.61652065  1  -1.153178  0  -0.311496  -0.546091  0  2.351817  0
O  O143  1  0.55461882  0.44055611  0.32244890  1  -1.153936  0  -0.309418  -0.5393  0  2.330305  0
O  O144  1  0.37965209  0.56385663  0.45044733  1  -1.169748  0  -0.307415  -0.535118  0  2.342264  0
O  O145  1  0.68097709  0.55954429  0.61859093  1  -1.165225  0  -0.319476  -0.548693  0  2.315537  0
O  O146  1  0.38675869  0.44885040  0.32659183  1  -1.164144  0  -0.316753  -0.55041  0  2.336376  0
O  O147  1  0.55580585  0.43971470  0.62210869  1  -1.183167  0  -0.31452  -0.545516  0  2.333904  0
O  O148  1  0.67900822  0.56238142  0.44594742  1  -1.153394  0  -0.305689  -0.534406  0  2.319026  0
O  O149  1  0.55695096  0.73430330  0.62276456  1  -1.174933  0  -0.315127  -0.548549  0  2.333551  0
O  O150  1  0.37046255  0.27056702  0.32342863  1  -1.170387  0  -0.306683  -0.539838  0  2.336385  0
O  O151  1  0.00008095  0.50089014  0.99952875  1  -1.202203  0  -0.572621  -1.032512  0  2.5359  0
O  O152  1  0.82188132  0.43087879  0.05520359  1  -1.163718  0  -0.309568  -0.537101  0  2.298627  0
O  O153  1  0.11953482  0.56598049  0.88315250  1  -1.160505  0  -0.305622  -0.534241  0  2.311304  0
O  O154  1  0.10901883  0.73379206  0.17815525  1  -1.160937  0  -0.308481  -0.536423  0  2.347571  0
