# generated using pymatgen
data_CdP2H16C13Cl2O9
_symmetry_space_group_name_H-M   'P 1'
_cell_length_a   5.76968560
_cell_length_b   9.12512198
_cell_length_c   18.76043281
_cell_angle_alpha   90.00004499
_cell_angle_beta   90.72713517
_cell_angle_gamma   90.00005098
_symmetry_Int_Tables_number   1
_chemical_formula_structural   CdP2H16C13Cl2O9
_chemical_formula_sum   'Cd2 P4 H32 C26 Cl4 O18'
_cell_volume   987.64008026
_cell_formula_units_Z   2
loop_
 _symmetry_equiv_pos_site_id
 _symmetry_equiv_pos_as_xyz
  1  'x, y, z'
loop_
 _atom_site_type_symbol
 _atom_site_label
 _atom_site_symmetry_multiplicity
 _atom_site_fract_x
 _atom_site_fract_y
 _atom_site_fract_z
 _atom_site_occupancy
 _atom_site_hle17_bader_spin_density
 _atom_site_hle17_ddec_charge
 _atom_site_hle17_ddec_spin_density
 _atom_site_hle17_ddec_sum_bond_order
 _atom_site_hle17_magmom
 _atom_site_hse06_10hf_bader_spin_density
 _atom_site_hse06_10hf_ddec_charge
 _atom_site_hse06_10hf_ddec_spin_density
 _atom_site_hse06_10hf_ddec_sum_bond_order
 _atom_site_hse06_10hf_magmom
 _atom_site_hse06_bader_spin_density
 _atom_site_hse06_ddec_charge
 _atom_site_hse06_ddec_spin_density
 _atom_site_hse06_ddec_sum_bond_order
 _atom_site_hse06_magmom
 _atom_site_pbe_bader_spin_density
 _atom_site_pbe_cm5_charge
 _atom_site_pbe_ddec_charge
 _atom_site_pbe_ddec_spin_density
 _atom_site_pbe_ddec_sum_bond_order
 _atom_site_pbe_magmom
Cd  Cd0  1  0.78786185  0.23793499  0.51100937  1  0  1.342842  0  1.551453  0  0  1.180522  0  1.991515  0  0  1.231191  0  1.933196  0  0  0.783042  1.142396  0  2.03387  0
Cd  Cd1  1  0.21214197  0.73793250  0.48899160  1  0  1.342836  0  1.551459  0  0  1.180507  0  1.991517  0  0  1.231184  0  1.933197  0  0  0.783042  1.142382  0  2.033871  0
P  P2  1  0.29673421  0.40637757  0.57324526  1  0  1.443883  0  4.993863  0  0  1.271344  0  5.493972  0  0  1.32318  0  5.459873  0  0  0.311562  1.234877  0  5.516072  0
P  P3  1  0.70326638  0.90637638  0.42675469  1  0  1.443904  0  4.99373  0  0  1.271381  0  5.493828  0  0  1.323209  0  5.459731  0  0  0.311593  1.234921  0  5.515933  0
P  P4  1  0.27185891  0.29366905  0.73015764  1  0  1.362001  0  4.622832  0  0  1.191148  0  5.131742  0  0  1.24282  0  5.093328  0  0  0.407718  1.155249  0  5.157657  0
P  P5  1  0.72814673  0.79366654  0.26984228  1  0  1.361978  0  4.622848  0  0  1.191158  0  5.131772  0  0  1.242843  0  5.093355  0  0  0.407707  1.15526  0  5.157694  0
H  H6  1  0.77462019  0.00933210  0.61960469  1  0  0.442431  0  0.796403  0  0  0.423916  0  0.848284  0  0  0.431972  0  0.839686  0  0  0.328218  0.417905  0  0.854893  0
H  H7  1  0.22537989  0.50933273  0.38039510  1  0  0.442326  0  0.79656  0  0  0.42382  0  0.848418  0  0  0.431877  0  0.839821  0  0  0.328176  0.41781  0  0.855021  0
H  H8  1  0.93770311  0.13579952  0.65088404  1  0  0.451186  0  0.842016  0  0  0.416057  0  0.91126  0  0  0.426905  0  0.89559  0  0  0.298054  0.408414  0  0.922287  0
H  H9  1  0.06229887  0.63580001  0.34911528  1  0  0.451172  0  0.842036  0  0  0.416041  0  0.911284  0  0  0.426893  0  0.89561  0  0  0.298034  0.408396  0  0.922315  0
H  H10  1  0.09471970  0.07458786  0.43516803  1  0  0.419367  0  0.893272  0  0  0.385964  0  0.962803  0  0  0.396172  0  0.948029  0  0  0.280298  0.378587  0  0.973448  0
H  H11  1  0.90527873  0.57458920  0.56483124  1  0  0.419378  0  0.893261  0  0  0.385974  0  0.962796  0  0  0.396182  0  0.94802  0  0  0.280306  0.378596  0  0.973442  0
H  H12  1  0.25074123  0.18921764  0.47833931  1  0  0.42706  0  0.865603  0  0  0.399148  0  0.931066  0  0  0.409338  0  0.91618  0  0  0.291738  0.391794  0  0.941849  0
H  H13  1  0.74925735  0.68921553  0.52166001  1  0  0.42703  0  0.86563  0  0  0.399113  0  0.931118  0  0  0.409304  0  0.916229  0  0  0.291724  0.391759  0  0.941901  0
H  H14  1  0.58880373  0.48598747  0.46205882  1  0  0.424904  0  0.879668  0  0  0.394278  0  0.943412  0  0  0.404874  0  0.92798  0  0  0.288382  0.386236  0  0.955338  0
H  H15  1  0.41119696  0.98598846  0.53794116  1  0  0.424875  0  0.879697  0  0  0.394293  0  0.943376  0  0  0.40487  0  0.927962  0  0  0.288394  0.386252  0  0.9553  0
H  H16  1  0.82194815  0.47958759  0.41719944  1  0  0.428746  0  0.863537  0  0  0.400672  0  0.921903  0  0  0.410703  0  0.907349  0  0  0.289755  0.393323  0  0.932755  0
H  H17  1  0.17805253  0.97958960  0.58280001  1  0  0.428759  0  0.86351  0  0  0.400678  0  0.921889  0  0  0.410711  0  0.907331  0  0  0.28977  0.393331  0  0.932738  0
H  H18  1  0.19225924  0.94589045  0.74064237  1  0  0.123349  0  0.936424  0  0  0.133942  0  0.993105  0  0  0.137602  0  0.991243  0  0  0.108896  0.131285  0  0.994918  0
H  H19  1  0.80774314  0.44588271  0.25935654  1  0  0.123338  0  0.936424  0  0  0.133934  0  0.993101  0  0  0.137594  0  0.991238  0  0  0.108889  0.131274  0  0.994918  0
H  H20  1  0.25206748  0.75084548  0.83266600  1  0  0.08546  0  0.95761  0  0  0.095452  0  1.018167  0  0  0.098032  0  1.017303  0  0  0.094308  0.093787  0  1.018613  0
H  H21  1  0.74791386  0.25083865  0.16733166  1  0  0.085541  0  0.957484  0  0  0.095497  0  1.018084  0  0  0.098077  0  1.01722  0  0  0.09431  0.093822  0  1.01854  0
H  H22  1  0.59552259  0.76140551  0.91446631  1  0  0.078359  0  0.973408  0  0  0.089614  0  1.036079  0  0  0.092027  0  1.035041  0  0  0.094709  0.087824  0  1.037013  0
H  H23  1  0.40446395  0.26140272  0.08553298  1  0  0.078372  0  0.973414  0  0  0.08957  0  1.036156  0  0  0.091982  0  1.035122  0  0  0.094714  0.087785  0  1.037088  0
H  H24  1  0.87610568  0.96758146  0.90543361  1  0  0.083846  0  0.971096  0  0  0.09274  0  1.035381  0  0  0.094672  0  1.036303  0  0  0.094924  0.091383  0  1.034719  0
H  H25  1  0.12388633  0.46758071  0.09456525  1  0  0.083801  0  0.971081  0  0  0.092697  0  1.03537  0  0  0.094635  0  1.036277  0  0  0.094914  0.091341  0  1.034708  0
H  H26  1  0.81227220  0.16330828  0.81337234  1  0  0.126411  0  0.972827  0  0  0.132439  0  1.038867  0  0  0.135264  0  1.038627  0  0  0.104098  0.130269  0  1.03944  0
H  H27  1  0.18773154  0.66330860  0.18662753  1  0  0.126446  0  0.972817  0  0  0.132481  0  1.038839  0  0  0.135306  0  1.038598  0  0  0.104101  0.130311  0  1.039414  0
H  H28  1  0.92561953  0.51325761  0.81364257  1  0  0.105529  0  0.986224  0  0  0.108026  0  1.061288  0  0  0.111678  0  1.059056  0  0  0.094302  0.105583  0  1.062675  0
H  H29  1  0.07437708  0.01326684  0.18635774  1  0  0.105582  0  0.98624  0  0  0.108081  0  1.061292  0  0  0.111734  0  1.05906  0  0  0.094344  0.105639  0  1.06268  0
H  H30  1  0.63914853  0.50406649  0.91197359  1  0  0.089852  0  0.940472  0  0  0.104155  0  0.992562  0  0  0.106701  0  0.991594  0  0  0.101881  0.10224  0  0.993511  0
H  H31  1  0.36084980  0.00407136  0.08802672  1  0  0.089918  0  0.940478  0  0  0.104224  0  0.992563  0  0  0.106772  0  0.991592  0  0  0.101922  0.102308  0  0.993514  0
H  H32  1  0.70956203  0.34182361  0.01668779  1  0  0.083577  0  0.986667  0  0  0.093218  0  1.05115  0  0  0.095707  0  1.050748  0  0  0.094603  0.091458  0  1.051423  0
H  H33  1  0.29044192  0.84182521  0.98331375  1  0  0.083564  0  0.986662  0  0  0.0932  0  1.051155  0  0  0.095689  0  1.050753  0  0  0.094614  0.09144  0  1.051427  0
H  H34  1  0.34286285  0.18830186  0.92048000  1  0  0.114819  0  0.948321  0  0  0.124195  0  1.010245  0  0  0.126808  0  1.010623  0  0  0.106459  0.122365  0  1.009988  0
H  H35  1  0.65714434  0.68830010  0.07952363  1  0  0.114778  0  0.948244  0  0  0.124157  0  1.010205  0  0  0.126769  0  1.010586  0  0  0.106437  0.122332  0  1.009928  0
H  H36  1  0.05786401  0.18079104  0.02048605  1  0  0.080362  0  0.976359  0  0  0.091004  0  1.037225  0  0  0.092964  0  1.037446  0  0  0.096187  0.089482  0  1.037386  0
H  H37  1  0.94214320  0.68078537  0.97951545  1  0  0.080398  0  0.976339  0  0  0.091048  0  1.037187  0  0  0.093008  0  1.037408  0  0  0.096199  0.089525  0  1.03735  0
C  C38  1  0.35847856  0.44474866  0.67070802  1  0  -0.311133  0  3.561604  0  0  -0.264028  0  3.836136  0  0  -0.271752  0  3.841006  0  0  0.034886  -0.259094  0  3.833126  0
C  C39  1  0.64152380  0.94474837  0.32929248  1  0  -0.311071  0  3.561468  0  0  -0.263961  0  3.835966  0  0  -0.271685  0  3.840836  0  0  0.034875  -0.25906  0  3.833015  0
C  C40  1  0.50018231  0.06366127  0.77338057  1  0  0.295628  0  3.741275  0  0  0.289508  0  3.997974  0  0  0.29828  0  4.013787  0  0  0.085602  0.283325  0  3.987301  0
C  C41  1  0.49981439  0.56365964  0.22661709  1  0  0.295546  0  3.741402  0  0  0.289483  0  3.998062  0  0  0.298265  0  4.013862  0  0  0.08558  0.283299  0  3.98739  0
C  C42  1  0.34009062  0.94956390  0.77725363  1  0  -0.17462  0  3.735863  0  0  -0.198471  0  3.988354  0  0  -0.202578  0  4.00809  0  0  -0.098233  -0.195831  0  3.975645  0
C  C43  1  0.65991178  0.44955930  0.22274422  1  0  -0.174553  0  3.735961  0  0  -0.198403  0  3.988406  0  0  -0.202508  0  4.008137  0  0  -0.098197  -0.195761  0  3.975692  0
C  C44  1  0.37517458  0.84104376  0.82888257  1  0  -0.054722  0  3.797648  0  0  -0.0674  0  4.049707  0  0  -0.068911  0  4.072168  0  0  -0.09432  -0.066412  0  4.034368  0
C  C45  1  0.62481378  0.34104015  0.17111782  1  0  -0.054728  0  3.797844  0  0  -0.067377  0  4.049869  0  0  -0.068888  0  4.072329  0  0  -0.094283  -0.066381  0  4.034534  0
C  C46  1  0.56777747  0.84689912  0.87466173  1  0  -0.100505  0  3.809805  0  0  -0.114852  0  4.056462  0  0  -0.117711  0  4.079127  0  0  -0.103792  -0.112874  0  4.040845  0
C  C47  1  0.43221265  0.34689751  0.12533708  1  0  -0.100643  0  3.810012  0  0  -0.114951  0  4.056693  0  0  -0.11781  0  4.079363  0  0  -0.103892  -0.112976  0  4.041078  0
C  C48  1  0.72612324  0.96219296  0.86960758  1  0  -0.062099  0  3.794645  0  0  -0.069993  0  4.037313  0  0  -0.072154  0  4.060491  0  0  -0.094408  -0.068145  0  4.02118  0
C  C49  1  0.27386703  0.46218798  0.13039128  1  0  -0.06194  0  3.794687  0  0  -0.069821  0  4.037334  0  0  -0.071982  0  4.060519  0  0  -0.094359  -0.067975  0  4.021203  0
C  C50  1  0.69241588  0.07222673  0.81885034  1  0  -0.16102  0  3.716718  0  0  -0.185268  0  3.96797  0  0  -0.188708  0  3.987509  0  0  -0.09901  -0.182836  0  3.954766  0
C  C51  1  0.30758253  0.57222601  0.18115000  1  0  -0.161167  0  3.716905  0  0  -0.185428  0  3.968152  0  0  -0.18887  0  3.987689  0  0  -0.099046  -0.182996  0  3.954951  0
C  C52  1  0.14956693  0.35298010  0.86321525  1  0  0.306905  0  3.768107  0  0  0.300948  0  4.023041  0  0  0.310049  0  4.039922  0  0  0.087864  0.294644  0  4.011685  0
C  C53  1  0.85043704  0.85298403  0.13678576  1  0  0.306877  0  3.768137  0  0  0.300972  0  4.023012  0  0  0.310074  0  4.039893  0  0  0.087875  0.294666  0  4.01166  0
C  C54  1  0.95469277  0.44309093  0.85978834  1  0  -0.180895  0  3.74692  0  0  -0.205726  0  4.003467  0  0  -0.209942  0  4.02233  0  0  -0.100292  -0.2029  0  3.990779  0
C  C55  1  0.04530958  0.94309656  0.14021269  1  0  -0.180972  0  3.746993  0  0  -0.205825  0  4.003541  0  0  -0.210042  0  4.022406  0  0  -0.100358  -0.203001  0  3.990858  0
C  C56  1  0.79561020  0.43726963  0.91517809  1  0  -0.040973  0  3.774656  0  0  -0.052975  0  4.026288  0  0  -0.05341  0  4.046565  0  0  -0.08766  -0.052517  0  4.01253  0
C  C57  1  0.20438870  0.93727527  0.08482133  1  0  -0.041075  0  3.774858  0  0  -0.053077  0  4.026488  0  0  -0.053514  0  4.046766  0  0  -0.087694  -0.05262  0  4.012732  0
C  C58  1  0.83337365  0.34455312  0.97337185  1  0  -0.093035  0  3.784649  0  0  -0.109194  0  4.03303  0  0  -0.111867  0  4.054403  0  0  -0.098691  -0.107185  0  4.018174  0
C  C59  1  0.16663030  0.84455207  0.02663023  1  0  -0.092952  0  3.784681  0  0  -0.109105  0  4.033055  0  0  -0.111777  0  4.054428  0  0  -0.098731  -0.107097  0  4.018197  0
C  C60  1  0.18986143  0.25846526  0.92042951  1  0  -0.174278  0  3.725484  0  0  -0.194466  0  3.971274  0  0  -0.199063  0  3.99179  0  0  -0.096248  -0.191459  0  3.957364  0
C  C61  1  0.81014588  0.75846469  0.07957202  1  0  -0.174193  0  3.725461  0  0  -0.194411  0  3.971235  0  0  -0.199009  0  3.991752  0  0  -0.096223  -0.191401  0  3.957329  0
C  C62  1  0.03009805  0.25535406  0.97578018  1  0  -0.054055  0  3.789351  0  0  -0.061262  0  4.030998  0  0  -0.062242  0  4.052649  0  0  -0.090012  -0.060404  0  4.016195  0
C  C63  1  0.96990232  0.75535461  0.02422131  1  0  -0.054145  0  3.789343  0  0  -0.06136  0  4.030998  0  0  -0.06234  0  4.052648  0  0  -0.089994  -0.060503  0  4.016195  0
Cl  Cl64  1  0.65435887  0.48458055  0.68477433  1  0  0.003547  0  1.520452  0  0  0.005383  0  1.780055  0  0  0.004994  0  1.771453  0  0  0.023698  0.005937  0  1.786064  0
Cl  Cl65  1  0.34564354  0.98457897  0.31522673  1  0  0.003538  0  1.520406  0  0  0.005375  0  1.779998  0  0  0.004986  0  1.771394  0  0  0.023702  0.005935  0  1.78602  0
Cl  Cl66  1  0.18459203  0.59893177  0.69590164  1  0  -0.020156  0  1.417457  0  0  0.003617  0  1.653884  0  0  0.001386  0  1.645497  0  0  0.034  0.005115  0  1.660531  0
Cl  Cl67  1  0.81541335  0.09892738  0.30409874  1  0  -0.020187  0  1.417488  0  0  0.003594  0  1.653903  0  0  0.001361  0  1.645518  0  0  0.034005  0.005099  0  1.660561  0
O  O68  1  0.90500151  0.07272197  0.60810301  1  0  -0.830544  0  1.830892  0  0  -0.764454  0  2.015257  0  0  -0.786091  0  1.985696  0  0  -0.553118  -0.748907  0  2.036401  0
O  O69  1  0.09499691  0.57272254  0.39189680  1  0  -0.830418  0  1.831018  0  0  -0.764344  0  2.015401  0  0  -0.785983  0  1.985834  0  0  -0.55306  -0.748795  0  2.036542  0
O  O70  1  0.11398375  0.18048345  0.44642972  1  0  -0.858596  0  1.896642  0  0  -0.800889  0  2.093031  0  0  -0.823817  0  2.060835  0  0  -0.598186  -0.784644  0  2.116196  0
O  O71  1  0.88601655  0.68048476  0.55356961  1  0  -0.85858  0  1.896633  0  0  -0.800859  0  2.09301  0  0  -0.823784  0  2.060806  0  0  -0.598183  -0.784614  0  2.116174  0
O  O72  1  0.68338408  0.42248805  0.43070497  1  0  -0.836785  0  1.826722  0  0  -0.778849  0  2.007092  0  0  -0.800948  0  1.973926  0  0  -0.591155  -0.762435  0  2.03241  0
O  O73  1  0.31661826  0.92248903  0.56929500  1  0  -0.836781  0  1.82673  0  0  -0.778876  0  2.007049  0  0  -0.800955  0  1.973934  0  0  -0.591186  -0.762463  0  2.032365  0
O  O74  1  0.42015729  0.26151926  0.55793689  1  0  -0.859092  0  1.98423  0  0  -0.768658  0  2.250354  0  0  -0.798325  0  2.230733  0  0  -0.379055  -0.747358  0  2.265141  0
O  O75  1  0.57984139  0.76151801  0.44206193  1  0  -0.859112  0  1.984259  0  0  -0.76867  0  2.250373  0  0  -0.798336  0  2.230755  0  0  -0.379059  -0.74737  0  2.265159  0
O  O76  1  0.40066159  0.53610515  0.53294516  1  0  -0.878052  0  2.046946  0  0  -0.781802  0  2.311106  0  0  -0.811666  0  2.291286  0  0  -0.38102  -0.759466  0  2.324632  0
O  O77  1  0.59933851  0.03610417  0.46705464  1  0  -0.878063  0  2.046831  0  0  -0.781868  0  2.311035  0  0  -0.811702  0  2.291191  0  0  -0.381048  -0.759531  0  2.324559  0
O  O78  1  0.03227926  0.39842690  0.56855768  1  0  -0.887971  0  2.078077  0  0  -0.794944  0  2.349598  0  0  -0.824943  0  2.330055  0  0  -0.384133  -0.772662  0  2.36164  0
O  O79  1  0.96772131  0.89842479  0.43144227  1  0  -0.887966  0  2.078066  0  0  -0.794932  0  2.349567  0  0  -0.824934  0  2.330032  0  0  -0.384133  -0.772646  0  2.361596  0
O  O80  1  0.47326303  0.17516439  0.72140758  1  0  -0.475158  0  2.296074  0  0  -0.395323  0  2.541982  0  0  -0.414504  0  2.533361  0  0  -0.174523  -0.381605  0  2.547291  0
O  O81  1  0.52673900  0.67516067  0.27859122  1  0  -0.475076  0  2.296052  0  0  -0.395315  0  2.54198  0  0  -0.41452  0  2.533386  0  0  -0.174477  -0.381599  0  2.547292  0
O  O82  1  0.31541347  0.35745348  0.80908433  1  0  -0.504518  0  2.334439  0  0  -0.425648  0  2.584618  0  0  -0.446197  0  2.578016  0  0  -0.182678  -0.411155  0  2.588416  0
O  O83  1  0.68459051  0.85745520  0.19091669  1  0  -0.50451  0  2.334444  0  0  -0.42565  0  2.584603  0  0  -0.446202  0  2.577998  0  0  -0.182727  -0.41115  0  2.588387  0
O  O84  1  0.03306501  0.23787355  0.71834728  1  0  -0.761851  0  1.998563  0  0  -0.693063  0  2.251995  0  0  -0.718485  0  2.23634  0  0  -0.328646  -0.675569  0  2.262514  0
O  O85  1  0.96694058  0.73787230  0.28165102  1  0  -0.761831  0  1.998709  0  0  -0.693069  0  2.252164  0  0  -0.718488  0  2.236485  0  0  -0.328583  -0.675565  0  2.26268  0
