# generated using pymatgen
data_HgH3C5(NO)2
_symmetry_space_group_name_H-M   'P 1'
_cell_length_a   6.90626919
_cell_length_b   6.90619017
_cell_length_c   14.07210144
_cell_angle_alpha   90.77321161
_cell_angle_beta   90.77555641
_cell_angle_gamma   103.14416875
_symmetry_Int_Tables_number   1
_chemical_formula_structural   HgH3C5(NO)2
_chemical_formula_sum   'Hg4 H12 C20 N8 O8'
_cell_volume   653.44416969
_cell_formula_units_Z   4
loop_
 _symmetry_equiv_pos_site_id
 _symmetry_equiv_pos_as_xyz
  1  'x, y, z'
loop_
 _atom_site_type_symbol
 _atom_site_label
 _atom_site_symmetry_multiplicity
 _atom_site_fract_x
 _atom_site_fract_y
 _atom_site_fract_z
 _atom_site_occupancy
 _atom_site_hle17_bader_spin_density
 _atom_site_hle17_ddec_charge
 _atom_site_hle17_ddec_spin_density
 _atom_site_hle17_ddec_sum_bond_order
 _atom_site_hle17_magmom
 _atom_site_hse06_10hf_bader_spin_density
 _atom_site_hse06_10hf_ddec_charge
 _atom_site_hse06_10hf_ddec_spin_density
 _atom_site_hse06_10hf_ddec_sum_bond_order
 _atom_site_hse06_10hf_magmom
 _atom_site_hse06_bader_spin_density
 _atom_site_hse06_ddec_charge
 _atom_site_hse06_ddec_spin_density
 _atom_site_hse06_ddec_sum_bond_order
 _atom_site_hse06_magmom
 _atom_site_pbe_bader_spin_density
 _atom_site_pbe_cm5_charge
 _atom_site_pbe_ddec_charge
 _atom_site_pbe_ddec_spin_density
 _atom_site_pbe_ddec_sum_bond_order
 _atom_site_pbe_magmom
Hg  Hg0  1  0.79872390  0.51170166  0.45383008  1  0  0.545052  0  1.840957  0  0  0.421359  0  2.276859  0  0  0.455277  0  2.254365  0  0  0.454853  0.396768  0  2.292469  0
Hg  Hg1  1  0.51162716  0.79864748  0.95384529  1  0  0.545045  0  1.840649  0  0  0.421343  0  2.276499  0  0  0.455259  0  2.254003  0  0  0.454769  0.396759  0  2.292104  0
Hg  Hg2  1  0.41613214  0.36174413  0.43952492  1  0  0.460151  0  1.503272  0  0  0.368628  0  1.898861  0  0  0.40105  0  1.8703  0  0  0.3713  0.345179  0  1.919126  0
Hg  Hg3  1  0.36177673  0.41603424  0.93954114  1  0  0.460273  0  1.503142  0  0  0.368756  0  1.898722  0  0  0.401188  0  1.870162  0  0  0.371367  0.345302  0  1.918985  0
H  H4  1  0.96518391  0.41327126  0.66632911  1  0  0.094662  0  0.908062  0  0  0.104185  0  0.968572  0  0  0.106784  0  0.965034  0  0  0.124886  0.102198  0  0.971238  0
H  H5  1  0.41326894  0.96521297  0.16634341  1  0  0.094662  0  0.908136  0  0  0.104176  0  0.968656  0  0  0.106774  0  0.965118  0  0  0.124877  0.10219  0  0.971322  0
H  H6  1  0.05963659  0.58708150  0.82469854  1  0  0.119374  0  0.957269  0  0  0.128085  0  1.021087  0  0  0.13133  0  1.019889  0  0  0.108889  0.125578  0  1.022431  0
H  H7  1  0.58714263  0.05971307  0.32469076  1  0  0.119322  0  0.957498  0  0  0.12806  0  1.021272  0  0  0.131294  0  1.020088  0  0  0.108919  0.12557  0  1.022601  0
H  H8  1  0.23105827  0.55431346  0.13335812  1  0  0.104821  0  0.979213  0  0  0.110272  0  1.050485  0  0  0.112855  0  1.051092  0  0  0.103161  0.108476  0  1.050118  0
H  H9  1  0.55423104  0.23095285  0.63332429  1  0  0.104903  0  0.97912  0  0  0.110385  0  1.05033  0  0  0.112975  0  1.050944  0  0  0.103245  0.108606  0  1.049939  0
H  H10  1  0.54603629  0.50708895  0.22516215  1  0  0.076324  0  0.964041  0  0  0.083944  0  1.028358  0  0  0.086561  0  1.025102  0  0  0.120955  0.082015  0  1.030687  0
H  H11  1  0.50698408  0.54591005  0.72512233  1  0  0.076195  0  0.964166  0  0  0.083875  0  1.028372  0  0  0.086498  0  1.025102  0  0  0.120945  0.081947  0  1.030699  0
H  H12  1  0.94425865  0.45150841  0.01374037  1  0  0.082421  0  0.917367  0  0  0.092055  0  0.979004  0  0  0.094824  0  0.975459  0  0  0.114258  0.090023  0  0.981585  0
H  H13  1  0.45136464  0.94413640  0.51370765  1  0  0.082128  0  0.917778  0  0  0.091936  0  0.979223  0  0  0.094653  0  0.975748  0  0  0.114232  0.0899  0  0.981802  0
H  H14  1  0.94272945  0.95696154  0.54610692  1  0  0.077938  0  0.960681  0  0  0.084521  0  1.026716  0  0  0.086982  0  1.023542  0  0  0.119273  0.082661  0  1.029024  0
H  H15  1  0.95689039  0.94274121  0.04608719  1  0  0.077933  0  0.96079  0  0  0.084534  0  1.026836  0  0  0.086989  0  1.023664  0  0  0.11933  0.082678  0  1.029147  0
C  C16  1  0.98215242  0.57358186  0.67488509  1  0  0.190937  0  3.631292  0  0  0.154453  0  3.885222  0  0  0.16582  0  3.898736  0  0  0.073856  0.147035  0  3.875985  0
C  C17  1  0.57357746  0.98219089  0.17488780  1  0  0.191069  0  3.631405  0  0  0.154588  0  3.885331  0  0  0.165957  0  3.898839  0  0  0.073991  0.147178  0  3.876077  0
C  C18  1  0.05770516  0.87538135  0.76594721  1  0  0.137954  0  3.701653  0  0  0.142642  0  3.948234  0  0  0.145674  0  3.966953  0  0  0.124697  0.140521  0  3.935858  0
C  C19  1  0.87541442  0.05777704  0.26592406  1  0  0.137725  0  3.701868  0  0  0.142605  0  3.948272  0  0  0.145577  0  3.967047  0  0  0.124861  0.140579  0  3.935789  0
C  C20  1  0.03671829  0.66971216  0.76199444  1  0  -0.141466  0  3.668287  0  0  -0.16109  0  3.912171  0  0  -0.1699  0  3.933634  0  0  -0.070224  -0.155572  0  3.89825  0
C  C21  1  0.66975266  0.03677778  0.26198529  1  0  -0.141455  0  3.668961  0  0  -0.161167  0  3.912808  0  0  -0.169946  0  3.934293  0  0  -0.070395  -0.155698  0  3.898853  0
C  C22  1  0.02900867  0.57683595  0.24686250  1  0  0.150164  0  3.716527  0  0  0.148925  0  3.95615  0  0  0.154056  0  3.973873  0  0  0.12547  0.145423  0  3.944379  0
C  C23  1  0.57674555  0.02888389  0.74683136  1  0  0.150596  0  3.716087  0  0  0.148651  0  3.956603  0  0  0.153927  0  3.974109  0  0  0.125277  0.145061  0  3.944952  0
C  C24  1  0.07699711  0.54228951  0.15309291  1  0  -0.163691  0  3.687902  0  0  -0.180573  0  3.930082  0  0  -0.19087  0  3.953765  0  0  -0.075436  -0.173949  0  3.914343  0
C  C25  1  0.54218826  0.07688578  0.65306016  1  0  -0.164059  0  3.68733  0  0  -0.180805  0  3.929846  0  0  -0.191131  0  3.953418  0  0  -0.075638  -0.174163  0  3.914128  0
C  C26  1  0.69849468  0.51274530  0.20356531  1  0  0.276894  0  3.724793  0  0  0.230708  0  4.001979  0  0  0.243292  0  4.016335  0  0  0.169097  0.222485  0  3.99176  0
C  C27  1  0.51264310  0.69836916  0.70353275  1  0  0.277151  0  3.724576  0  0  0.231055  0  4.001481  0  0  0.243632  0  4.015856  0  0  0.169137  0.222829  0  3.991273  0
C  C28  1  0.91957324  0.48638065  0.08798605  1  0  0.174371  0  3.684597  0  0  0.146107  0  3.942697  0  0  0.154989  0  3.958956  0  0  0.064083  0.140435  0  3.93143  0
C  C29  1  0.48626636  0.91945966  0.58795294  1  0  0.174958  0  3.684226  0  0  0.146555  0  3.942364  0  0  0.155473  0  3.958622  0  0  0.06426  0.140893  0  3.931091  0
C  C30  1  0.97104193  0.87456945  0.60876391  1  0  0.267532  0  3.702956  0  0  0.222325  0  3.97463  0  0  0.234514  0  3.98879  0  0  0.168722  0.214285  0  3.964858  0
C  C31  1  0.87452184  0.97106588  0.10874684  1  0  0.267467  0  3.703176  0  0  0.222202  0  3.974942  0  0  0.234396  0  3.989087  0  0  0.168507  0.214155  0  3.965179  0
C  C32  1  0.12269158  0.99081410  0.85867284  1  0  0.599202  0  3.916983  0  0  0.546927  0  4.215202  0  0  0.581037  0  4.208563  0  0  0.198387  0.52369  0  4.21885  0
C  C33  1  0.99090316  0.12278357  0.35863562  1  0  0.600005  0  3.917033  0  0  0.547588  0  4.215328  0  0  0.581733  0  4.208662  0  0  0.198529  0.524318  0  4.218975  0
C  C34  1  0.18764060  0.61825381  0.32486276  1  0  0.594729  0  3.915776  0  0  0.546394  0  4.204822  0  0  0.580172  0  4.198047  0  0  0.195216  0.523297  0  4.208385  0
C  C35  1  0.61816582  0.18750783  0.82483542  1  0  0.59472  0  3.915548  0  0  0.546578  0  4.204608  0  0  0.580326  0  4.197812  0  0  0.195471  0.523504  0  4.208182  0
N  N36  1  0.83951210  0.56313479  0.27141630  1  0  -0.351545  0  3.187178  0  0  -0.290654  0  3.448079  0  0  -0.311036  0  3.468846  0  0  -0.308725  -0.276708  0  3.433635  0
N  N37  1  0.56304594  0.83938468  0.77138690  1  0  -0.352035  0  3.18691  0  0  -0.290954  0  3.448015  0  0  -0.311373  0  3.468736  0  0  -0.308956  -0.276987  0  3.433606  0
N  N38  1  0.72948453  0.47076837  0.11268907  1  0  -0.358978  0  3.061781  0  0  -0.31776  0  3.337753  0  0  -0.334095  0  3.354149  0  0  -0.317146  -0.306605  0  3.326302  0
N  N39  1  0.47065401  0.72935997  0.61265515  1  0  -0.359119  0  3.061175  0  0  -0.317977  0  3.337195  0  0  -0.334308  0  3.353582  0  0  -0.316974  -0.306819  0  3.325734  0
N  N40  1  0.02612653  0.97842788  0.68875603  1  0  -0.336751  0  3.033954  0  0  -0.308024  0  3.300762  0  0  -0.321487  0  3.316289  0  0  -0.308659  -0.298897  0  3.290216  0
N  N41  1  0.97842266  0.02618566  0.18872447  1  0  -0.336686  0  3.034214  0  0  -0.308037  0  3.301071  0  0  -0.321475  0  3.3166  0  0  -0.308626  -0.298944  0  3.290506  0
N  N42  1  0.94774640  0.67610358  0.59861190  1  0  -0.300619  0  3.200328  0  0  -0.221293  0  3.462491  0  0  -0.24277  0  3.481159  0  0  -0.301141  -0.20673  0  3.449404  0
N  N43  1  0.67606586  0.94775794  0.09860980  1  0  -0.300692  0  3.200263  0  0  -0.221384  0  3.462499  0  0  -0.242858  0  3.481152  0  0  -0.301194  -0.206821  0  3.449424  0
O  O44  1  0.13211277  0.59990244  0.41189294  1  0  -0.554383  0  2.029769  0  0  -0.483327  0  2.281378  0  0  -0.514053  0  2.271945  0  0  -0.31275  -0.460887  0  2.286473  0
O  O45  1  0.59979983  0.13199541  0.91187163  1  0  -0.554462  0  2.030242  0  0  -0.48324  0  2.28162  0  0  -0.513988  0  2.272209  0  0  -0.312675  -0.460795  0  2.286712  0
O  O46  1  0.36535233  0.65696988  0.29981934  1  0  -0.587313  0  1.979792  0  0  -0.534782  0  2.209607  0  0  -0.561427  0  2.204471  0  0  -0.308495  -0.515859  0  2.212355  0
O  O47  1  0.65688742  0.36524175  0.79979242  1  0  -0.587291  0  1.97937  0  0  -0.534892  0  2.209252  0  0  -0.561551  0  2.204136  0  0  -0.30862  -0.515964  0  2.21199  0
O  O48  1  0.14470584  0.89388735  0.93133406  1  0  -0.614128  0  1.982528  0  0  -0.559404  0  2.218803  0  0  -0.584536  0  2.210225  0  0  -0.325843  -0.541375  0  2.2239  0
O  O49  1  0.89402492  0.14481788  0.43130714  1  0  -0.614552  0  1.982606  0  0  -0.559781  0  2.218924  0  0  -0.584924  0  2.210327  0  0  -0.325912  -0.541748  0  2.224035  0
O  O50  1  0.15113281  0.18012389  0.85162891  1  0  -0.543591  0  2.04542  0  0  -0.474532  0  2.299456  0  0  -0.504964  0  2.290234  0  0  -0.308658  -0.453402  0  2.305041  0
O  O51  1  0.18019614  0.15120846  0.35157447  1  0  -0.543865  0  2.045697  0  0  -0.474741  0  2.299758  0  0  -0.505176  0  2.290519  0  0  -0.308753  -0.453614  0  2.305354  0
