# generated using pymatgen
data_MnH12C17(N3O2)2
_symmetry_space_group_name_H-M   'P 1'
_cell_length_a   7.47925311
_cell_length_b   9.93325243
_cell_length_c   11.79453996
_cell_angle_alpha   93.26172556
_cell_angle_beta   91.40302355
_cell_angle_gamma   95.09374591
_symmetry_Int_Tables_number   1
_chemical_formula_structural   MnH12C17(N3O2)2
_chemical_formula_sum   'Mn2 H24 C34 N12 O8'
_cell_volume   870.99652662
_cell_formula_units_Z   2
loop_
 _symmetry_equiv_pos_site_id
 _symmetry_equiv_pos_as_xyz
  1  'x, y, z'
loop_
 _atom_site_type_symbol
 _atom_site_label
 _atom_site_symmetry_multiplicity
 _atom_site_fract_x
 _atom_site_fract_y
 _atom_site_fract_z
 _atom_site_occupancy
 _atom_site_hle17_ddec_charge
 _atom_site_hle17_ddec_spin_density
 _atom_site_hle17_ddec_sum_bond_order
 _atom_site_hle17_magmom
 _atom_site_hse06_10hf_ddec_charge
 _atom_site_hse06_10hf_ddec_spin_density
 _atom_site_hse06_10hf_ddec_sum_bond_order
 _atom_site_hse06_10hf_magmom
 _atom_site_hse06_ddec_charge
 _atom_site_hse06_ddec_spin_density
 _atom_site_hse06_ddec_sum_bond_order
 _atom_site_hse06_magmom
 _atom_site_pbe_cm5_charge
 _atom_site_pbe_ddec_charge
 _atom_site_pbe_ddec_spin_density
 _atom_site_pbe_ddec_sum_bond_order
 _atom_site_pbe_magmom
Mn  Mn0  1  0.48419200  0.23469057  0.37542150  1  1.074812  4.801802  1.829378  4.667  0.902002  4.733122  2.327785  4.526  0.962431  4.774348  2.261213  4.589  0.594033  0.854804  4.690449  2.376758  4.464
Mn  Mn1  1  0.51581510  0.76530685  0.62457562  1  1.074758  4.801853  1.829438  4.667  0.90191  4.73319  2.327926  4.526  0.962338  4.774411  2.261353  4.589  0.594007  0.854706  4.690525  2.376891  4.464
H  H2  1  0.25237365  0.86374398  0.97458696  1  0.103167  -8e-06  0.95933  0.0  0.115623  2.3e-05  1.020226  0.0  0.118856  9e-06  1.01846  0.0  0.105339  0.11334  3.8e-05  1.021421  0.0
H  H3  1  0.74762582  0.13625765  0.02541604  1  0.103244  -1.5e-05  0.95935  0.0  0.115689  2.3e-05  1.020241  0.0  0.118922  9e-06  1.018475  0.0  0.105361  0.113404  3.8e-05  1.021437  0.0
H  H4  1  0.25688214  0.61326871  0.26082680  1  0.09897  -0.000203  0.993266  0.0  0.104236  -0.000123  1.066671  0.0  0.109141  -0.000195  1.062158  0.0  0.099373  0.100669  -4.8e-05  1.069985  0.0
H  H5  1  0.74310761  0.38672995  0.73917412  1  0.098886  -0.000215  0.993301  0.0  0.104164  -0.000123  1.066705  0.0  0.109065  -0.000195  1.062196  0.0  0.099322  0.1006  -4.7e-05  1.070011  0.0
H  H6  1  0.77965137  0.60762531  0.04836673  1  0.09168  -3.6e-05  0.951269  0.0  0.105842  -4.6e-05  1.010637  0.0  0.108605  -4e-05  1.009809  0.0  0.10211  0.103838  -4.8e-05  1.011454  0.0
H  H7  1  0.22034663  0.39237424  0.95163106  1  0.091646  -2.9e-05  0.951245  0.0  0.105777  -4.6e-05  1.010642  0.0  0.108541  -4e-05  1.009813  0.0  0.102082  0.103774  -4.8e-05  1.011463  0.0
H  H8  1  0.65528854  0.65347986  0.87291722  1  0.0973  -0.000105  0.954352  0.0  0.108397  0.000175  1.015467  0.0  0.110729  0.000101  1.014251  0.0  0.116067  0.106738  0.000252  1.016467  0.0
H  H9  1  0.34470731  0.34652272  0.12707724  1  0.09728  -0.000105  0.954342  0.0  0.108383  0.000175  1.015457  0.0  0.110714  0.000101  1.014242  0.0  0.116049  0.106726  0.000252  1.016457  0.0
H  H10  1  0.85362925  0.99530844  0.70416789  1  0.094888  -0.000695  0.927452  0.0  0.107547  -0.000267  0.982412  0.0  0.109715  -0.000335  0.980171  0.0  0.139873  0.105755  -0.000198  0.984123  0.0
H  H11  1  0.14635727  0.00470758  0.29584208  1  0.094858  -0.00069  0.927517  0.0  0.107515  -0.000268  0.982465  0.0  0.109691  -0.000335  0.980228  0.0  0.139873  0.105729  -0.000197  0.984177  0.0
H  H12  1  0.56727400  0.91071234  0.00364286  1  0.094695  -0.000106  0.985385  0.0  0.103806  -0.000134  1.050115  0.0  0.106032  -0.00013  1.049604  0.0  0.110204  0.10219  -0.000137  1.050556  0.0
H  H13  1  0.43271784  0.08929241  0.99636089  1  0.094732  -0.000106  0.985526  0.0  0.103883  -0.000134  1.050194  0.0  0.1061  -0.00013  1.049689  0.0  0.110228  0.102253  -0.000137  1.050665  0.0
H  H14  1  0.80295502  0.86359539  0.32509478  1  0.094441  -0.00022  0.929547  0.0  0.104801  -0.000198  0.988465  0.0  0.107873  -0.000239  0.984657  0.0  0.136787  0.102413  -0.000147  0.99134  0.0
H  H15  1  0.19704907  0.13640113  0.67490900  1  0.094386  -0.000211  0.929736  0.0  0.104739  -0.000198  0.988645  0.0  0.107808  -0.000239  0.984842  0.0  0.136778  0.102351  -0.000147  0.991518  0.0
H  H16  1  0.62519289  0.47143512  0.18202651  1  0.100175  -0.000131  0.953854  0.0  0.112104  9.1e-05  1.013101  0.0  0.114715  3.1e-05  1.011639  0.0  0.115089  0.110266  0.000155  1.014316  0.0
H  H17  1  0.37480594  0.52855019  0.81796737  1  0.10025  -0.000126  0.953847  0.0  0.112175  9.1e-05  1.013092  0.0  0.114786  3.1e-05  1.011631  0.0  0.115128  0.110339  0.000155  1.014308  0.0
H  H18  1  0.91808279  0.26401325  0.41487517  1  0.105064  -0.000673  0.922051  0.0  0.115484  -0.000378  0.980364  0.0  0.118774  -0.00043  0.976021  0.0  0.143369  0.112994  -0.0003  0.983441  0.0
H  H19  1  0.08191592  0.73598227  0.58512503  1  0.104985  -0.000684  0.922044  0.0  0.115442  -0.000378  0.980306  0.0  0.118731  -0.000429  0.975963  0.0  0.143335  0.112917  -0.0003  0.98342  0.0
H  H20  1  0.08343478  0.96929301  0.85878741  1  0.282947  0.000138  0.965574  0.0  0.25047  0.000218  1.047188  0.0  0.260677  0.000166  1.039528  0.0  0.293842  0.243248  0.000272  1.052688  0.0
H  H21  1  0.91655767  0.03071577  0.14121481  1  0.282835  0.000136  0.965708  0.0  0.250451  0.000218  1.04716  0.0  0.260658  0.000166  1.039501  0.0  0.29386  0.243229  0.000272  1.052654  0.0
H  H22  1  0.49465763  0.73652058  0.32127257  1  0.308273  -0.000388  0.925581  0.0  0.289833  -0.000364  0.987104  0.0  0.29765  -0.000407  0.981433  0.0  0.311801  0.284321  -0.000334  0.991138  0.0
H  H23  1  0.50533844  0.26347602  0.67873099  1  0.308246  -0.000389  0.925661  0.0  0.2899  -0.000365  0.987057  0.0  0.297714  -0.000407  0.981387  0.0  0.311801  0.284391  -0.000334  0.991083  0.0
H  H24  1  0.14112768  0.43620547  0.32973254  1  0.309416  -0.000334  0.930406  0.0  0.28961  -0.000233  0.993479  0.0  0.298093  -0.00033  0.986796  0.0  0.311312  0.283617  -0.000119  0.99819  0.0
H  H25  1  0.85887251  0.56379105  0.67026774  1  0.309402  -0.000335  0.930418  0.0  0.289594  -0.000233  0.993501  0.0  0.298078  -0.000329  0.986818  0.0  0.31132  0.2836  -0.000119  0.998216  0.0
C  C26  1  0.18380893  0.78957766  0.02690771  1  -0.148221  0.000107  3.672869  0.0  -0.178555  0.000495  3.920936  0.0  -0.181715  0.000305  3.939694  0.0  -0.093357  -0.176174  0.00077  3.907775  0.001
C  C27  1  0.81618605  0.21041992  0.97309247  1  -0.148421  0.000194  3.672882  0.0  -0.178732  0.000495  3.920953  0.0  -0.1819  0.000305  3.939701  0.0  -0.093388  -0.176327  0.00077  3.907774  0.001
C  C28  1  0.27551396  0.74449519  0.12097596  1  0.041085  -4.9e-05  3.882777  0.0  0.059207  -6.3e-05  4.119799  0.0  0.060574  -0.00011  4.143644  0.0  -0.01392  0.057954  -7.8e-05  4.103635  0.0
C  C29  1  0.72448005  0.25550547  0.87902600  1  0.041239  -0.000147  3.882705  0.0  0.059353  -6.3e-05  4.119706  0.0  0.060749  -0.000108  4.14351  0.0  -0.013816  0.058067  -7.8e-05  4.103583  0.0
C  C30  1  0.18687234  0.64814141  0.18748844  1  -0.169713  0.000257  3.691177  0.0  -0.200953  0.000726  3.941627  0.001  -0.204592  0.000482  3.95924  0.0  -0.104713  -0.198513  0.001001  3.930125  0.001
C  C31  1  0.81312142  0.35185721  0.81251259  1  -0.169706  0.000356  3.691215  0.0  -0.200942  0.000724  3.941708  0.001  -0.204586  0.000481  3.959315  0.0  -0.104688  -0.198497  0.001001  3.930213  0.001
C  C32  1  0.00846014  0.59722120  0.16130699  1  0.044487  0.000135  3.862823  0.0  0.061575  0.000114  4.102742  0.0  0.06291  5.9e-05  4.12615  0.0  -0.009926  0.060937  0.000135  4.086808  0.0
C  C33  1  0.99153337  0.40277539  0.83869311  1  0.044521  5.9e-05  3.862994  0.0  0.061555  0.000114  4.102962  0.0  0.062886  6.3e-05  4.126372  0.0  -0.009891  0.060918  0.000135  4.087023  0.0
C  C34  1  0.91892510  0.64481043  0.06808909  1  -0.134512  3.6e-05  3.694048  0.0  -0.166413  0.000309  3.944091  0.0  -0.169906  0.000174  3.964668  0.0  -0.087238  -0.164308  0.000583  3.930367  0.001
C  C35  1  0.08106876  0.35518815  0.93190855  1  -0.134602  7.5e-05  3.694268  0.0  -0.166447  0.000312  3.944299  0.0  -0.169939  0.000169  3.964881  0.0  -0.087284  -0.164344  0.000582  3.93058  0.001
C  C36  1  0.00490619  0.74140953  0.00065098  1  0.049904  0.000102  3.848299  0.0  0.063453  4e-05  4.093024  0.0  0.065282  -5e-06  4.115025  0.0  -0.007215  0.062436  6.2e-05  4.078294  0.0
C  C37  1  0.99509501  0.25859406  0.99934790  1  0.050017  3.6e-05  3.848231  0.0  0.063536  3.9e-05  4.092961  0.0  0.065364  -1e-06  4.114965  0.0  -0.007191  0.062519  6.2e-05  4.078229  0.0
C  C38  1  0.90595710  0.79055503  0.90585485  1  0.124864  0.000135  3.750607  0.0  0.113099  0.001096  4.003141  0.001  0.11633  0.000423  4.024183  0.001  0.085137  0.110435  0.001678  3.989481  0.002
C  C39  1  0.09404141  0.20944859  0.09414481  1  0.124825  0.000145  3.750569  0.0  0.113086  0.001093  4.003094  0.001  0.116317  0.000426  4.024131  0.001  0.085099  0.110421  0.001679  3.989436  0.002
C  C40  1  0.74300641  0.74149944  0.85378037  1  -0.04384  0.002622  3.711716  0.003  -0.0829  0.004719  3.986345  0.005  -0.081123  0.003843  4.005188  0.004  0.000586  -0.084146  0.005612  3.973498  0.006
C  C41  1  0.25698920  0.25850216  0.14621743  1  -0.043776  0.002597  3.711681  0.003  -0.082848  0.004721  3.986313  0.005  -0.081069  0.003839  4.005153  0.004  0.000657  -0.084094  0.005611  3.973466  0.006
C  C42  1  0.84069751  0.91690980  0.76440583  1  0.22958  0.007316  3.668938  0.007  0.168295  0.009505  3.943516  0.009  0.182109  0.008302  3.957493  0.008  0.148639  0.159761  0.010943  3.932584  0.01
C  C43  1  0.15929533  0.08310202  0.23559737  1  0.229592  0.007279  3.66901  0.007  0.168303  0.009505  3.943616  0.009  0.182105  0.008298  3.957602  0.008  0.148607  0.159754  0.010941  3.932697  0.01
C  C44  1  0.45856486  0.80080524  0.14981501  1  0.099491  6.4e-05  3.798504  0.0  0.089706  6.7e-05  4.050385  0.0  0.091118  4.9e-05  4.074687  0.0  0.07335  0.088907  0.000114  4.033727  0.0
C  C45  1  0.54143230  0.19919947  0.85018974  1  0.099509  8.4e-05  3.798479  0.0  0.089725  6.5e-05  4.050378  0.0  0.091126  5e-05  4.074673  0.0  0.073233  0.088935  0.000114  4.033725  0.0
C  C46  1  0.58070018  0.88039647  0.08996694  1  -0.062127  -8.6e-05  3.748581  0.0  -0.10043  3.3e-05  4.022549  0.0  -0.099735  -1.6e-05  4.042092  0.0  -0.008642  -0.10067  6.5e-05  4.009262  0.0
C  C47  1  0.41929138  0.11960733  0.91004186  1  -0.062234  -0.000122  3.748724  0.0  -0.100573  3.4e-05  4.022656  0.0  -0.099877  -1.6e-05  4.042225  0.0  -0.008649  -0.100816  6.5e-05  4.009369  0.0
C  C48  1  0.71007827  0.85618505  0.25246653  1  0.232487  -0.000239  3.674724  0.0  0.172358  -0.000195  3.954839  0.0  0.185509  -0.000263  3.966813  0.0  0.143581  0.163855  -0.000142  3.946554  0.0
C  C49  1  0.28990790  0.14381561  0.74752927  1  0.232592  -0.000292  3.674409  0.0  0.172478  -0.000195  3.954503  0.0  0.185629  -0.000264  3.966474  0.0  0.143686  0.163974  -0.000142  3.946217  0.0
C  C50  1  0.91710495  0.49565370  0.22926231  1  0.117761  0.000378  3.775488  0.001  0.105278  0.001124  4.030014  0.001  0.107517  0.000568  4.053359  0.001  0.081781  0.103697  0.001671  4.014479  0.001
C  C51  1  0.08289535  0.50434277  0.77073374  1  0.11775  0.000439  3.775709  0.001  0.105303  0.001123  4.030228  0.001  0.107548  0.000571  4.053565  0.001  0.081701  0.103726  0.001672  4.014695  0.001
C  C52  1  0.73940291  0.44256037  0.23029158  1  -0.047744  0.001875  3.708862  0.003  -0.087195  0.003499  3.978837  0.004  -0.086068  0.002747  3.999612  0.003  -0.001863  -0.088496  0.004179  3.965059  0.004
C  C53  1  0.26059626  0.55742801  0.76970497  1  -0.047828  0.001803  3.709007  0.003  -0.087284  0.003498  3.978971  0.004  -0.086158  0.002744  3.999746  0.003  -0.001916  -0.088593  0.004177  3.965202  0.004
C  C54  1  0.88508096  0.33469947  0.35250821  1  0.23838  0.005113  3.644367  0.005  0.175929  0.007259  3.918124  0.007  0.190687  0.006298  3.930015  0.006  0.150631  0.166429  0.008425  3.909151  0.008
C  C55  1  0.11491956  0.66528996  0.64749266  1  0.238504  0.005152  3.644437  0.005  0.176046  0.007255  3.918168  0.007  0.190805  0.006297  3.930063  0.006  0.150709  0.166574  0.008423  3.9092  0.008
C  C56  1  0.55870423  0.47478125  0.54826908  1  0.540677  0.002552  3.904316  0.003  0.491655  0.007426  4.201815  0.007  0.521462  0.004634  4.195518  0.005  0.217226  0.470605  0.010949  4.205875  0.009
C  C57  1  0.44129142  0.52520804  0.45171553  1  0.540853  0.002545  3.904263  0.003  0.491783  0.007423  4.201807  0.007  0.521606  0.004631  4.195491  0.005  0.217267  0.470715  0.010943  4.205882  0.009
C  C58  1  0.39916815  0.00154872  0.51429882  1  0.520807  0.004262  3.942652  0.004  0.478488  0.01038  4.234356  0.009  0.508269  0.007214  4.229923  0.007  0.20491  0.457733  0.013427  4.236337  0.012
C  C59  1  0.60087953  0.99844542  0.48571288  1  0.520839  0.004249  3.94278  0.004  0.478663  0.010374  4.234255  0.009  0.508449  0.007209  4.229812  0.007  0.204915  0.457915  0.01342  4.236232  0.012
N  N60  1  0.96382393  0.90251176  0.84715574  1  -0.313435  0.001251  3.410283  0.001  -0.243559  0.002732  3.648224  0.003  -0.261058  0.002014  3.663408  0.002  -0.365763  -0.231723  0.00342  3.637307  0.003
N  N61  1  0.03616953  0.09749500  0.15284813  1  -0.313273  0.001265  3.410225  0.001  -0.243444  0.002732  3.648097  0.003  -0.260942  0.002015  3.663283  0.002  -0.365708  -0.231602  0.00342  3.637175  0.003
N  N62  1  0.70385956  0.82022554  0.76547119  1  -0.405439  0.028235  3.240051  0.01  -0.338405  0.033017  3.548168  0.008  -0.360176  0.028659  3.561066  0.005  -0.359944  -0.322597  0.037111  3.538509  0.01
N  N63  1  0.29613506  0.17977914  0.23452925  1  -0.405498  0.028259  3.239974  0.01  -0.338475  0.033018  3.5481  0.008  -0.360249  0.028663  3.561004  0.005  -0.359961  -0.322661  0.037114  3.538441  0.01
N  N64  1  0.73528345  0.91481312  0.15464222  1  -0.365473  0.000109  3.148938  0.0  -0.313193  0.000275  3.42007  0.0  -0.328314  0.00017  3.436415  0.0  -0.336808  -0.30297  0.00038  3.409075  0.0
N  N65  1  0.26471043  0.08518758  0.84536398  1  -0.365333  0.000123  3.148718  0.0  -0.313014  0.000274  3.419851  0.0  -0.328132  0.00017  3.436187  0.0  -0.336725  -0.302789  0.000379  3.408856  0.0
N  N66  1  0.54599559  0.78638320  0.25301250  1  -0.332561  -0.000113  3.415981  0.0  -0.267464  3e-06  3.647928  0.0  -0.284651  -9.3e-05  3.664155  0.0  -0.379768  -0.255877  8.9e-05  3.636729  0.0
N  N67  1  0.45400521  0.21361841  0.74699053  1  -0.332704  -0.000103  3.415928  0.0  -0.267665  4e-06  3.647779  0.0  -0.284843  -9.3e-05  3.664  0.0  -0.379864  -0.25608  8.9e-05  3.63657  0.0
N  N68  1  0.72117956  0.34248957  0.30665746  1  -0.39493  0.027346  3.233975  0.012  -0.325121  0.03106  3.531023  0.01  -0.34752  0.027604  3.546339  0.008  -0.353816  -0.308898  0.034197  3.519928  0.012
N  N69  1  0.27882257  0.65750081  0.69333925  1  -0.395056  0.027339  3.23407  0.012  -0.325228  0.031066  3.531098  0.01  -0.347634  0.027608  3.546419  0.008  -0.353841  -0.308996  0.034204  3.519983  0.012
N  N70  1  0.00495562  0.42572889  0.30886026  1  -0.324311  0.000929  3.430504  0.001  -0.257841  0.002225  3.660677  0.002  -0.274829  0.001585  3.676046  0.002  -0.374399  -0.246181  0.002863  3.649976  0.003
N  N71  1  0.99504336  0.57426865  0.69114002  1  -0.324246  0.000908  3.430665  0.001  -0.257811  0.002226  3.660854  0.002  -0.2748  0.001584  3.676221  0.002  -0.374365  -0.246152  0.002862  3.650146  0.003
O  O72  1  0.56688326  0.34858622  0.55126170  1  -0.581614  0.023117  2.075988  0.017  -0.524967  0.031555  2.318364  0.024  -0.550882  0.027571  2.309322  0.021  -0.286017  -0.506412  0.035928  2.324417  0.028
O  O73  1  0.43311046  0.65141936  0.44872857  1  -0.581785  0.023126  2.07558  0.017  -0.525087  0.031558  2.317971  0.024  -0.55102  0.027574  2.308938  0.021  -0.286093  -0.506518  0.035931  2.324022  0.028
O  O74  1  0.63758086  0.56538667  0.61730060  1  -0.596615  0.026883  2.099589  0.018  -0.533544  0.035315  2.349903  0.023  -0.560871  0.031335  2.339184  0.02  -0.292028  -0.513505  0.039458  2.35687  0.027
O  O75  1  0.36242088  0.43461990  0.38269417  1  -0.596586  0.026874  2.100082  0.018  -0.533518  0.03531  2.350419  0.023  -0.56084  0.031329  2.33969  0.02  -0.292021  -0.513478  0.039452  2.357387  0.027
O  O76  1  0.31726682  0.09680697  0.47619257  1  -0.590569  0.033659  2.032002  0.026  -0.537463  0.04227  2.284269  0.032  -0.564645  0.036522  2.271697  0.027  -0.308256  -0.517023  0.048323  2.292173  0.038
O  O77  1  0.68277160  0.90319418  0.52380387  1  -0.590408  0.033642  2.032379  0.026  -0.537342  0.04226  2.28457  0.032  -0.564514  0.036511  2.271993  0.027  -0.308163  -0.516909  0.048309  2.292472  0.038
O  O78  1  0.33218004  0.90959553  0.57461435  1  -0.584105  0.034986  2.073991  0.027  -0.530761  0.043102  2.333855  0.031  -0.55894  0.037351  2.32234  0.026  -0.301318  -0.509404  0.048971  2.340899  0.037
O  O79  1  0.66787188  0.09041880  0.42539400  1  -0.584434  0.035004  2.073661  0.027  -0.531077  0.043109  2.333396  0.031  -0.559263  0.037357  2.321874  0.026  -0.301501  -0.509727  0.04898  2.340459  0.037
