# generated using pymatgen
data_SmH3C4O9
_symmetry_space_group_name_H-M   'P 1'
_cell_length_a   10.28574412
_cell_length_b   10.45902605
_cell_length_c   11.95921040
_cell_angle_alpha   90.00065591
_cell_angle_beta   109.27448846
_cell_angle_gamma   89.99843581
_symmetry_Int_Tables_number   1
_chemical_formula_structural   SmH3C4O9
_chemical_formula_sum   'Sm4 H12 C16 O36'
_cell_volume   1214.44415399
_cell_formula_units_Z   4
loop_
 _symmetry_equiv_pos_site_id
 _symmetry_equiv_pos_as_xyz
  1  'x, y, z'
loop_
 _atom_site_type_symbol
 _atom_site_label
 _atom_site_symmetry_multiplicity
 _atom_site_fract_x
 _atom_site_fract_y
 _atom_site_fract_z
 _atom_site_occupancy
 _atom_site_hle17_bader_spin_density
 _atom_site_hle17_ddec_charge
 _atom_site_hle17_ddec_spin_density
 _atom_site_hle17_ddec_sum_bond_order
 _atom_site_hle17_magmom
 _atom_site_hse06_10hf_bader_spin_density
 _atom_site_hse06_10hf_ddec_charge
 _atom_site_hse06_10hf_ddec_spin_density
 _atom_site_hse06_10hf_ddec_sum_bond_order
 _atom_site_hse06_10hf_magmom
 _atom_site_hse06_bader_spin_density
 _atom_site_hse06_ddec_charge
 _atom_site_hse06_ddec_spin_density
 _atom_site_hse06_ddec_sum_bond_order
 _atom_site_hse06_magmom
 _atom_site_pbe_bader_spin_density
 _atom_site_pbe_cm5_charge
 _atom_site_pbe_ddec_charge
 _atom_site_pbe_ddec_spin_density
 _atom_site_pbe_ddec_sum_bond_order
 _atom_site_pbe_magmom
Sm  Sm0  1  0.19636784  0.39799941  0.37513683  1  0  2.224777  0  1.630782  0  0  2.055374  0  2.112684  0  0  2.171155  0  1.938024  0  0  1.518986  2.022909  0  2.142918  0
Sm  Sm1  1  0.30363448  0.89800381  0.12486783  1  0  2.224694  0  1.630701  0  0  2.055157  0  2.112851  0  0  2.170992  0  1.9381  0  0  1.518848  2.022742  0  2.143023  0
Sm  Sm2  1  0.80362243  0.60199263  0.62488341  1  0  2.224616  0  1.630879  0  0  2.055006  0  2.113074  0  0  2.170931  0  1.938165  0  0  1.518833  2.022685  0  2.143104  0
Sm  Sm3  1  0.69637719  0.10200162  0.87511990  1  0  2.22455  0  1.630932  0  0  2.055006  0  2.113128  0  0  2.170844  0  1.938354  0  0  1.51886  2.022598  0  2.143288  0
H  H4  1  0.11117031  0.44189522  0.10377781  1  0  0.406723  0  0.863955  0  0  0.369943  0  0.956942  0  0  0.381292  0  0.946082  0  0  0.314289  0.361533  0  0.965724  0
H  H5  1  0.38882995  0.94187525  0.39624364  1  0  0.402806  0  0.873326  0  0  0.370135  0  0.956918  0  0  0.381464  0  0.946071  0  0  0.314517  0.361742  0  0.965678  0
H  H6  1  0.88885158  0.55810638  0.89622968  1  0  0.406796  0  0.864026  0  0  0.370938  0  0.955627  0  0  0.382418  0  0.944429  0  0  0.314286  0.362427  0  0.964653  0
H  H7  1  0.61114136  0.05810340  0.60378610  1  0  0.402621  0  0.87353  0  0  0.369952  0  0.957155  0  0  0.381285  0  0.946316  0  0  0.314336  0.361552  0  0.965926  0
H  H8  1  0.99184517  0.25835666  0.12466246  1  0  0.457803  0  0.828826  0  0  0.425334  0  0.891605  0  0  0.437827  0  0.873667  0  0  0.309179  0.416907  0  0.90366  0
H  H9  1  0.50816670  0.75835318  0.37535175  1  0  0.457801  0  0.828842  0  0  0.425228  0  0.891767  0  0  0.437717  0  0.873837  0  0  0.309155  0.416809  0  0.90381  0
H  H10  1  0.00816816  0.74165163  0.87532225  1  0  0.457926  0  0.828667  0  0  0.425479  0  0.891391  0  0  0.437963  0  0.873467  0  0  0.309281  0.417062  0  0.903434  0
H  H11  1  0.49183733  0.24164842  0.62468394  1  0  0.457993  0  0.828575  0  0  0.42543  0  0.891477  0  0  0.437913  0  0.873556  0  0  0.309268  0.417014  0  0.90352  0
H  H12  1  0.94496803  0.38496676  0.17364320  1  0  0.458343  0  0.782874  0  0  0.437289  0  0.838401  0  0  0.446194  0  0.829246  0  0  0.341039  0.430908  0  0.845768  0
H  H13  1  0.55503820  0.88495118  0.32634904  1  0  0.458386  0  0.7828  0  0  0.437235  0  0.83823  0  0  0.446105  0  0.82908  0  0  0.341041  0.430869  0  0.845609  0
H  H14  1  0.05505054  0.61502624  0.82637032  1  0  0.458589  0  0.782645  0  0  0.437447  0  0.83801  0  0  0.44632  0  0.82885  0  0  0.341133  0.431081  0  0.84539  0
H  H15  1  0.44494633  0.11504086  0.67365573  1  0  0.458509  0  0.782562  0  0  0.43737  0  0.83795  0  0  0.446239  0  0.828807  0  0  0.341067  0.431004  0  0.84533  0
C  C16  1  0.51550303  0.44662340  0.54718935  1  0  0.591523  0  3.884801  0  0  0.548421  0  4.174431  0  0  0.579097  0  4.17061  0  0  0.241194  0.527357  0  4.180984  0
C  C17  1  0.98449200  0.94662336  0.95279929  1  0  0.591865  0  3.884965  0  0  0.548659  0  4.174702  0  0  0.579332  0  4.170877  0  0  0.241203  0.527594  0  4.181253  0
C  C18  1  0.48450895  0.55337342  0.45278332  1  0  0.591498  0  3.885255  0  0  0.548579  0  4.174647  0  0  0.579254  0  4.170823  0  0  0.241174  0.527515  0  4.181199  0
C  C19  1  0.01548542  0.05337824  0.04719561  1  0  0.591011  0  3.885337  0  0  0.54818  0  4.174646  0  0  0.578853  0  4.170825  0  0  0.24108  0.527115  0  4.181196  0
C  C20  1  0.15295891  0.65727782  0.20312366  1  0  0.593295  0  3.9606  0  0  0.549551  0  4.260299  0  0  0.580724  0  4.25567  0  0  0.228558  0.528377  0  4.267052  0
C  C21  1  0.34705078  0.15729243  0.29687350  1  0  0.593469  0  3.960444  0  0  0.549495  0  4.260698  0  0  0.580665  0  4.256083  0  0  0.22854  0.528323  0  4.267443  0
C  C22  1  0.84705629  0.34273430  0.79688664  1  0  0.593457  0  3.960165  0  0  0.549684  0  4.259913  0  0  0.580855  0  4.255287  0  0  0.228581  0.528512  0  4.26667  0
C  C23  1  0.65295804  0.84272638  0.70312455  1  0  0.593771  0  3.959107  0  0  0.549893  0  4.259206  0  0  0.58107  0  4.254579  0  0  0.228702  0.528716  0  4.265967  0
C  C24  1  0.20819072  0.60301889  0.10583490  1  0  0.562386  0  3.769051  0  0  0.512625  0  4.077657  0  0  0.542701  0  4.069856  0  0  0.251232  0.491878  0  4.08552  0
C  C25  1  0.29181018  0.10300492  0.39417128  1  0  0.562709  0  3.767853  0  0  0.512743  0  4.077681  0  0  0.542815  0  4.069891  0  0  0.251254  0.491992  0  4.085537  0
C  C26  1  0.79182108  0.39698749  0.89416293  1  0  0.56236  0  3.76895  0  0  0.512601  0  4.077731  0  0  0.542672  0  4.069961  0  0  0.251197  0.491856  0  4.085572  0
C  C27  1  0.70818782  0.89697947  0.60584637  1  0  0.562509  0  3.76817  0  0  0.512595  0  4.077919  0  0  0.542665  0  4.070128  0  0  0.251276  0.491851  0  4.085781  0
C  C28  1  0.93769875  0.46758936  0.45222744  1  0  0.579641  0  3.922142  0  0  0.539221  0  4.217385  0  0  0.568453  0  4.216959  0  0  0.227172  0.518776  0  4.223163  0
C  C29  1  0.56230737  0.96758010  0.04775698  1  0  0.579434  0  3.921667  0  0  0.538959  0  4.217017  0  0  0.568214  0  4.216555  0  0  0.227158  0.518514  0  4.222787  0
C  C30  1  0.06231494  0.53241893  0.54777835  1  0  0.579189  0  3.922817  0  0  0.538737  0  4.218111  0  0  0.567966  0  4.217697  0  0  0.2271  0.518297  0  4.22388  0
C  C31  1  0.43770099  0.03241577  0.95221914  1  0  0.579348  0  3.922169  0  0  0.538917  0  4.217444  0  0  0.568137  0  4.217021  0  0  0.227171  0.518475  0  4.223214  0
O  O32  1  0.42221941  0.36300307  0.53555540  1  0  -0.658976  0  2.069466  0  0  -0.601142  0  2.296246  0  0  -0.634393  0  2.284352  0  0  -0.338742  -0.583313  0  2.302329  0
O  O33  1  0.07776646  0.86299931  0.96443238  1  0  -0.659003  0  2.069327  0  0  -0.601178  0  2.296173  0  0  -0.634432  0  2.284275  0  0  -0.338681  -0.583357  0  2.302258  0
O  O34  1  0.57775946  0.63701766  0.46440789  1  0  -0.658798  0  2.069592  0  0  -0.600987  0  2.296247  0  0  -0.634257  0  2.284351  0  0  -0.338527  -0.583176  0  2.302331  0
O  O35  1  0.92222881  0.13703289  0.03557882  1  0  -0.658565  0  2.069728  0  0  -0.600778  0  2.296327  0  0  -0.634029  0  2.284429  0  0  -0.338495  -0.582957  0  2.302415  0
O  O36  1  0.63072590  0.44875504  0.62799535  1  0  -0.646575  0  2.058001  0  0  -0.595973  0  2.29667  0  0  -0.629099  0  2.285377  0  0  -0.361793  -0.578871  0  2.302253  0
O  O37  1  0.86926961  0.94876076  0.87200526  1  0  -0.646611  0  2.058251  0  0  -0.595978  0  2.296963  0  0  -0.629092  0  2.285675  0  0  -0.36177  -0.578862  0  2.302545  0
O  O38  1  0.36927126  0.55121883  0.37202380  1  0  -0.646474  0  2.058404  0  0  -0.595943  0  2.296993  0  0  -0.629046  0  2.285703  0  0  -0.361833  -0.578822  0  2.302577  0
O  O39  1  0.13072996  0.05123606  0.12796400  1  0  -0.646416  0  2.058156  0  0  -0.59588  0  2.296696  0  0  -0.628992  0  2.285402  0  0  -0.361841  -0.578767  0  2.302283  0
O  O40  1  0.09710606  0.57941616  0.25388074  1  0  -0.675087  0  2.046791  0  0  -0.627564  0  2.285915  0  0  -0.659849  0  2.271422  0  0  -0.387517  -0.611099  0  2.293102  0
O  O41  1  0.40289917  0.07942639  0.24612520  1  0  -0.674831  0  2.04659  0  0  -0.627563  0  2.286316  0  0  -0.659859  0  2.271825  0  0  -0.387539  -0.611103  0  2.293497  0
O  O42  1  0.90293503  0.42057875  0.74612820  1  0  -0.675146  0  2.046494  0  0  -0.627617  0  2.28576  0  0  -0.659927  0  2.271281  0  0  -0.387644  -0.611169  0  2.292925  0
O  O43  1  0.59706108  0.92058190  0.75388629  1  0  -0.675066  0  2.045463  0  0  -0.627831  0  2.285151  0  0  -0.660128  0  2.270651  0  0  -0.387702  -0.611367  0  2.292332  0
O  O44  1  0.17070542  0.77543678  0.22069891  1  0  -0.635687  0  2.010127  0  0  -0.595992  0  2.244443  0  0  -0.627218  0  2.23123  0  0  -0.365333  -0.58052  0  2.250761  0
O  O45  1  0.32928687  0.27544036  0.27929275  1  0  -0.635745  0  2.010471  0  0  -0.596  0  2.244812  0  0  -0.627213  0  2.231592  0  0  -0.365287  -0.580525  0  2.251136  0
O  O46  1  0.82926741  0.22457343  0.77929083  1  0  -0.635838  0  2.009945  0  0  -0.596125  0  2.244296  0  0  -0.627355  0  2.231076  0  0  -0.365314  -0.580652  0  2.250615  0
O  O47  1  0.67072657  0.72455454  0.72071970  1  0  -0.635911  0  2.0098  0  0  -0.596163  0  2.244107  0  0  -0.627405  0  2.230877  0  0  -0.365383  -0.580706  0  2.250428  0
O  O48  1  0.28369419  0.67049118  0.06799402  1  0  -0.581053  0  1.98565  0  0  -0.53836  0  2.210755  0  0  -0.567164  0  2.197074  0  0  -0.324935  -0.525201  0  2.218127  0
O  O49  1  0.21628863  0.17048688  0.43199652  1  0  -0.581133  0  1.985554  0  0  -0.538418  0  2.210612  0  0  -0.567216  0  2.196931  0  0  -0.324932  -0.525246  0  2.217984  0
O  O50  1  0.71631414  0.32951234  0.93199973  1  0  -0.580966  0  1.985482  0  0  -0.538233  0  2.210535  0  0  -0.567031  0  2.196852  0  0  -0.324878  -0.525079  0  2.217909  0
O  O51  1  0.78368424  0.82950707  0.56800247  1  0  -0.580926  0  1.985898  0  0  -0.53822  0  2.21095  0  0  -0.567029  0  2.197265  0  0  -0.324834  -0.525079  0  2.218318  0
O  O52  1  0.17149978  0.48763303  0.06412544  1  0  -0.465044  0  2.090336  0  0  -0.414642  0  2.297983  0  0  -0.434849  0  2.284001  0  0  -0.293793  -0.400556  0  2.307794  0
O  O53  1  0.32849652  0.98761823  0.43584111  1  0  -0.463511  0  2.09516  0  0  -0.414837  0  2.298931  0  0  -0.435038  0  2.284956  0  0  -0.293978  -0.400757  0  2.308738  0
O  O54  1  0.82849308  0.51238769  0.93586426  1  0  -0.465094  0  2.090272  0  0  -0.415394  0  2.296521  0  0  -0.435675  0  2.282356  0  0  -0.293776  -0.401251  0  2.306467  0
O  O55  1  0.67148486  0.01236712  0.56414453  1  0  -0.463347  0  2.094357  0  0  -0.414735  0  2.298088  0  0  -0.434942  0  2.284128  0  0  -0.293901  -0.40065  0  2.307886  0
O  O56  1  0.96556876  0.39676977  0.37725303  1  0  -0.664109  0  2.000403  0  0  -0.617008  0  2.232201  0  0  -0.648252  0  2.216912  0  0  -0.386785  -0.601484  0  2.240376  0
O  O57  1  0.53442799  0.89675361  0.12272773  1  0  -0.66405  0  2.000177  0  0  -0.616944  0  2.231984  0  0  -0.648202  0  2.216674  0  0  -0.386759  -0.601428  0  2.240159  0
O  O58  1  0.03439244  0.60321366  0.62274018  1  0  -0.664055  0  2.000768  0  0  -0.616936  0  2.232602  0  0  -0.6482  0  2.217296  0  0  -0.386844  -0.601437  0  2.240776  0
O  O59  1  0.46560297  0.10323365  0.87726232  1  0  -0.664079  0  2.000419  0  0  -0.616982  0  2.232229  0  0  -0.648231  0  2.216929  0  0  -0.386849  -0.601468  0  2.240405  0
O  O60  1  0.81918166  0.49116173  0.45735733  1  0  -0.654375  0  1.993481  0  0  -0.611367  0  2.225153  0  0  -0.643117  0  2.210761  0  0  -0.387846  -0.596088  0  2.232422  0
O  O61  1  0.68084285  0.99116030  0.04265135  1  0  -0.654286  0  1.993017  0  0  -0.611277  0  2.224692  0  0  -0.643025  0  2.210302  0  0  -0.387857  -0.595982  0  2.231958  0
O  O62  1  0.18084609  0.50885899  0.54269336  1  0  -0.654066  0  1.993605  0  0  -0.611086  0  2.225221  0  0  -0.642809  0  2.210847  0  0  -0.387706  -0.595785  0  2.232488  0
O  O63  1  0.31917006  0.00885277  0.95732068  1  0  -0.654104  0  1.993303  0  0  -0.611104  0  2.224917  0  0  -0.642841  0  2.210545  0  0  -0.387723  -0.595809  0  2.232183  0
O  O64  1  0.02649385  0.34164752  0.16715856  1  0  -0.893693  0  1.876293  0  0  -0.835746  0  2.070623  0  0  -0.863601  0  2.037861  0  0  -0.584971  -0.821588  0  2.091068  0
O  O65  1  0.47350883  0.84163774  0.33283087  1  0  -0.891919  0  1.877996  0  0  -0.835519  0  2.070775  0  0  -0.863306  0  2.038007  0  0  -0.585006  -0.821416  0  2.091209  0
O  O66  1  0.97353306  0.65833973  0.83289364  1  0  -0.893955  0  1.876152  0  0  -0.836145  0  2.070388  0  0  -0.86401  0  2.03753  0  0  -0.585024  -0.821999  0  2.090886  0
O  O67  1  0.52646750  0.15833327  0.66710081  1  0  -0.891905  0  1.877833  0  0  -0.835518  0  2.070633  0  0  -0.863297  0  2.037859  0  0  -0.584912  -0.821417  0  2.091074  0
