# generated using pymatgen
data_CdH16C15(NO)6
_symmetry_space_group_name_H-M   'P 1'
_cell_length_a   9.73817777
_cell_length_b   10.44124121
_cell_length_c   11.02474753
_cell_angle_alpha   67.52130582
_cell_angle_beta   80.33012919
_cell_angle_gamma   68.64875288
_symmetry_Int_Tables_number   1
_chemical_formula_structural   CdH16C15(NO)6
_chemical_formula_sum   'Cd2 H32 C30 N12 O12'
_cell_volume   964.18035564
_cell_formula_units_Z   2
loop_
 _symmetry_equiv_pos_site_id
 _symmetry_equiv_pos_as_xyz
  1  'x, y, z'
loop_
 _atom_site_type_symbol
 _atom_site_label
 _atom_site_symmetry_multiplicity
 _atom_site_fract_x
 _atom_site_fract_y
 _atom_site_fract_z
 _atom_site_occupancy
 _atom_site_hle17_bader_spin_density
 _atom_site_hle17_ddec_charge
 _atom_site_hle17_ddec_spin_density
 _atom_site_hle17_ddec_sum_bond_order
 _atom_site_hle17_magmom
 _atom_site_hse06_10hf_bader_spin_density
 _atom_site_hse06_10hf_ddec_charge
 _atom_site_hse06_10hf_ddec_spin_density
 _atom_site_hse06_10hf_ddec_sum_bond_order
 _atom_site_hse06_10hf_magmom
 _atom_site_hse06_bader_spin_density
 _atom_site_hse06_ddec_charge
 _atom_site_hse06_ddec_spin_density
 _atom_site_hse06_ddec_sum_bond_order
 _atom_site_hse06_magmom
 _atom_site_pbe_bader_spin_density
 _atom_site_pbe_cm5_charge
 _atom_site_pbe_ddec_charge
 _atom_site_pbe_ddec_spin_density
 _atom_site_pbe_ddec_sum_bond_order
 _atom_site_pbe_magmom
Cd  Cd0  1  0.42732066  0.96092384  0.30000406  1  0  1.114254  0  1.686039  0  0  0.924538  0  2.132259  0  0  0.982894  0  2.079733  0  0  0.762125  0.87954  0  2.170462  0
Cd  Cd1  1  0.57267950  0.03907461  0.69999573  1  0  1.114288  0  1.686052  0  0  0.924591  0  2.132282  0  0  0.982939  0  2.079754  0  0  0.762151  0.87959  0  2.170484  0
H  H2  1  0.68840757  0.68431346  0.04425796  1  0  0.112572  0  0.980288  0  0  0.117256  0  1.05199  0  0  0.120862  0  1.050058  0  0  0.102087  0.114696  0  1.053275  0
H  H3  1  0.31159536  0.31568277  0.95574130  1  0  0.112564  0  0.980314  0  0  0.117269  0  1.051996  0  0  0.120857  0  1.050084  0  0  0.102079  0.114709  0  1.05328  0
H  H4  1  0.72600187  0.26049000  0.04361140  1  0  0.109824  0  0.952111  0  0  0.115655  0  1.022446  0  0  0.120289  0  1.0186  0  0  0.100783  0.112453  0  1.025039  0
H  H5  1  0.27399376  0.73950960  0.95639048  1  0  0.109794  0  0.952161  0  0  0.115617  0  1.022518  0  0  0.120252  0  1.018669  0  0  0.100774  0.112418  0  1.025102  0
H  H6  1  0.41415833  0.44782287  0.30802359  1  0  0.100519  0  0.968242  0  0  0.1083  0  1.03601  0  0  0.113065  0  1.031101  0  0  0.099791  0.104848  0  1.039915  0
H  H7  1  0.58583768  0.55217889  0.69197928  1  0  0.100564  0  0.968295  0  0  0.108348  0  1.036057  0  0  0.11311  0  1.031151  0  0  0.099827  0.104894  0  1.03996  0
H  H8  1  0.06521961  0.24619744  0.19061616  1  0  0.100934  0  0.919382  0  0  0.110406  0  0.980478  0  0  0.112852  0  0.976913  0  0  0.14096  0.108519  0  0.983128  0
H  H9  1  0.93478684  0.75380746  0.80937855  1  0  0.101029  0  0.919305  0  0  0.110536  0  0.980339  0  0  0.112989  0  0.976767  0  0  0.140988  0.108645  0  0.982999  0
H  H10  1  0.36280569  0.96894798  0.99894480  1  0  0.134013  0  0.937487  0  0  0.139754  0  1.003116  0  0  0.143228  0  0.998533  0  0  0.147895  0.136846  0  1.006997  0
H  H11  1  0.63719132  0.03105053  0.00105545  1  0  0.134024  0  0.93747  0  0  0.139795  0  1.00308  0  0  0.143245  0  0.998528  0  0  0.147907  0.13689  0  1.006953  0
H  H12  1  0.24053405  0.09151923  0.77896813  1  0  0.103687  0  0.953739  0  0  0.116401  0  1.020076  0  0  0.11755  0  1.019917  0  0  0.11877  0.115474  0  1.020396  0
H  H13  1  0.75946609  0.90847923  0.22102984  1  0  0.103669  0  0.95377  0  0  0.116375  0  1.02012  0  0  0.117523  0  1.019967  0  0  0.118769  0.115448  0  1.020439  0
H  H14  1  0.12809764  0.27777595  0.74713014  1  0  0.086987  0  0.895888  0  0  0.106267  0  0.949621  0  0  0.10683  0  0.949345  0  0  0.118141  0.10584  0  0.949738  0
H  H15  1  0.87190458  0.72222249  0.25286662  1  0  0.086924  0  0.89591  0  0  0.106242  0  0.94961  0  0  0.106803  0  0.949331  0  0  0.118144  0.105815  0  0.949726  0
H  H16  1  0.90626402  0.19088978  0.84319257  1  0  0.090965  0  0.916971  0  0  0.111062  0  0.972584  0  0  0.111701  0  0.972943  0  0  0.10524  0.11026  0  0.972746  0
H  H17  1  0.09373644  0.80910761  0.15680392  1  0  0.090942  0  0.916987  0  0  0.111047  0  0.972596  0  0  0.111686  0  0.972954  0  0  0.105241  0.110243  0  0.972761  0
H  H18  1  0.02177419  0.00868206  0.86052495  1  0  0.08637  0  0.939454  0  0  0.099237  0  1.008327  0  0  0.099975  0  1.009478  0  0  0.099809  0.098674  0  1.00751  0
H  H19  1  0.97822665  0.99131748  0.13947254  1  0  0.08636  0  0.939453  0  0  0.099239  0  1.008309  0  0  0.099975  0  1.009461  0  0  0.099813  0.098676  0  1.007491  0
H  H20  1  0.86535181  0.14243736  0.65986200  1  0  0.092401  0  0.946459  0  0  0.100803  0  1.023957  0  0  0.101495  0  1.02372  0  0  0.115128  0.100194  0  1.023989  0
H  H21  1  0.13464902  0.85755890  0.34013756  1  0  0.092408  0  0.946411  0  0  0.1008  0  1.023917  0  0  0.101494  0  1.023668  0  0  0.115134  0.100191  0  1.023946  0
H  H22  1  0.96498621  0.26758152  0.59812810  1  0  0.083645  0  0.895704  0  0  0.106618  0  0.94502  0  0  0.106742  0  0.945288  0  0  0.123409  0.106259  0  0.94519  0
H  H23  1  0.03501322  0.73241587  0.40187037  1  0  0.083585  0  0.895765  0  0  0.106575  0  0.945053  0  0  0.106696  0  0.945321  0  0  0.123408  0.106214  0  0.945225  0
H  H24  1  0.19054566  0.19805608  0.45124614  1  0  0.123792  0  0.917389  0  0  0.136981  0  0.972665  0  0  0.139918  0  0.96882  0  0  0.151037  0.134726  0  0.975459  0
H  H25  1  0.80945632  0.80194664  0.54875729  1  0  0.123801  0  0.917424  0  0  0.136995  0  0.972691  0  0  0.139928  0  0.968847  0  0  0.151035  0.134739  0  0.975484  0
H  H26  1  0.25093629  0.74820024  0.57112423  1  0  0.104225  0  0.910504  0  0  0.117707  0  0.963472  0  0  0.119301  0  0.962142  0  0  0.142771  0.116381  0  0.964653  0
H  H27  1  0.74906562  0.25180255  0.42887284  1  0  0.104183  0  0.910519  0  0  0.117642  0  0.963516  0  0  0.119236  0  0.962185  0  0  0.142759  0.116317  0  0.964694  0
H  H28  1  0.90691894  0.39429395  0.94621920  1  0  0.345342  0  0.956736  0  0  0.309356  0  1.05546  0  0  0.320403  0  1.04169  0  0  0.287516  0.30172  0  1.064193  0
H  H29  1  0.09308189  0.60570560  0.05377738  1  0  0.345364  0  0.956674  0  0  0.309375  0  1.055404  0  0  0.320423  0  1.041655  0  0  0.287539  0.301739  0  1.064137  0
H  H30  1  0.55667770  0.68820071  0.45531662  1  0  0.417813  0  0.854482  0  0  0.394317  0  0.921156  0  0  0.403483  0  0.908477  0  0  0.296734  0.387571  0  0.928973  0
H  H31  1  0.44332175  0.31179337  0.54468665  1  0  0.417878  0  0.854421  0  0  0.394379  0  0.921096  0  0  0.403545  0  0.908394  0  0  0.296775  0.387635  0  0.928914  0
H  H32  1  0.58701142  0.76594882  0.54323940  1  0  0.419305  0  0.893905  0  0  0.384782  0  0.964514  0  0  0.396215  0  0.948025  0  0  0.278188  0.376593  0  0.976278  0
H  H33  1  0.41298732  0.23404749  0.45676047  1  0  0.419316  0  0.893881  0  0  0.384818  0  0.96444  0  0  0.396252  0  0.94795  0  0  0.278206  0.376631  0  0.976202  0
C  C34  1  0.48649440  0.69632411  0.24113830  1  0  0.628287  0  3.934523  0  0  0.585527  0  4.213858  0  0  0.619218  0  4.208392  0  0  0.189825  0.562361  0  4.21662  0
C  C35  1  0.51350891  0.30367756  0.75885896  1  0  0.628322  0  3.934357  0  0  0.585584  0  4.21366  0  0  0.619276  0  4.208193  0  0  0.189832  0.562419  0  4.216424  0
C  C36  1  0.54715580  0.57647346  0.18360219  1  0  -0.049928  0  3.788205  0  0  -0.024083  0  4.023661  0  0  -0.031733  0  4.046883  0  0  -0.026112  -0.019271  0  4.008709  0
C  C37  1  0.45284473  0.42352716  0.81639768  1  0  -0.049932  0  3.788104  0  0  -0.024084  0  4.023551  0  0  -0.031738  0  4.04677  0  0  -0.026118  -0.019274  0  4.008599  0
C  C38  1  0.65514571  0.58718720  0.08272215  1  0  -0.160868  0  3.673976  0  0  -0.197531  0  3.924438  0  0  -0.198233  0  3.942119  0  0  -0.096072  -0.195892  0  3.911732  0
C  C39  1  0.34485971  0.41280785  0.91728168  1  0  -0.160877  0  3.673808  0  0  -0.197541  0  3.924264  0  0  -0.198228  0  3.941957  0  0  -0.096064  -0.1959  0  3.911559  0
C  C40  1  0.72197561  0.47387884  0.03218391  1  0  0.322849  0  3.840319  0  0  0.325047  0  4.095898  0  0  0.332614  0  4.113717  0  0  0.075732  0.319325  0  4.083553  0
C  C41  1  0.27802423  0.52611738  0.96782126  1  0  0.322986  0  3.840231  0  0  0.325151  0  4.095874  0  0  0.332718  0  4.113688  0  0  0.075764  0.31943  0  4.083528  0
C  C42  1  0.67740068  0.34951145  0.08239722  1  0  -0.185093  0  3.707589  0  0  -0.221566  0  3.963606  0  0  -0.223371  0  3.983063  0  0  -0.096201  -0.219381  0  3.950023  0
C  C43  1  0.32259498  0.65048485  0.91760947  1  0  -0.185161  0  3.70773  0  0  -0.221658  0  3.963758  0  0  -0.223446  0  3.983237  0  0  -0.096237  -0.219464  0  3.950161  0
C  C44  1  0.56674032  0.33965353  0.18155314  1  0  -0.062486  0  3.809787  0  0  -0.036912  0  4.049057  0  0  -0.04526  0  4.073992  0  0  -0.027022  -0.031699  0  4.033053  0
C  C45  1  0.43325184  0.66035051  0.81844770  1  0  -0.062394  0  3.809718  0  0  -0.036717  0  4.048868  0  0  -0.04513  0  4.073887  0  0  -0.026976  -0.031506  0  4.032864  0
C  C46  1  0.50161452  0.45301118  0.23254030  1  0  -0.100207  0  3.728293  0  0  -0.141497  0  3.983037  0  0  -0.140303  0  4.002183  0  0  -0.093789  -0.142927  0  3.971926  0
C  C47  1  0.49837869  0.54699283  0.76746038  1  0  -0.100314  0  3.728437  0  0  -0.14165  0  3.983186  0  0  -0.140432  0  4.002349  0  0  -0.09384  -0.143074  0  3.972072  0
C  C48  1  0.51770123  0.20823531  0.23090986  1  0  0.649864  0  3.888204  0  0  0.599032  0  4.175184  0  0  0.633495  0  4.169153  0  0  0.199241  0.575502  0  4.178428  0
C  C49  1  0.48229166  0.79176978  0.76909322  1  0  0.649641  0  3.888472  0  0  0.598781  0  4.175468  0  0  0.63326  0  4.169444  0  0  0.199166  0.575251  0  4.178708  0
C  C50  1  0.11745469  0.19480759  0.11852241  1  0  0.231279  0  3.71081  0  0  0.166377  0  4.012644  0  0  0.180833  0  4.022929  0  0  0.157702  0.156868  0  4.005366  0
C  C51  1  0.88254686  0.80519632  0.88147250  1  0  0.231145  0  3.710852  0  0  0.166219  0  4.012658  0  0  0.180673  0  4.022944  0  0  0.157664  0.156708  0  4.005385  0
C  C52  1  0.27005243  0.05241258  0.02378547  1  0  0.200127  0  3.592741  0  0  0.120092  0  3.862844  0  0  0.136277  0  3.87169  0  0  0.174442  0.109714  0  3.856901  0
C  C53  1  0.72994702  0.94758807  0.97621274  1  0  0.200147  0  3.592722  0  0  0.120073  0  3.862808  0  0  0.13628  0  3.871664  0  0  0.174437  0.109696  0  3.856865  0
C  C54  1  0.13899054  0.16372123  0.80953597  1  0  -0.018814  0  3.61896  0  0  -0.097018  0  3.884715  0  0  -0.093149  0  3.89497  0  0  -0.049046  -0.099345  0  3.877232  0
C  C55  1  0.86101067  0.83628048  0.19046159  1  0  -0.018658  0  3.618882  0  0  -0.096899  0  3.884664  0  0  -0.093022  0  3.894916  0  0  -0.049008  -0.099224  0  3.877179  0
C  C56  1  0.00458338  0.12503962  0.80208916  1  0  -0.140172  0  3.662759  0  0  -0.188541  0  3.941284  0  0  -0.190212  0  3.953889  0  0  -0.157961  -0.186954  0  3.932351  0
C  C57  1  0.99541500  0.87495779  0.19790855  1  0  -0.140204  0  3.662793  0  0  -0.188592  0  3.941328  0  0  -0.190264  0  3.95393  0  0  -0.157975  -0.187006  0  3.932392  0
C  C58  1  0.97185113  0.15497359  0.66170777  1  0  -0.005505  0  3.622391  0  0  -0.08354  0  3.884862  0  0  -0.079227  0  3.895692  0  0  -0.043316  -0.08604  0  3.877261  0
C  C59  1  0.02814656  0.84502602  0.33829017  1  0  -0.005405  0  3.622332  0  0  -0.083433  0  3.884763  0  0  -0.079106  0  3.895579  0  0  -0.043308  -0.085927  0  3.877149  0
C  C60  1  0.17977519  0.09018580  0.50122869  1  0  0.182284  0  3.628482  0  0  0.101249  0  3.892695  0  0  0.116051  0  3.9046  0  0  0.167551  0.092251  0  3.883514  0
C  C61  1  0.82022709  0.90981587  0.49877144  1  0  0.182243  0  3.628385  0  0  0.101177  0  3.892615  0  0  0.115986  0  3.904511  0  0  0.167536  0.092182  0  3.883433  0
C  C62  1  0.20800348  0.86217816  0.56472314  1  0  0.198945  0  3.718862  0  0  0.143741  0  4.016441  0  0  0.155249  0  4.03014  0  0  0.147365  0.136149  0  4.006842  0
C  C63  1  0.79200018  0.13782240  0.43527536  1  0  0.199132  0  3.719107  0  0  0.143952  0  4.01666  0  0  0.155465  0  4.030358  0  0  0.147449  0.136362  0  4.007062  0
N  N64  1  0.24591378  0.07982820  0.13632836  1  0  -0.426039  0  3.157842  0  0  -0.355562  0  3.457636  0  0  -0.379515  0  3.471263  0  0  -0.345568  -0.339007  0  3.447435  0
N  N65  1  0.75408637  0.92017354  0.86366844  1  0  -0.426048  0  3.157911  0  0  -0.355577  0  3.457736  0  0  -0.379525  0  3.471352  0  0  -0.345584  -0.339022  0  3.447534  0
N  N66  1  0.06078363  0.23827247  0.00233088  1  0  -0.293176  0  2.96308  0  0  -0.26845  0  3.224783  0  0  -0.280252  0  3.237713  0  0  -0.212162  -0.260441  0  3.216304  0
N  N67  1  0.93921899  0.76173139  0.99766569  1  0  -0.293126  0  2.963004  0  0  -0.268379  0  3.22468  0  0  -0.280175  0  3.237618  0  0  -0.212101  -0.260369  0  3.216202  0
N  N68  1  0.15953512  0.14682780  0.94314230  1  0  0.048137  0  3.549839  0  0  0.164426  0  3.740447  0  0  0.153757  0  3.764655  0  0  -0.134411  0.169988  0  3.726775  0
N  N69  1  0.84046400  0.85317395  0.05685557  1  0  0.04804  0  3.549765  0  0  0.164336  0  3.740372  0  0  0.153641  0  3.764625  0  0  -0.1345  0.169899  0  3.7267  0
N  N70  1  0.25978042  0.96858476  0.47502001  1  0  -0.417171  0  3.212577  0  0  -0.3447  0  3.513676  0  0  -0.368061  0  3.527646  0  0  -0.348883  -0.328033  0  3.502329  0
N  N71  1  0.74022714  0.03141677  0.52498300  1  0  -0.417268  0  3.212775  0  0  -0.344793  0  3.513862  0  0  -0.368151  0  3.527831  0  0  -0.348923  -0.328119  0  3.502495  0
N  N72  1  0.08419091  0.05731042  0.60159733  1  0  0.035532  0  3.560038  0  0  0.160748  0  3.745332  0  0  0.149446  0  3.771089  0  0  -0.132521  0.166821  0  3.7301  0
N  N73  1  0.91581065  0.94269018  0.39840148  1  0  0.035556  0  3.559814  0  0  0.160796  0  3.745086  0  0  0.14949  0  3.770845  0  0  -0.132508  0.16686  0  3.729863  0
N  N74  1  0.10055572  0.91175238  0.64357652  1  0  -0.269638  0  2.847079  0  0  -0.270507  0  3.118789  0  0  -0.279173  0  3.133937  0  0  -0.218755  -0.26467  0  3.108763  0
N  N75  1  0.89944581  0.08824825  0.35641956  1  0  -0.269716  0  2.846973  0  0  -0.270603  0  3.118685  0  0  -0.279273  0  3.133836  0  0  -0.218794  -0.264767  0  3.10866  0
O  O76  1  0.82701066  0.49094253  0.93417060  1  0  -0.536999  0  2.106115  0  0  -0.489467  0  2.317054  0  0  -0.506543  0  2.306586  0  0  -0.381396  -0.477002  0  2.323421  0
O  O77  1  0.17299061  0.50905584  0.06583540  1  0  -0.537084  0  2.106044  0  0  -0.48954  0  2.316999  0  0  -0.506615  0  2.306546  0  0  -0.38145  -0.477079  0  2.323368  0
O  O78  1  0.42138162  0.19510866  0.32550607  1  0  -0.665424  0  2.005561  0  0  -0.595426  0  2.236177  0  0  -0.624102  0  2.22578  0  0  -0.328498  -0.574369  0  2.242017  0
O  O79  1  0.57860564  0.80489767  0.67449198  1  0  -0.66535  0  2.005709  0  0  -0.59535  0  2.236352  0  0  -0.624018  0  2.22595  0  0  -0.328505  -0.57429  0  2.24219  0
O  O80  1  0.57204682  0.11026000  0.17756108  1  0  -0.634031  0  1.973209  0  0  -0.568102  0  2.214617  0  0  -0.596222  0  2.205272  0  0  -0.324589  -0.547251  0  2.221438  0
O  O81  1  0.42795586  0.88974050  0.82244576  1  0  -0.633906  0  1.9733  0  0  -0.567974  0  2.214678  0  0  -0.596115  0  2.205381  0  0  -0.32452  -0.547125  0  2.221497  0
O  O82  1  0.40513810  0.68010625  0.34485478  1  0  -0.663566  0  1.875439  0  0  -0.612515  0  2.088489  0  0  -0.636033  0  2.078011  0  0  -0.351994  -0.594983  0  2.09461  0
O  O83  1  0.59486035  0.31989768  0.65514422  1  0  -0.663494  0  1.875466  0  0  -0.612452  0  2.088504  0  0  -0.635964  0  2.078026  0  0  -0.35193  -0.59492  0  2.094625  0
O  O84  1  0.52629108  0.81060765  0.18118415  1  0  -0.653149  0  2.012718  0  0  -0.584031  0  2.259675  0  0  -0.614668  0  2.251893  0  0  -0.338568  -0.561045  0  2.265165  0
O  O85  1  0.47371397  0.18939179  0.81881545  1  0  -0.653243  0  2.012622  0  0  -0.584131  0  2.259578  0  0  -0.614763  0  2.251789  0  0  -0.338625  -0.561146  0  2.265069  0
O  O86  1  0.60315663  0.75812582  0.45332146  1  0  -0.84168  0  1.834081  0  0  -0.786249  0  2.02603  0  0  -0.807695  0  1.99451  0  0  -0.595383  -0.771289  0  2.047202  0
O  O87  1  0.39685396  0.24186261  0.54668031  1  0  -0.841729  0  1.834023  0  0  -0.786322  0  2.026006  0  0  -0.80777  0  1.994462  0  0  -0.595423  -0.77136  0  2.047168  0
