# generated using pymatgen
data_Na2H32C23O6
_symmetry_space_group_name_H-M   'P 1'
_cell_length_a   10.59793487
_cell_length_b   11.12935595
_cell_length_c   11.59438544
_cell_angle_alpha   61.87750026
_cell_angle_beta   87.59449399
_cell_angle_gamma   69.34192560
_symmetry_Int_Tables_number   1
_chemical_formula_structural   Na2H32C23O6
_chemical_formula_sum   'Na4 H64 C46 O12'
_cell_volume   1115.66010507
_cell_formula_units_Z   2
loop_
 _symmetry_equiv_pos_site_id
 _symmetry_equiv_pos_as_xyz
  1  'x, y, z'
loop_
 _atom_site_type_symbol
 _atom_site_label
 _atom_site_symmetry_multiplicity
 _atom_site_fract_x
 _atom_site_fract_y
 _atom_site_fract_z
 _atom_site_occupancy
 _atom_site_pbe_bader_spin_density
 _atom_site_pbe_cm5_charge
 _atom_site_pbe_ddec_charge
 _atom_site_pbe_ddec_spin_density
 _atom_site_pbe_ddec_sum_bond_order
 _atom_site_pbe_magmom
Na  Na0  1  0.52039556  0.45977616  0.68307867  1  0  0.712655  0.821056  0  0.604708  0
Na  Na1  1  0.47960595  0.54022553  0.31692057  1  0  0.712642  0.821056  0  0.60471  0
Na  Na2  1  0.63246696  0.49571751  0.94838145  1  0  0.671226  0.842841  0  0.581582  0
Na  Na3  1  0.36753210  0.50428310  0.05161750  1  0  0.671235  0.842859  0  0.581574  0
H  H4  1  0.44059798  0.71622003  0.78130623  1  0  0.087705  0.056796  0  1.12122  0
H  H5  1  0.55940148  0.28377948  0.21869061  1  0  0.087695  0.056783  0  1.121165  0
H  H6  1  0.33201012  0.98159978  0.69475912  1  0  0.083062  0.073066  0  1.05482  0
H  H7  1  0.66798818  0.01839754  0.30524306  1  0  0.083024  0.073041  0  1.054813  0
H  H8  1  0.08256542  0.11654078  0.60262775  1  0  0.081246  0.081314  0  1.048741  0
H  H9  1  0.91743191  0.88345655  0.39737791  1  0  0.081232  0.081313  0  1.048758  0
H  H10  1  0.94434901  0.96813527  0.61647567  1  0  0.084775  0.079043  0  1.040067  0
H  H11  1  0.05564965  0.03186095  0.38353044  1  0  0.084759  0.078982  0  1.040041  0
H  H12  1  0.04885220  0.70410827  0.70981406  1  0  0.081252  0.06906  0  1.101525  0
H  H13  1  0.95114744  0.29588794  0.29018685  1  0  0.081229  0.069055  0  1.101507  0
H  H14  1  0.46444084  0.23712559  0.91824711  1  0  0.087826  0.079377  0  1.088153  0
H  H15  1  0.53556051  0.76286841  0.08175388  1  0  0.087848  0.079394  0  1.088177  0
H  H16  1  0.39801090  0.04840855  0.91363288  1  0  0.087775  0.086432  0  1.018107  0
H  H17  1  0.60198552  0.95158879  0.08636763  1  0  0.087785  0.086438  0  1.018091  0
H  H18  1  0.17676258  0.12005105  0.78076037  1  0  0.077439  0.072196  0  1.106811  0
H  H19  1  0.82323098  0.87995179  0.21923948  1  0  0.077438  0.0722  0  1.106789  0
H  H20  1  0.03457079  0.38918758  0.64181200  1  0  0.08228  0.073534  0  1.03869  0
H  H21  1  0.96542750  0.61081524  0.35818684  1  0  0.08227  0.073527  0  1.038654  0
H  H22  1  0.09687293  0.57545780  0.64677639  1  0  0.082869  0.074314  0  1.083552  0
H  H23  1  0.90312707  0.42454281  0.35322425  1  0  0.082872  0.074312  0  1.083527  0
H  H24  1  0.92268980  0.48220789  0.95197032  1  0  0.104645  0.104431  0  1.019498  0
H  H25  1  0.07731169  0.51778832  0.04803743  1  0  0.10465  0.104413  0  1.019448  0
H  H26  1  0.99567247  0.30010120  0.09019660  1  0  0.087567  0.079988  0  1.056889  0
H  H27  1  0.00432658  0.69989392  0.90980827  1  0  0.087492  0.079854  0  1.056993  0
H  H28  1  0.04678327  0.33931711  0.92930943  1  0  0.091234  0.099263  0  1.040253  0
H  H29  1  0.95321728  0.66067911  0.07069748  1  0  0.091234  0.099232  0  1.04021  0
H  H30  1  0.97760481  0.15387685  0.93764113  1  0  0.094277  0.05707  0  1.017368  0
H  H31  1  0.02239557  0.84612266  0.06235826  1  0  0.094289  0.057074  0  1.017367  0
H  H32  1  0.91254351  0.11507718  0.09162421  1  0  0.099135  0.071604  0  1.012559  0
H  H33  1  0.08745726  0.88492123  0.90837653  1  0  0.09914  0.071637  0  1.012513  0
H  H34  1  0.67577422  0.21285637  0.97561922  1  0  0.11743  0.085702  0  1.000848  0
H  H35  1  0.32422712  0.78714312  0.02438015  1  0  0.117444  0.08571  0  1.000819  0
H  H36  1  0.78805650  0.05468317  0.96744981  1  0  0.101905  0.069768  0  1.005132  0
H  H37  1  0.21194352  0.94531744  0.03254738  1  0  0.1019  0.069783  0  1.005107  0
H  H38  1  0.91761515  0.18543148  0.73540625  1  0  0.102163  0.07417  0  0.99985  0
H  H39  1  0.08238655  0.81457241  0.26459199  1  0  0.102113  0.074015  0  0.999947  0
H  H40  1  0.81406061  0.08346340  0.75573720  1  0  0.09627  0.056876  0  1.007395  0
H  H41  1  0.18594223  0.91653719  0.24426249  1  0  0.096295  0.0569  0  1.007365  0
H  H42  1  0.80943914  0.24614487  0.51641609  1  0  0.107015  0.084897  0  1.005536  0
H  H43  1  0.19056218  0.75385463  0.48358587  1  0  0.106998  0.084867  0  1.005555  0
H  H44  1  0.76627610  0.40231081  0.53977976  1  0  0.112407  0.082588  0  1.006301  0
H  H45  1  0.23372543  0.59769088  0.46021689  1  0  0.112375  0.082483  0  1.006279  0
H  H46  1  0.62705273  0.17084104  0.50244865  1  0  0.104458  0.079338  0  1.002373  0
H  H47  1  0.37294896  0.82916285  0.49755045  1  0  0.104455  0.079321  0  1.002367  0
H  H48  1  0.61422301  0.12383703  0.67279130  1  0  0.103686  0.068007  0  1.010155  0
H  H49  1  0.38577869  0.87616686  0.32720608  1  0  0.103668  0.067974  0  1.010105  0
H  H50  1  0.37533410  0.29953825  0.61284384  1  0  0.101903  0.066175  0  1.047728  0
H  H51  1  0.62466590  0.70046784  0.38715346  1  0  0.101877  0.066109  0  1.04781  0
H  H52  1  0.40238978  0.16208299  0.56672311  1  0  0.100994  0.064755  0  1.0102  0
H  H53  1  0.59761078  0.83791871  0.43327788  1  0  0.100973  0.06472  0  1.010207  0
H  H54  1  0.17585905  0.38411085  0.44754334  1  0  0.103861  0.074542  0  0.995989  0
H  H55  1  0.82414228  0.61589414  0.55245268  1  0  0.103848  0.074539  0  0.996015  0
H  H56  1  0.19487114  0.50334197  0.28291893  1  0  0.115926  0.085691  0  1.024238  0
H  H57  1  0.80513152  0.49666191  0.71707669  1  0  0.115933  0.085692  0  1.02422  0
H  H58  1  0.13670283  0.28809025  0.31093005  1  0  0.101064  0.068701  0  1.008971  0
H  H59  1  0.86329621  0.71191586  0.68906728  1  0  0.10105  0.068678  0  1.009001  0
H  H60  1  0.30045456  0.16674912  0.40676421  1  0  0.099803  0.064097  0  0.993672  0
H  H61  1  0.69954298  0.83325589  0.59323280  1  0  0.099821  0.064117  0  0.993561  0
H  H62  1  0.36848733  0.22169958  0.08621989  1  0  0.107034  0.115145  0  1.040437  0
H  H63  1  0.63151439  0.77829882  0.91377997  1  0  0.107051  0.115168  0  1.040419  0
H  H64  1  0.40798115  0.08864742  0.25949267  1  0  0.090685  0.083218  0  1.021788  0
H  H65  1  0.59201695  0.91135320  0.74050803  1  0  0.090671  0.083185  0  1.021775  0
H  H66  1  0.23722596  0.16944546  0.17321651  1  0  0.092221  0.086986  0  1.012651  0
H  H67  1  0.76277234  0.83055735  0.82678147  1  0  0.092184  0.086943  0  1.012645  0
C  C68  1  0.32834458  0.52463322  0.80893432  1  0  -0.07089  0.026172  0  4.277939  0
C  C69  1  0.67165752  0.47536408  0.19106602  1  0  -0.070871  0.026188  0  4.277905  0
C  C70  1  0.25735411  0.68176007  0.75124807  1  0  -0.045884  0.009228  0  4.070456  0
C  C71  1  0.74264704  0.31823723  0.24875316  1  0  -0.045892  0.009245  0  4.070284  0
C  C72  1  0.33134541  0.76994363  0.74685988  1  0  -0.123795  -0.178899  0  4.024822  0
C  C73  1  0.66865594  0.23005038  0.25314197  1  0  -0.123751  -0.178828  0  4.024724  0
C  C74  1  0.26977543  0.92132996  0.69510233  1  0  -0.117299  -0.097502  0  4.118848  0
C  C75  1  0.73022210  0.07866956  0.30490061  1  0  -0.117277  -0.09747  0  4.118795  0
C  C76  1  0.12992108  0.99737846  0.64558685  1  0  -0.148307  -0.185406  0  4.107762  0
C  C77  1  0.87007872  0.00261447  0.35442072  1  0  -0.148325  -0.185534  0  4.107607  0
C  C78  1  0.05370976  0.91388867  0.65245620  1  0  -0.11726  -0.098927  0  4.122845  0
C  C79  1  0.94628796  0.08610756  0.34754908  1  0  -0.117231  -0.098784  0  4.122818  0
C  C80  1  0.11433024  0.76285043  0.70247252  1  0  -0.1222  -0.171523  0  4.026943  0
C  C81  1  0.88567054  0.23714248  0.29752984  1  0  -0.122147  -0.171536  0  4.027105  0
C  C82  1  0.28193633  0.42492933  0.79434536  1  0  -0.060741  -0.016214  0  4.088663  0
C  C83  1  0.71806425  0.57506688  0.20565638  1  0  -0.060749  -0.01623  0  4.088643  0
C  C84  1  0.36746378  0.26974599  0.86158114  1  0  -0.137008  -0.203603  0  4.05108  0
C  C85  1  0.63253642  0.73025132  0.13842012  1  0  -0.137049  -0.203706  0  4.051133  0
C  C86  1  0.32925763  0.16403079  0.85828186  1  0  -0.116913  -0.091628  0  4.118683  0
C  C87  1  0.67073879  0.83596654  0.14171952  1  0  -0.116945  -0.091641  0  4.118605  0
C  C88  1  0.20623301  0.20277792  0.78405550  1  0  -0.157017  -0.204325  0  4.125687  0
C  C89  1  0.79376320  0.79722271  0.21594698  1  0  -0.156965  -0.204202  0  4.125482  0
C  C90  1  0.12682390  0.35400648  0.70722889  1  0  -0.123249  -0.107939  0  4.135372  0
C  C91  1  0.87317308  0.64599195  0.29277284  1  0  -0.123282  -0.108035  0  4.135367  0
C  C92  1  0.16193863  0.46109726  0.71117390  1  0  -0.125634  -0.174582  0  4.026315  0
C  C93  1  0.83806118  0.53890116  0.28882860  1  0  -0.125623  -0.174518  0  4.026249  0
C  C94  1  0.96176996  0.36475738  0.98258247  1  0  -0.153863  -0.184589  0  3.917332  0
C  C95  1  0.03823193  0.63523773  0.01742318  1  0  -0.153783  -0.184362  0  3.917282  0
C  C96  1  0.88693232  0.18662150  0.98305939  1  0  -0.07725  -0.010496  0  3.917666  0
C  C97  1  0.11306768  0.81337910  0.01694039  1  0  -0.077248  -0.010494  0  3.917594  0
C  C98  1  0.76594357  0.17168478  0.93442828  1  0  -0.068922  -0.011349  0  3.914542  0
C  C99  1  0.23405625  0.82831363  0.06557163  1  0  -0.068936  -0.011377  0  3.914535  0
C  C100  1  0.81121867  0.19569121  0.72089186  1  0  -0.075993  -0.010993  0  3.934083  0
C  C101  1  0.18878305  0.80431268  0.27910380  1  0  -0.075965  -0.010795  0  3.934003  0
C  C102  1  0.75430424  0.29711174  0.57484768  1  0  -0.075609  -0.022301  0  3.901562  0
C  C103  1  0.24569690  0.70289106  0.42515107  1  0  -0.075527  -0.022147  0  3.901305  0
C  C104  1  0.57745252  0.21208954  0.56935396  1  0  -0.077017  -0.017345  0  3.935398  0
C  C105  1  0.42255051  0.78791325  0.43064473  1  0  -0.077018  -0.017316  0  3.93524  0
C  C106  1  0.42508174  0.25933537  0.54544772  1  0  -0.074415  -0.009723  0  3.938047  0
C  C107  1  0.57491997  0.74066852  0.45454879  1  0  -0.074398  -0.009677  0  3.938133  0
C  C108  1  0.23898579  0.39191289  0.36808183  1  0  -0.072033  -0.019393  0  3.920747  0
C  C109  1  0.76101498  0.60809100  0.63191385  1  0  -0.072008  -0.019393  0  3.920727  0
C  C110  1  0.24185441  0.28021255  0.32773288  1  0  -0.070557  0.000104  0  3.916035  0
C  C111  1  0.75814484  0.71979026  0.67226507  1  0  -0.070547  0.000166  0  3.915833  0
C  C112  1  0.33022816  0.19002525  0.18119682  1  0  -0.14494  -0.175309  0  3.920459  0
C  C113  1  0.66977185  0.80997536  0.81880209  1  0  -0.144926  -0.175266  0  3.920382  0
O  O114  1  0.45733051  0.46571142  0.87754792  1  0  -0.639322  -0.8483  0  2.271979  0
O  O115  1  0.54267027  0.53428698  0.12245024  1  0  -0.639329  -0.848321  0  2.271911  0
O  O116  1  0.85014372  0.33715295  0.94915000  1  0  -0.295652  -0.243985  0  2.590891  0
O  O117  1  0.14985703  0.66284546  0.05085247  1  0  -0.295668  -0.244059  0  2.590918  0
O  O118  1  0.72697586  0.25808366  0.79348059  1  0  -0.290125  -0.275842  0  2.570165  0
O  O119  1  0.27302337  0.74191914  0.20651994  1  0  -0.290142  -0.275875  0  2.570192  0
O  O120  1  0.60970370  0.33593771  0.54726642  1  0  -0.296114  -0.299833  0  2.543582  0
O  O121  1  0.39029593  0.66406399  0.45273201  1  0  -0.296105  -0.299856  0  2.543501  0
O  O122  1  0.37336950  0.37237610  0.41074851  1  0  -0.295107  -0.277752  0  2.53816  0
O  O123  1  0.62663260  0.62762669  0.58924763  1  0  -0.295099  -0.277705  0  2.538123  0
O  O124  1  0.30134587  0.30809576  0.20918819  1  0  -0.282694  -0.229812  0  2.56439  0
O  O125  1  0.69865395  0.69190814  0.79080839  1  0  -0.28267  -0.229819  0  2.564371  0
