# generated using pymatgen
data_ZnH7C16NO8
_symmetry_space_group_name_H-M   'P 1'
_cell_length_a   12.75247525
_cell_length_b   13.85811355
_cell_length_c   17.03142570
_cell_angle_alpha   89.35893487
_cell_angle_beta   84.94455582
_cell_angle_gamma   86.05596692
_symmetry_Int_Tables_number   1
_chemical_formula_structural   ZnH7C16NO8
_chemical_formula_sum   'Zn2 H14 C32 N2 O16'
_cell_volume   2991.03384536
_cell_formula_units_Z   2
loop_
 _symmetry_equiv_pos_site_id
 _symmetry_equiv_pos_as_xyz
  1  'x, y, z'
loop_
 _atom_site_type_symbol
 _atom_site_label
 _atom_site_symmetry_multiplicity
 _atom_site_fract_x
 _atom_site_fract_y
 _atom_site_fract_z
 _atom_site_occupancy
 _atom_site_pbe_bader_charge
 _atom_site_pbe_bader_spin_density
 _atom_site_pbe_cm5_charge
 _atom_site_pbe_ddec_charge
 _atom_site_pbe_ddec_spin_density
 _atom_site_pbe_ddec_sum_bond_order
 _atom_site_pbe_magmom
Zn  Zn0  1  0.39402869  0.49041413  0.50228035  1  1.322157  0  0.684582  0.886909  0  2.424807  0
Zn  Zn1  1  0.60957723  0.50991845  0.49658069  1  1.319481  0  0.684098  0.886438  0  2.420443  0
H  H2  1  0.59124684  0.64487749  0.72122345  1  0.119289  0  0.112085  0.123669  0  0.989597  0
H  H3  1  0.01550674  0.42185551  0.43118817  1  0.182192  0  0.159872  0.171101  0  0.918325  0
H  H4  1  0.31912688  0.83106228  0.08936051  1  0.613728  0  0.346174  0.383024  0  0.849528  0
H  H5  1  0.57771000  0.84821611  0.91020730  1  0.62311  0  0.346414  0.382784  0  0.847982  0
H  H6  1  0.26844961  0.14197682  0.55502442  1  0.599986  0  0.351196  0.385691  0  0.842696  0
H  H7  1  0.72981060  0.85892051  0.44570571  1  0.612819  0  0.352127  0.388053  0  0.838868  0
H  H8  1  0.36783867  0.63006378  0.27858127  1  0.111373  0  0.112521  0.123521  0  0.988657  0
H  H9  1  0.67953892  0.49242616  0.23445382  1  0.090471  0  0.108122  0.112947  0  0.988555  0
H  H10  1  0.32732743  0.46904267  0.76379140  1  0.097375  0  0.107573  0.111612  0  0.990293  0
H  H11  1  0.60213915  0.62344428  0.98689359  1  0.068994  0  0.105656  0.105361  0  0.997451  0
H  H12  1  0.36221828  0.60765605  0.01231239  1  0.078248  0  0.105332  0.104969  0  0.996485  0
H  H13  1  0.31114279  0.51577965  0.90561237  1  0.083652  0  0.105609  0.106652  0  0.989883  0
H  H14  1  0.67996730  0.54015548  0.09282395  1  0.070051  0  0.105829  0.107147  0  0.990218  0
H  H15  1  0.98944911  0.57352426  0.56666278  1  0.181701  0  0.161436  0.174119  0  0.915278  0
C  C16  1  0.46201100  0.68743456  0.49989842  1  1.732179  0  0.21803  0.657055  0  4.249569  0
C  C17  1  0.96643912  0.52610752  0.52127963  1  0.137482  0  -0.00476  -0.075487  0  3.929471  0
C  C18  1  0.85768586  0.52651697  0.51084017  1  0.871238  0  0.256382  0.337082  0  3.922123  0
C  C19  1  0.14702085  0.46970784  0.48695461  1  0.87135  0  0.254449  0.33342  0  3.927776  0
C  C20  1  0.47851006  0.51860440  0.65054615  1  1.572169  0  0.216442  0.599999  0  4.162859  0
C  C21  1  0.51716936  0.52085324  0.34844605  1  1.578361  0  0.215833  0.600496  0  4.165172  0
C  C22  1  0.46338943  0.55036779  0.73458239  1  -0.008615  0  -0.015315  -0.029353  0  3.965873  0
C  C23  1  0.52160016  0.55409809  0.26449889  1  0.035649  0  -0.014664  -0.029216  0  3.962871  0
C  C24  1  0.53013058  0.61613848  0.76189990  1  -0.021807  0  -0.068407  -0.093528  0  3.920996  0
C  C25  1  0.43615651  0.60987161  0.23763219  1  -0.071105  0  -0.067851  -0.091281  0  3.914909  0
C  C26  1  0.51717352  0.64815291  0.83980134  1  -0.028088  0  -0.01163  -0.079972  0  3.923782  0
C  C27  1  0.54165355  0.31450144  0.50057943  1  1.704982  0  0.223222  0.66837  0  4.233919  0
C  C28  1  0.43873872  0.64315697  0.15983153  1  0.003012  0  -0.010926  -0.077851  0  3.917363  0
C  C29  1  0.44118317  0.60798217  0.89419082  1  0.042914  0  0.0038  0.109031  0  3.987753  0
C  C30  1  0.52498166  0.61370868  0.10504483  1  -0.007947  0  0.00382  0.107627  0  3.988111  0
C  C31  1  0.37146617  0.54548988  0.86459221  1  -0.120188  0  -0.085733  -0.135638  0  3.973936  0
C  C32  1  0.61228031  0.56150251  0.13420707  1  0.027528  0  -0.086656  -0.136653  0  3.977458  0
C  C33  1  0.38114955  0.51787383  0.78598375  1  0.024341  0  -0.076931  -0.077105  0  3.980119  0
C  C34  1  0.61172006  0.53315432  0.21272725  1  -0.112773  0  -0.077101  -0.078164  0  3.979115  0
C  C35  1  0.43835080  0.61789929  0.97950719  1  0.011546  0  -0.085555  -0.120703  0  3.982842  0
C  C36  1  0.52446762  0.62362989  0.01974742  1  -0.082445  0  -0.085069  -0.119997  0  3.982536  0
C  C37  1  0.34956590  0.71246634  0.14095451  1  1.48018  0  0.226458  0.57717  0  4.136859  0
C  C38  1  0.55516881  0.21012787  0.50175919  1  0.2407  0  -0.022543  -0.136559  0  3.890539  0
C  C39  1  0.58398551  0.72726367  0.85939220  1  1.496701  0  0.227024  0.577399  0  4.139511  0
C  C40  1  0.35065077  0.04171173  0.50018660  1  1.554863  0  0.241357  0.587382  0  4.116064  0
C  C41  1  0.64913157  0.95893665  0.50249602  1  1.576578  0  0.242019  0.589728  0  4.122673  0
C  C42  1  0.44744538  0.79172470  0.50087147  1  0.090394  0  -0.021297  -0.133108  0  3.895241  0
C  C43  1  0.54780497  0.02175198  0.50151920  1  0.16654  0  0.024412  -0.003924  0  3.964174  0
C  C44  1  0.45266708  0.98029572  0.50151384  1  0.100267  0  0.024493  0.003078  0  3.957036  0
C  C45  1  0.44635671  0.87972380  0.50004652  1  -0.360425  0  -0.029754  -0.035151  0  4.123031  0
C  C46  1  0.55492855  0.12216309  0.50336952  1  -0.510404  0  -0.028063  -0.030573  0  4.12448  0
C  C47  1  0.03829997  0.46937449  0.47656916  1  0.127065  0  -0.004587  -0.072491  0  3.930854  0
N  N48  1  0.23629606  0.46992957  0.49552637  1  -1.102893  0  -0.238619  -0.247081  0  3.052326  0
N  N49  1  0.76829079  0.52762623  0.50231820  1  -1.105255  0  -0.239027  -0.248713  0  3.044917  0
O  O50  1  0.38121736  0.63972898  0.51692090  1  -1.1401  0  -0.313604  -0.540785  0  2.238325  0
O  O51  1  0.38276426  0.78977224  0.09767505  1  -1.107701  0  -0.337782  -0.483605  0  2.220119  0
O  O52  1  0.67759603  0.73078917  0.83743907  1  -1.131727  0  -0.30968  -0.503348  0  2.035669  0
O  O53  1  0.52756802  0.79984590  0.90112311  1  -1.123009  0  -0.338062  -0.482938  0  2.217284  0
O  O54  1  0.29095022  0.03632103  0.44864996  1  -1.097671  0  -0.284939  -0.468896  0  2.02274  0
O  O55  1  0.33344631  0.10219771  0.56251173  1  -1.090971  0  -0.322723  -0.466419  0  2.224112  0
O  O56  1  0.70752844  0.96093921  0.55518393  1  -1.100963  0  -0.283626  -0.467433  0  2.027543  0
O  O57  1  0.66653668  0.90128166  0.43846670  1  -1.094924  0  -0.321943  -0.466385  0  2.223946  0
O  O58  1  0.62135079  0.36201399  0.51062598  1  -1.140782  0  -0.315547  -0.543737  0  2.235307  0
O  O59  1  0.55665711  0.65408146  0.48196836  1  -1.138777  0  -0.31135  -0.544187  0  2.250918  0
O  O60  1  0.44867590  0.34848343  0.48916421  1  -1.137578  0  -0.313887  -0.548357  0  2.257092  0
O  O61  1  0.40162208  0.48146560  0.62162552  1  -1.165934  0  -0.325127  -0.557143  0  2.284632  0
O  O62  1  0.60444069  0.49796918  0.37760702  1  -1.163011  0  -0.325525  -0.558499  0  2.286555  0
O  O63  1  0.56769202  0.53253710  0.61359432  1  -1.162081  0  -0.318609  -0.556258  0  2.326394  0
O  O64  1  0.42562302  0.51918553  0.38498777  1  -1.160567  0  -0.318205  -0.555381  0  2.324099  0
O  O65  1  0.25710166  0.70511262  0.16474539  1  -1.132926  0  -0.31127  -0.505916  0  2.035931  0
