# generated using pymatgen
data_UH6(CO)6
_symmetry_space_group_name_H-M   'P 1'
_cell_length_a   7.63409777
_cell_length_b   10.46536778
_cell_length_c   10.71525244
_cell_angle_alpha   113.43232121
_cell_angle_beta   89.99987638
_cell_angle_gamma   90.00000216
_symmetry_Int_Tables_number   1
_chemical_formula_structural   UH6(CO)6
_chemical_formula_sum   'U4 H24 C24 O24'
_cell_volume   785.47994853
_cell_formula_units_Z   4
loop_
 _symmetry_equiv_pos_site_id
 _symmetry_equiv_pos_as_xyz
  1  'x, y, z'
loop_
 _atom_site_type_symbol
 _atom_site_label
 _atom_site_symmetry_multiplicity
 _atom_site_fract_x
 _atom_site_fract_y
 _atom_site_fract_z
 _atom_site_occupancy
 _atom_site_hle17_bader_spin_density
 _atom_site_hle17_ddec_charge
 _atom_site_hle17_ddec_spin_density
 _atom_site_hle17_ddec_sum_bond_order
 _atom_site_hle17_magmom
 _atom_site_hse06_10hf_bader_spin_density
 _atom_site_hse06_10hf_ddec_charge
 _atom_site_hse06_10hf_ddec_spin_density
 _atom_site_hse06_10hf_ddec_sum_bond_order
 _atom_site_hse06_10hf_magmom
 _atom_site_hse06_bader_spin_density
 _atom_site_hse06_ddec_charge
 _atom_site_hse06_ddec_spin_density
 _atom_site_hse06_ddec_sum_bond_order
 _atom_site_hse06_magmom
 _atom_site_pbe_bader_spin_density
 _atom_site_pbe_cm5_charge
 _atom_site_pbe_ddec_charge
 _atom_site_pbe_ddec_spin_density
 _atom_site_pbe_ddec_sum_bond_order
 _atom_site_pbe_magmom
U  U0  1  0.26465423  0.08348841  0.33194529  1  0  2.465867  0  4.114365  0  0  2.517418  0  4.757985  0  0  2.624651  0  4.722257  0  0  2.230799  2.442823  0  4.781971  0
U  U1  1  0.76465070  0.91651654  0.16805029  1  0  2.465941  0  4.114138  0  0  2.517501  0  4.757795  0  0  2.624797  0  4.721966  0  0  2.230862  2.442919  0  4.781746  0
U  U2  1  0.73534590  0.91651171  0.66805498  1  0  2.465874  0  4.114297  0  0  2.517446  0  4.757905  0  0  2.624689  0  4.722139  0  0  2.230784  2.442861  0  4.781868  0
U  U3  1  0.23535074  0.08348357  0.83194812  1  0  2.465882  0  4.114147  0  0  2.517475  0  4.757738  0  0  2.624737  0  4.721958  0  0  2.230852  2.442907  0  4.781686  0
H  H4  1  0.85593149  0.47101694  0.47639491  1  0  0.089452  0  0.953637  0  0  0.103879  0  1.01848  0  0  0.105145  0  1.019014  0  0  0.099366  0.102973  0  1.017915  0
H  H5  1  0.35593201  0.52898170  0.02360369  1  0  0.089461  0  0.953611  0  0  0.103876  0  1.018485  0  0  0.105142  0  1.019018  0  0  0.099359  0.102969  0  1.017918  0
H  H6  1  0.14406865  0.52898421  0.52360577  1  0  0.089467  0  0.953636  0  0  0.103888  0  1.018481  0  0  0.105152  0  1.019017  0  0  0.099375  0.102983  0  1.017916  0
H  H7  1  0.64406812  0.47101737  0.97639618  1  0  0.089483  0  0.953602  0  0  0.103903  0  1.018455  0  0  0.10517  0  1.018984  0  0  0.099372  0.102998  0  1.017889  0
H  H8  1  0.63051382  0.47357586  0.52004243  1  0  0.091934  0  0.943337  0  0  0.110078  0  0.999308  0  0  0.111686  0  0.999282  0  0  0.102848  0.108841  0  0.999378  0
H  H9  1  0.13051561  0.52642261  0.97995647  1  0  0.09192  0  0.943362  0  0  0.110121  0  0.999266  0  0  0.111731  0  0.999233  0  0  0.102844  0.10888  0  0.999334  0
H  H10  1  0.36948500  0.52642530  0.47995824  1  0  0.091952  0  0.943321  0  0  0.110093  0  0.999296  0  0  0.1117  0  0.999271  0  0  0.102864  0.108857  0  0.999365  0
H  H11  1  0.86948583  0.47357646  0.02004247  1  0  0.091955  0  0.943324  0  0  0.110098  0  0.9993  0  0  0.111704  0  0.999275  0  0  0.10285  0.108858  0  0.999368  0
H  H12  1  0.72106509  0.56697228  0.76263554  1  0  0.09966  0  0.9477  0  0  0.115639  0  1.005948  0  0  0.1176  0  1.00484  0  0  0.097826  0.114133  0  1.007006  0
H  H13  1  0.22106629  0.43302716  0.73736359  1  0  0.099669  0  0.947698  0  0  0.115646  0  1.005945  0  0  0.117606  0  1.004839  0  0  0.097813  0.114133  0  1.007003  0
H  H14  1  0.27893373  0.43302783  0.23736473  1  0  0.099677  0  0.947702  0  0  0.115647  0  1.005963  0  0  0.117609  0  1.004855  0  0  0.097813  0.114136  0  1.00702  0
H  H15  1  0.77893384  0.56697191  0.26263628  1  0  0.099672  0  0.947706  0  0  0.115648  0  1.005956  0  0  0.117608  0  1.00485  0  0  0.097814  0.114136  0  1.007015  0
H  H16  1  0.94116190  0.51929594  0.71483958  1  0  0.077845  0  0.957268  0  0  0.095625  0  1.018578  0  0  0.096587  0  1.018645  0  0  0.093079  0.094881  0  1.01861  0
H  H17  1  0.44116296  0.48070439  0.78515955  1  0  0.077873  0  0.957301  0  0  0.095631  0  1.01862  0  0  0.096594  0  1.018687  0  0  0.093089  0.094886  0  1.018651  0
H  H18  1  0.05883692  0.48070418  0.28516163  1  0  0.077861  0  0.95735  0  0  0.095639  0  1.018652  0  0  0.096602  0  1.01872  0  0  0.093081  0.094894  0  1.018682  0
H  H19  1  0.55883717  0.51929572  0.21483979  1  0  0.077815  0  0.957285  0  0  0.095608  0  1.018573  0  0  0.09657  0  1.01864  0  0  0.09307  0.094862  0  1.018604  0
H  H20  1  0.64770744  0.31819438  0.71435206  1  0  0.090285  0  0.944242  0  0  0.10563  0  1.005728  0  0  0.107158  0  1.005491  0  0  0.103815  0.104665  0  1.005633  0
H  H21  1  0.14770981  0.68180512  0.78564814  1  0  0.090273  0  0.944225  0  0  0.105627  0  1.005721  0  0  0.107155  0  1.005484  0  0  0.103824  0.104664  0  1.005626  0
H  H22  1  0.35229138  0.68180469  0.28564687  1  0  0.090289  0  0.944241  0  0  0.105619  0  1.005744  0  0  0.107146  0  1.005508  0  0  0.103824  0.104655  0  1.005648  0
H  H23  1  0.85229032  0.31819395  0.21435173  1  0  0.090262  0  0.944231  0  0  0.105638  0  1.005709  0  0  0.107165  0  1.005472  0  0  0.103829  0.104674  0  1.005613  0
H  H24  1  0.87905764  0.28592316  0.70933487  1  0  0.093924  0  0.942884  0  0  0.108409  0  1.004207  0  0  0.109727  0  1.004277  0  0  0.105061  0.107536  0  1.004114  0
H  H25  1  0.37905869  0.71407826  0.79066664  1  0  0.093941  0  0.942854  0  0  0.108431  0  1.004186  0  0  0.10975  0  1.004253  0  0  0.105088  0.107564  0  1.004097  0
H  H26  1  0.12094118  0.71407799  0.29066580  1  0  0.093926  0  0.942846  0  0  0.108405  0  1.004179  0  0  0.109723  0  1.004247  0  0  0.105066  0.107532  0  1.004089  0
H  H27  1  0.62094144  0.28592186  0.20933456  1  0  0.093924  0  0.942854  0  0  0.108421  0  1.004187  0  0  0.10974  0  1.004254  0  0  0.105079  0.107553  0  1.004095  0
C  C28  1  0.76427030  0.28345842  0.51555197  1  0  -0.151113  0  3.518543  0  0  -0.112953  0  3.72994  0  0  -0.126268  0  3.742612  0  0  0.000546  -0.104353  0  3.721651  0
C  C29  1  0.26427077  0.71654204  0.98444842  1  0  -0.15112  0  3.518487  0  0  -0.112952  0  3.729914  0  0  -0.126263  0  3.742582  0  0  0.000557  -0.104347  0  3.721628  0
C  C30  1  0.23572983  0.71654169  0.48444830  1  0  -0.151091  0  3.518514  0  0  -0.11293  0  3.729914  0  0  -0.126243  0  3.742585  0  0  0.000553  -0.104331  0  3.721632  0
C  C31  1  0.73572936  0.28345704  0.01555145  1  0  -0.151101  0  3.518446  0  0  -0.112936  0  3.729851  0  0  -0.126248  0  3.742521  0  0  0.000572  -0.104339  0  3.721569  0
C  C32  1  0.76194386  0.44301093  0.53844766  1  0  -0.106401  0  3.50002  0  0  -0.155748  0  3.752252  0  0  -0.155485  0  3.763165  0  0  -0.139438  -0.155555  0  3.744352  0
C  C33  1  0.26194440  0.55698849  0.96155140  1  0  -0.106409  0  3.500004  0  0  -0.155796  0  3.752241  0  0  -0.155531  0  3.763153  0  0  -0.139448  -0.155603  0  3.744333  0
C  C34  1  0.23805496  0.55698919  0.46155262  1  0  -0.106434  0  3.500007  0  0  -0.155777  0  3.75225  0  0  -0.155513  0  3.763161  0  0  -0.139459  -0.155582  0  3.744348  0
C  C35  1  0.73805573  0.44301058  0.03844847  1  0  -0.106447  0  3.500009  0  0  -0.155799  0  3.752248  0  0  -0.155534  0  3.763158  0  0  -0.139447  -0.155607  0  3.744342  0
C  C36  1  0.80483410  0.48665673  0.69051223  1  0  -0.113367  0  3.577201  0  0  -0.155811  0  3.835875  0  0  -0.155606  0  3.845617  0  0  -0.165349  -0.155871  0  3.829162  0
C  C37  1  0.30483640  0.51334474  0.80948849  1  0  -0.11337  0  3.577238  0  0  -0.155767  0  3.83591  0  0  -0.155565  0  3.845654  0  0  -0.165323  -0.155833  0  3.829213  0
C  C38  1  0.19516341  0.51334339  0.30948898  1  0  -0.113388  0  3.577288  0  0  -0.155825  0  3.835957  0  0  -0.155623  0  3.8457  0  0  -0.165336  -0.155896  0  3.829257  0
C  C39  1  0.69516504  0.48665537  0.19051178  1  0  -0.113374  0  3.577223  0  0  -0.155792  0  3.835896  0  0  -0.155588  0  3.845637  0  0  -0.165331  -0.155857  0  3.829196  0
C  C40  1  0.77401450  0.33540429  0.67506767  1  0  -0.111152  0  3.524378  0  0  -0.159881  0  3.777431  0  0  -0.159127  0  3.788101  0  0  -0.143647  -0.159996  0  3.769638  0
C  C41  1  0.27401676  0.66459616  0.82493270  1  0  -0.111146  0  3.524324  0  0  -0.159926  0  3.777447  0  0  -0.159175  0  3.788126  0  0  -0.143678  -0.160036  0  3.769655  0
C  C42  1  0.22598432  0.66459582  0.32493167  1  0  -0.111157  0  3.524328  0  0  -0.159875  0  3.777389  0  0  -0.159123  0  3.788067  0  0  -0.143671  -0.159993  0  3.769594  0
C  C43  1  0.72598337  0.33540396  0.17506850  1  0  -0.111086  0  3.524256  0  0  -0.1599  0  3.777398  0  0  -0.15915  0  3.788079  0  0  -0.143688  -0.160013  0  3.769604  0
C  C44  1  0.59761677  0.20886201  0.45332012  1  0  0.69775  0  3.764747  0  0  0.656942  0  4.062007  0  0  0.696536  0  4.050316  0  0  0.241317  0.629889  0  4.068719  0
C  C45  1  0.09761724  0.79113994  0.04668016  1  0  0.697692  0  3.764696  0  0  0.65691  0  4.061908  0  0  0.696499  0  4.050225  0  0  0.241307  0.629856  0  4.06862  0
C  C46  1  0.40238336  0.79113810  0.54667922  1  0  0.697749  0  3.764745  0  0  0.656941  0  4.06201  0  0  0.696529  0  4.050329  0  0  0.241321  0.629889  0  4.068726  0
C  C47  1  0.90238289  0.20886018  0.95332011  1  0  0.697658  0  3.764646  0  0  0.656902  0  4.061833  0  0  0.69649  0  4.05015  0  0  0.241312  0.629845  0  4.068541  0
C  C48  1  0.93160255  0.21402812  0.44909166  1  0  0.702085  0  3.749422  0  0  0.659188  0  4.047319  0  0  0.698461  0  4.03635  0  0  0.244113  0.632385  0  4.053541  0
C  C49  1  0.43160300  0.78597151  0.05090907  1  0  0.702126  0  3.74922  0  0  0.659222  0  4.047126  0  0  0.698493  0  4.036159  0  0  0.244114  0.632418  0  4.053355  0
C  C50  1  0.06839758  0.78597199  0.55090861  1  0  0.702094  0  3.749332  0  0  0.659199  0  4.047227  0  0  0.69847  0  4.03626  0  0  0.244115  0.632394  0  4.053453  0
C  C51  1  0.56839713  0.21402756  0.94909080  1  0  0.70214  0  3.749244  0  0  0.659249  0  4.047123  0  0  0.69852  0  4.036156  0  0  0.244124  0.632447  0  4.05335  0
O  O52  1  0.25675794  0.97959457  0.43126122  1  0  -0.667251  0  1.591712  0  0  -0.680222  0  1.891255  0  0  -0.70211  0  1.878632  0  0  -0.736311  -0.667193  0  1.900402  0
O  O53  1  0.75675861  0.02040623  0.06874024  1  0  -0.667228  0  1.591697  0  0  -0.680236  0  1.891307  0  0  -0.702126  0  1.878658  0  0  -0.73643  -0.667209  0  1.900459  0
O  O54  1  0.74324219  0.02040659  0.56873759  1  0  -0.667241  0  1.591592  0  0  -0.680241  0  1.891157  0  0  -0.702125  0  1.878518  0  0  -0.736294  -0.667209  0  1.900302  0
O  O55  1  0.24324414  0.97959284  0.93125683  1  0  -0.667245  0  1.591729  0  0  -0.680237  0  1.891314  0  0  -0.702127  0  1.878685  0  0  -0.736426  -0.667218  0  1.900467  0
O  O56  1  0.27329325  0.18839869  0.23439002  1  0  -0.651329  0  1.57664  0  0  -0.666185  0  1.868923  0  0  -0.686683  0  1.856579  0  0  -0.737029  -0.654019  0  1.877667  0
O  O57  1  0.77328943  0.81160627  0.26561488  1  0  -0.651384  0  1.576372  0  0  -0.666281  0  1.868675  0  0  -0.686789  0  1.856297  0  0  -0.736983  -0.654114  0  1.877405  0
O  O58  1  0.72670689  0.81160143  0.76560838  1  0  -0.651328  0  1.57667  0  0  -0.666185  0  1.868946  0  0  -0.686685  0  1.856597  0  0  -0.737035  -0.654021  0  1.877691  0
O  O59  1  0.22671070  0.18839489  0.73438579  1  0  -0.651319  0  1.576364  0  0  -0.66624  0  1.868674  0  0  -0.686738  0  1.856307  0  0  -0.736992  -0.654077  0  1.877408  0
O  O60  1  0.45193740  0.25826114  0.50683072  1  0  -0.574969  0  1.947812  0  0  -0.556168  0  2.195003  0  0  -0.587789  0  2.190698  0  0  -0.306577  -0.533544  0  2.196549  0
O  O61  1  0.95193814  0.74173919  0.99317119  1  0  -0.574947  0  1.947821  0  0  -0.556152  0  2.194998  0  0  -0.587775  0  2.190693  0  0  -0.306567  -0.533531  0  2.196543  0
O  O62  1  0.54806273  0.74173897  0.49316862  1  0  -0.574969  0  1.947803  0  0  -0.556167  0  2.194987  0  0  -0.587786  0  2.190684  0  0  -0.306584  -0.533543  0  2.196533  0
O  O63  1  0.04806199  0.25825989  0.00682961  1  0  -0.574942  0  1.94781  0  0  -0.556154  0  2.19496  0  0  -0.587772  0  2.190655  0  0  -0.306577  -0.533536  0  2.196503  0
O  O64  1  0.59337544  0.09689688  0.34221217  1  0  -0.730452  0  2.197438  0  0  -0.721103  0  2.493705  0  0  -0.759847  0  2.491236  0  0  -0.394232  -0.693064  0  2.493509  0
O  O65  1  0.09337689  0.90310507  0.15778998  1  0  -0.730426  0  2.197383  0  0  -0.721093  0  2.493653  0  0  -0.759837  0  2.4912  0  0  -0.394235  -0.693052  0  2.493453  0
O  O66  1  0.40662469  0.90310323  0.65778717  1  0  -0.730464  0  2.197457  0  0  -0.721121  0  2.493716  0  0  -0.759859  0  2.49125  0  0  -0.394232  -0.693085  0  2.493524  0
O  O67  1  0.90662324  0.09689504  0.84220935  1  0  -0.730412  0  2.197334  0  0  -0.721096  0  2.493599  0  0  -0.759837  0  2.491142  0  0  -0.39424  -0.69306  0  2.493398  0
O  O68  1  0.93544599  0.10151442  0.33853293  1  0  -0.728786  0  2.178979  0  0  -0.716799  0  2.470723  0  0  -0.755149  0  2.468037  0  0  -0.39197  -0.689204  0  2.470869  0
O  O69  1  0.43544612  0.89848729  0.16146860  1  0  -0.728801  0  2.178931  0  0  -0.71681  0  2.470679  0  0  -0.755156  0  2.467995  0  0  -0.391973  -0.689213  0  2.470829  0
O  O70  1  0.06455414  0.89848569  0.66146734  1  0  -0.728761  0  2.178953  0  0  -0.716779  0  2.470696  0  0  -0.755125  0  2.468009  0  0  -0.391959  -0.689188  0  2.470845  0
O  O71  1  0.56455532  0.10151283  0.83853167  1  0  -0.728827  0  2.178947  0  0  -0.716833  0  2.470678  0  0  -0.755174  0  2.467986  0  0  -0.391981  -0.689241  0  2.47083  0
O  O72  1  0.07750940  0.26626682  0.49968320  1  0  -0.574006  0  1.950593  0  0  -0.547927  0  2.195662  0  0  -0.579493  0  2.191455  0  0  -0.304206  -0.525312  0  2.197073  0
O  O73  1  0.57751161  0.73373307  0.00031818  1  0  -0.574056  0  1.950526  0  0  -0.547964  0  2.195586  0  0  -0.579547  0  2.191403  0  0  -0.304221  -0.525352  0  2.197006  0
O  O74  1  0.92248942  0.73373330  0.50031707  1  0  -0.574044  0  1.950554  0  0  -0.547968  0  2.19562  0  0  -0.579533  0  2.191412  0  0  -0.304218  -0.525353  0  2.197035  0
O  O75  1  0.42248852  0.26626601  0.99968169  1  0  -0.574037  0  1.95052  0  0  -0.547958  0  2.195577  0  0  -0.579537  0  2.191394  0  0  -0.304213  -0.525347  0  2.196994  0
