# generated using pymatgen
data_Cd3H8(C6N5)2
_symmetry_space_group_name_H-M   'P 1'
_cell_length_a   13.10161437
_cell_length_b   14.27005291
_cell_length_c   14.15140000
_cell_angle_alpha   90.00000000
_cell_angle_beta   105.45030705
_cell_angle_gamma   90.00000000
_symmetry_Int_Tables_number   1
_chemical_formula_structural   Cd3H8(C6N5)2
_chemical_formula_sum   'Cd12 H32 C48 N40'
_cell_volume   2550.14339597
_cell_formula_units_Z   4
loop_
 _symmetry_equiv_pos_site_id
 _symmetry_equiv_pos_as_xyz
  1  'x, y, z'
loop_
 _atom_site_type_symbol
 _atom_site_label
 _atom_site_symmetry_multiplicity
 _atom_site_fract_x
 _atom_site_fract_y
 _atom_site_fract_z
 _atom_site_occupancy
 _atom_site_hle17_bader_spin_density
 _atom_site_hle17_ddec_charge
 _atom_site_hle17_ddec_spin_density
 _atom_site_hle17_ddec_sum_bond_order
 _atom_site_hle17_magmom
 _atom_site_hse06_10hf_bader_spin_density
 _atom_site_hse06_10hf_ddec_charge
 _atom_site_hse06_10hf_ddec_spin_density
 _atom_site_hse06_10hf_ddec_sum_bond_order
 _atom_site_hse06_10hf_magmom
 _atom_site_hse06_bader_spin_density
 _atom_site_hse06_ddec_charge
 _atom_site_hse06_ddec_spin_density
 _atom_site_hse06_ddec_sum_bond_order
 _atom_site_hse06_magmom
 _atom_site_pbe_bader_charge
 _atom_site_pbe_bader_spin_density
 _atom_site_pbe_cm5_charge
 _atom_site_pbe_ddec_charge
 _atom_site_pbe_ddec_spin_density
 _atom_site_pbe_ddec_sum_bond_order
 _atom_site_pbe_magmom
Cd  Cd0  1  0.34275656  0.33376260  0.88466966  1  0  0.759468  0  2.31568  0  0  0.577189  0  2.798981  0  0  0.61155  0  2.758728  0  1.054691  0  0.601312  0.553603  0  2.826294  0
Cd  Cd1  1  0.84276580  0.16623624  0.38466286  1  0  0.759444  0  2.315789  0  0  0.577178  0  2.799099  0  0  0.611545  0  2.758829  0  1.054548  0  0.60129  0.55359  0  2.82642  0
Cd  Cd2  1  0.65723580  0.66622948  0.11533644  1  0  0.759476  0  2.31577  0  0  0.577201  0  2.79908  0  0  0.611562  0  2.758825  0  1.054552  0  0.601303  0.553615  0  2.826395  0
Cd  Cd3  1  0.15724160  0.83376565  0.61533847  1  0  0.759401  0  2.315806  0  0  0.577129  0  2.799108  0  0  0.611488  0  2.758853  0  1.054591  0  0.601313  0.553541  0  2.82643  0
Cd  Cd4  1  0.32065909  0.04573284  0.13937896  1  0  0.729072  0  2.287863  0  0  0.538199  0  2.770358  0  0  0.571895  0  2.732352  0  1.031391  0  0.593735  0.515068  0  2.796036  0
Cd  Cd5  1  0.82065092  0.45426531  0.63937210  1  0  0.729139  0  2.287753  0  0  0.538253  0  2.770225  0  0  0.571948  0  2.732222  0  1.031318  0  0.593728  0.51512  0  2.795903  0
Cd  Cd6  1  0.67934277  0.95426836  0.86062454  1  0  0.729189  0  2.28788  0  0  0.538318  0  2.770387  0  0  0.572011  0  2.73238  0  1.031325  0  0.593766  0.515187  0  2.796066  0
Cd  Cd7  1  0.17934619  0.54573168  0.36062528  1  0  0.729176  0  2.287792  0  0  0.538305  0  2.770277  0  0  0.572001  0  2.73227  0  1.031289  0  0.593753  0.515175  0  2.795954  0
Cd  Cd8  1  0.20771615  0.68189166  0.99168367  1  0  1.125018  0  1.940573  0  0  0.930757  0  2.422714  0  0  0.979119  0  2.375578  0  1.323595  0  0.829193  0.896891  0  2.45466  0
Cd  Cd9  1  0.70771906  0.81810909  0.49168308  1  0  1.125034  0  1.940507  0  0  0.930769  0  2.422644  0  0  0.979126  0  2.375514  0  1.323707  0  0.829168  0.896898  0  2.454596  0
Cd  Cd10  1  0.79228096  0.31810884  0.00831653  1  0  1.124925  0  1.940639  0  0  0.930648  0  2.422778  0  0  0.979001  0  2.375653  0  1.323539  0  0.82917  0.89678  0  2.454722  0
Cd  Cd11  1  0.29228913  0.18189071  0.50832127  1  0  1.125064  0  1.940571  0  0  0.93081  0  2.422725  0  0  0.979172  0  2.375587  0  1.323588  0  0.82917  0.896943  0  2.454673  0
H  H12  1  0.51535987  0.14930498  0.05419549  1  0  0.091868  0  0.942893  0  0  0.1013  0  1.006214  0  0  0.102799  0  1.005067  0  0.156019  0  0.133595  0.100201  0  1.006983  0
H  H13  1  0.01534905  0.35069527  0.55419554  1  0  0.09187  0  0.942909  0  0  0.101306  0  1.006226  0  0  0.102803  0  1.005082  0  0.156049  0  0.133613  0.100208  0  1.006992  0
H  H14  1  0.48465624  0.85069692  0.94580445  1  0  0.091875  0  0.94291  0  0  0.101308  0  1.006232  0  0  0.102803  0  1.005094  0  0.15607  0  0.1336  0.100212  0  1.006998  0
H  H15  1  0.98465440  0.64930243  0.44580481  1  0  0.091911  0  0.942988  0  0  0.101353  0  1.006297  0  0  0.102845  0  1.005163  0  0.156063  0  0.133624  0.100256  0  1.007063  0
H  H16  1  0.70246017  0.08819309  0.08068169  1  0  0.304753  0  0.879894  0  0  0.291147  0  0.932018  0  0  0.296721  0  0.929518  0  0.511111  0  0.326245  0.287241  0  0.933825  0
H  H17  1  0.20244776  0.41180646  0.58067428  1  0  0.304777  0  0.879931  0  0  0.291159  0  0.932058  0  0  0.296734  0  0.92956  0  0.511312  0  0.326233  0.287251  0  0.933874  0
H  H18  1  0.29755198  0.91180461  0.91932152  1  0  0.304769  0  0.87993  0  0  0.291196  0  0.932035  0  0  0.296772  0  0.929535  0  0.511299  0  0.326276  0.287284  0  0.933852  0
H  H19  1  0.79755093  0.58819333  0.41931995  1  0  0.304774  0  0.879916  0  0  0.291204  0  0.932021  0  0  0.296781  0  0.929522  0  0.511288  0  0.326286  0.287292  0  0.933838  0
H  H20  1  0.73447358  0.93680732  0.18340485  1  0  0.116694  0  0.938515  0  0  0.13118  0  0.987206  0  0  0.133277  0  0.987303  0  0.117432  0  0.128569  0.129685  0  0.98722  0
H  H21  1  0.23446434  0.56319273  0.68339681  1  0  0.116627  0  0.938708  0  0  0.131101  0  0.987394  0  0  0.133203  0  0.987488  0  0.117505  0  0.12852  0.129606  0  0.987408  0
H  H22  1  0.26553065  0.06318897  0.81659500  1  0  0.11656  0  0.938589  0  0  0.131045  0  0.987284  0  0  0.133145  0  0.987381  0  0.11757  0  0.128483  0.12955  0  0.987297  0
H  H23  1  0.76553594  0.43680847  0.31659499  1  0  0.116632  0  0.93861  0  0  0.131109  0  0.987302  0  0  0.133211  0  0.987396  0  0.117529  0  0.128501  0.129615  0  0.987316  0
H  H24  1  0.54272177  0.90314101  0.22575670  1  0  0.104076  0  0.965337  0  0  0.111573  0  1.029724  0  0  0.113505  0  1.030168  0  0.113417  0  0.114336  0.11021  0  1.029461  0
H  H25  1  0.04271569  0.59685903  0.72575651  1  0  0.104067  0  0.965397  0  0  0.111527  0  1.029829  0  0  0.113459  0  1.030271  0  0.113369  0  0.114303  0.110163  0  1.029566  0
H  H26  1  0.45728484  0.09686019  0.77424443  1  0  0.104071  0  0.965447  0  0  0.111554  0  1.029854  0  0  0.113487  0  1.030293  0  0.113339  0  0.114322  0.110191  0  1.029591  0
H  H27  1  0.95728617  0.40314146  0.27424063  1  0  0.104022  0  0.96542  0  0  0.111499  0  1.029832  0  0  0.113432  0  1.030274  0  0.113319  0  0.114305  0.110134  0  1.02957  0
H  H28  1  0.98979926  0.58619404  0.04262047  1  0  0.090264  0  0.942779  0  0  0.09843  0  1.00778  0  0  0.100474  0  1.005668  0  0.165782  0  0.133099  0.096894  0  1.009277  0
H  H29  1  0.48980030  0.91379689  0.54261850  1  0  0.090295  0  0.942788  0  0  0.098478  0  1.007768  0  0  0.100515  0  1.005657  0  0.165916  0  0.133111  0.096942  0  1.009263  0
H  H30  1  0.01019865  0.41379734  0.95737993  1  0  0.090247  0  0.94276  0  0  0.098451  0  1.007726  0  0  0.100467  0  1.005641  0  0.165973  0  0.133118  0.096917  0  1.009219  0
H  H31  1  0.51020472  0.08620220  0.45739002  1  0  0.09029  0  0.942822  0  0  0.098502  0  1.007765  0  0  0.100514  0  1.00569  0  0.166026  0  0.133126  0.096964  0  1.009264  0
H  H32  1  0.80196726  0.59114077  0.93517028  1  0  0.303402  0  0.878135  0  0  0.291767  0  0.927118  0  0  0.297424  0  0.92448  0  0.503829  0  0.327464  0.287774  0  0.929081  0
H  H33  1  0.30196355  0.90885367  0.43517280  1  0  0.303458  0  0.878111  0  0  0.291886  0  0.927016  0  0  0.297543  0  0.924377  0  0.504075  0  0.327481  0.28789  0  0.928983  0
H  H34  1  0.19803223  0.40884782  0.06482627  1  0  0.303491  0  0.878154  0  0  0.291939  0  0.927028  0  0  0.297596  0  0.924389  0  0.504215  0  0.327475  0.287944  0  0.928994  0
H  H35  1  0.69803751  0.09114752  0.56483687  1  0  0.303465  0  0.878154  0  0  0.29181  0  0.927134  0  0  0.297468  0  0.924496  0  0.504  0  0.327507  0.287819  0  0.929092  0
H  H36  1  0.78423069  0.69571081  0.78226060  1  0  0.115263  0  0.949903  0  0  0.127401  0  1.003146  0  0  0.129481  0  1.003417  0  0.153998  0  0.12431  0.125904  0  1.003054  0
H  H37  1  0.28422223  0.80428433  0.28226124  1  0  0.115227  0  0.949915  0  0  0.127354  0  1.003161  0  0  0.129433  0  1.003432  0  0.154044  0  0.124277  0.125856  0  1.003069  0
H  H38  1  0.21576721  0.30427638  0.21773838  1  0  0.115258  0  0.950027  0  0  0.12738  0  1.003271  0  0  0.12946  0  1.003544  0  0.15429  0  0.124335  0.125884  0  1.003176  0
H  H39  1  0.71577488  0.19571546  0.71774815  1  0  0.115275  0  0.949905  0  0  0.127317  0  1.003243  0  0  0.129397  0  1.003515  0  0.154506  0  0.124278  0.125822  0  1.003147  0
H  H40  1  0.98933521  0.75892641  0.80046283  1  0  0.103376  0  0.955324  0  0  0.113155  0  1.013102  0  0  0.114991  0  1.013205  0  0.100032  0  0.116175  0.111857  0  1.013059  0
H  H41  1  0.48932201  0.74106803  0.30045452  1  0  0.103367  0  0.95537  0  0  0.113195  0  1.013104  0  0  0.11503  0  1.013207  0  0.099963  0  0.116225  0.111897  0  1.013062  0
H  H42  1  0.01065794  0.24106778  0.19953499  1  0  0.103419  0  0.955238  0  0  0.113155  0  1.013064  0  0  0.114989  0  1.013168  0  0.100056  0  0.116194  0.111857  0  1.013022  0
H  H43  1  0.51067114  0.25893107  0.69954683  1  0  0.103379  0  0.955342  0  0  0.113202  0  1.013085  0  0  0.115037  0  1.013187  0  0.099895  0  0.116221  0.111904  0  1.013043  0
C  C44  1  0.26332051  0.45845380  0.91893865  1  0  -0.09434  0  3.28512  0  0  -0.069183  0  3.595457  0  0  -0.067968  0  3.604701  0  0.737088  0  -0.004876  -0.069894  0  3.589104  0
C  C45  1  0.76332342  0.04154084  0.41890485  1  0  -0.094494  0  3.285556  0  0  -0.069351  0  3.595889  0  0  -0.068139  0  3.605138  0  0.736796  0  -0.004992  -0.070063  0  3.589536  0
C  C46  1  0.73667026  0.54153478  0.08108190  1  0  -0.09442  0  3.285043  0  0  -0.069269  0  3.595381  0  0  -0.068054  0  3.604626  0  0.736988  0  -0.004932  -0.069981  0  3.589027  0
C  C47  1  0.23666814  0.95846877  0.58108834  1  0  -0.094248  0  3.285589  0  0  -0.069092  0  3.595908  0  0  -0.06788  0  3.605158  0  0.737091  0  -0.004868  -0.069801  0  3.589553  0
C  C48  1  0.29474159  0.27201861  0.73770139  1  0  -0.095509  0  3.276092  0  0  -0.071406  0  3.584745  0  0  -0.069854  0  3.594276  0  0.74971  0  -0.006524  -0.072315  0  3.578143  0
C  C49  1  0.79474925  0.22800756  0.23771045  1  0  -0.095669  0  3.276841  0  0  -0.071557  0  3.585488  0  0  -0.070007  0  3.595027  0  0.749846  0  -0.006611  -0.072467  0  3.578884  0
C  C50  1  0.70524839  0.72797488  0.26230624  1  0  -0.095498  0  3.275991  0  0  -0.071398  0  3.584645  0  0  -0.069847  0  3.594176  0  0.749975  0  -0.006487  -0.072305  0  3.578042  0
C  C51  1  0.20524944  0.77202307  0.76230710  1  0  -0.09545  0  3.276454  0  0  -0.071328  0  3.585078  0  0  -0.069777  0  3.594612  0  0.7498  0  -0.006445  -0.072237  0  3.578474  0
C  C52  1  0.51635527  0.32675983  0.93432850  1  0  -0.105731  0  3.286477  0  0  -0.077913  0  3.586017  0  0  -0.077802  0  3.598092  0  0.688272  0  -0.012639  -0.077784  0  3.577546  0
C  C53  1  0.01635790  0.17324743  0.43432410  1  0  -0.105591  0  3.285682  0  0  -0.077769  0  3.585234  0  0  -0.077656  0  3.597304  0  0.688245  0  -0.01254  -0.07764  0  3.576765  0
C  C54  1  0.48364580  0.67324908  0.06565855  1  0  -0.105537  0  3.285626  0  0  -0.077716  0  3.585168  0  0  -0.0776  0  3.597234  0  0.688185  0  -0.012577  -0.077588  0  3.576699  0
C  C55  1  0.98365425  0.82675166  0.56564873  1  0  -0.10569  0  3.285856  0  0  -0.077887  0  3.58543  0  0  -0.077769  0  3.597499  0  0.688034  0  -0.012599  -0.077761  0  3.57696  0
C  C56  1  0.28945261  0.16337010  0.03340923  1  0  -0.075267  0  3.237804  0  0  -0.056716  0  3.544981  0  0  -0.053218  0  3.554664  0  0.771682  0  0.001531  -0.058853  0  3.53817  0
C  C57  1  0.78944127  0.33663295  0.53339452  1  0  -0.075272  0  3.237566  0  0  -0.056735  0  3.544736  0  0  -0.053237  0  3.554418  0  0.771537  0  0.001496  -0.058872  0  3.537929  0
C  C58  1  0.71055717  0.83663180  0.96660046  1  0  -0.075216  0  3.237483  0  0  -0.056673  0  3.54465  0  0  -0.053176  0  3.554335  0  0.771836  0  0.001518  -0.058811  0  3.537843  0
C  C59  1  0.21055742  0.66337035  0.46660042  1  0  -0.07528  0  3.237614  0  0  -0.056742  0  3.544779  0  0  -0.053246  0  3.554463  0  0.771934  0  0.001485  -0.058881  0  3.537971  0
C  C60  1  0.24842680  0.91223698  0.08060367  1  0  -0.100861  0  3.293102  0  0  -0.075206  0  3.605084  0  0  -0.073783  0  3.614278  0  0.735745  0  -0.010287  -0.076064  0  3.598704  0
C  C61  1  0.74842575  0.58776306  0.58059292  1  0  -0.100762  0  3.293083  0  0  -0.075106  0  3.605031  0  0  -0.073681  0  3.614225  0  0.736271  0  -0.010281  -0.075964  0  3.598651  0
C  C62  1  0.75155923  0.08777262  0.91938461  1  0  -0.100735  0  3.292804  0  0  -0.075081  0  3.604767  0  0  -0.073656  0  3.613959  0  0.735772  0  -0.010229  -0.075941  0  3.598391  0
C  C63  1  0.25156503  0.41223183  0.41939230  1  0  -0.100742  0  3.292528  0  0  -0.075092  0  3.604509  0  0  -0.073666  0  3.613702  0  0.735749  0  -0.010279  -0.075953  0  3.598131  0
C  C64  1  0.31147485  0.09259111  0.28361304  1  0  -0.092403  0  3.289413  0  0  -0.065701  0  3.59854  0  0  -0.064006  0  3.608585  0  0.744916  0  -0.008826  -0.066736  0  3.591554  0
C  C65  1  0.81147855  0.40741825  0.78361547  1  0  -0.092629  0  3.289452  0  0  -0.065935  0  3.59858  0  0  -0.064242  0  3.608622  0  0.745437  0  -0.008955  -0.066969  0  3.591595  0
C  C66  1  0.68850642  0.90741850  0.71638184  1  0  -0.092575  0  3.289247  0  0  -0.065895  0  3.598411  0  0  -0.064198  0  3.608454  0  0.744886  0  -0.008885  -0.066932  0  3.591427  0
C  C67  1  0.18851460  0.59258505  0.21638305  1  0  -0.092599  0  3.289609  0  0  -0.06591  0  3.598738  0  0  -0.064217  0  3.608785  0  0.745089  0  -0.008915  -0.066945  0  3.591751  0
C  C68  1  0.54676908  0.08676702  0.09529797  1  0  0.217612  0  3.666748  0  0  0.157936  0  3.931997  0  0  0.171824  0  3.945775  0  0.967227  0  0.141112  0.149002  0  3.922254  0
C  C69  1  0.04675429  0.41323743  0.59529493  1  0  0.217589  0  3.666961  0  0  0.157842  0  3.932184  0  0  0.17173  0  3.945962  0  0.966997  0  0.141018  0.148911  0  3.922439  0
C  C70  1  0.45324150  0.91323488  0.90470273  1  0  0.217627  0  3.666622  0  0  0.157959  0  3.931877  0  0  0.17185  0  3.945649  0  0.967051  0  0.141139  0.149023  0  3.922137  0
C  C71  1  0.95324441  0.58676657  0.40470355  1  0  0.217549  0  3.666758  0  0  0.157881  0  3.932014  0  0  0.171772  0  3.945786  0  0.966952  0  0.14111  0.148944  0  3.922273  0
C  C72  1  0.66049519  0.97508468  0.16333425  1  0  -0.008525  0  3.697391  0  0  -0.047406  0  3.960014  0  0  -0.047017  0  3.981249  0  0.381921  0  0.003626  -0.047628  0  3.94566  0
C  C73  1  0.16048911  0.52491676  0.66333053  1  0  -0.008411  0  3.697268  0  0  -0.047296  0  3.959839  0  0  -0.046911  0  3.981077  0  0.381951  0  0.003707  -0.047518  0  3.945487  0
C  C74  1  0.33951380  0.02491371  0.83666747  1  0  -0.008356  0  3.697124  0  0  -0.047189  0  3.959747  0  0  -0.046803  0  3.980986  0  0.38211  0  0.003745  -0.047414  0  3.945398  0
C  C75  1  0.83951196  0.47508513  0.33666359  1  0  -0.008579  0  3.69721  0  0  -0.047407  0  3.959837  0  0  -0.047021  0  3.981079  0  0.382066  0  0.003662  -0.047631  0  3.945487  0
C  C76  1  0.56495385  0.95905040  0.18330413  1  0  -0.007139  0  3.737124  0  0  -0.03993  0  3.999885  0  0  -0.039101  0  4.022188  0  0.379503  0  -0.007466  -0.040457  0  3.984746  0
C  C77  1  0.06494619  0.54095104  0.68330285  1  0  -0.007141  0  3.737143  0  0  -0.039946  0  3.999909  0  0  -0.039119  0  4.022212  0  0.379186  0  -0.007438  -0.040472  0  3.984768  0
C  C78  1  0.43505118  0.04095220  0.81669308  1  0  -0.007062  0  3.737001  0  0  -0.039859  0  3.999739  0  0  -0.039029  0  4.022038  0  0.379109  0  -0.007433  -0.040386  0  3.984602  0
C  C79  1  0.93505488  0.45904875  0.31669339  1  0  -0.00696  0  3.736928  0  0  -0.039744  0  3.99967  0  0  -0.038917  0  4.021972  0  0.379204  0  -0.007386  -0.04027  0  3.984531  0
C  C80  1  0.96374476  0.62461717  0.97434185  1  0  0.215199  0  3.684953  0  0  0.156223  0  3.955294  0  0  0.169919  0  3.968367  0  0.984797  0  0.139361  0.147421  0  3.946018  0
C  C81  1  0.46374264  0.87537517  0.47433910  1  0  0.21521  0  3.684779  0  0  0.156211  0  3.955159  0  0  0.169913  0  3.968228  0  0.984427  0  0.139369  0.147409  0  3.945885  0
C  C82  1  0.03625393  0.37537492  0.02565734  1  0  0.215373  0  3.684822  0  0  0.15636  0  3.955196  0  0  0.170081  0  3.968272  0  0.984236  0  0.139382  0.147557  0  3.945921  0
C  C83  1  0.53626080  0.12461902  0.52566832  1  0  0.215387  0  3.684922  0  0  0.15636  0  3.955269  0  0  0.170083  0  3.968356  0  0.984414  0  0.139394  0.147557  0  3.945996  0
C  C84  1  0.85737681  0.68234225  0.83795489  1  0  -0.019688  0  3.706963  0  0  -0.05482  0  3.964352  0  0  -0.054804  0  3.985797  0  0.293305  0  0.000853  -0.054808  0  3.949909  0
C  C85  1  0.35736915  0.81765289  0.33795078  1  0  -0.019553  0  3.706833  0  0  -0.05468  0  3.964222  0  0  -0.054664  0  3.985669  0  0.293031  0  0.000903  -0.054668  0  3.949779  0
C  C86  1  0.14262109  0.31764914  0.16204551  1  0  -0.019525  0  3.70677  0  0  -0.054642  0  3.964135  0  0  -0.054627  0  3.985582  0  0.293054  0  0.000922  -0.05463  0  3.949694  0
C  C87  1  0.64262875  0.18234901  0.66205316  1  0  -0.019468  0  3.706958  0  0  -0.054536  0  3.964322  0  0  -0.054521  0  3.985771  0  0.292791  0  0.001009  -0.054525  0  3.949881  0
C  C88  1  0.95928726  0.71317815  0.84807179  1  0  -0.010414  0  3.76292  0  0  -0.038203  0  4.020456  0  0  -0.037318  0  4.042817  0  0.433002  0  -0.006432  -0.038786  0  4.005265  0
C  C89  1  0.45927959  0.78681698  0.34806485  1  0  -0.010426  0  3.76313  0  0  -0.038268  0  4.020656  0  0  -0.037387  0  4.043022  0  0.433434  0  -0.006491  -0.038851  0  4.005464  0
C  C90  1  0.04070827  0.28681604  0.15193014  1  0  -0.01035  0  3.762661  0  0  -0.038097  0  4.020171  0  0  -0.037213  0  4.042538  0  0.432642  0  -0.006414  -0.038679  0  4.004978  0
C  C91  1  0.54071831  0.21318421  0.65194050  1  0  -0.010401  0  3.763063  0  0  -0.038225  0  4.020559  0  0  -0.03734  0  4.042923  0  0.433393  0  -0.006461  -0.038809  0  4.00537  0
N  N92  1  0.22175701  0.52233513  0.94472272  1  0  -0.398374  0  3.026823  0  0  -0.345675  0  3.296944  0  0  -0.362744  0  3.313109  0  -1.348456  0  -0.359177  -0.334059  0  3.285828  0
N  N93  1  0.72176863  0.97766982  0.44471298  1  0  -0.398241  0  3.027164  0  0  -0.345524  0  3.297244  0  0  -0.362593  0  3.313421  0  -1.348075  0  -0.359079  -0.3339  0  3.286107  0
N  N94  1  0.77823218  0.47765695  0.05528401  1  0  -0.398271  0  3.026648  0  0  -0.345561  0  3.296764  0  0  -0.362626  0  3.312926  0  -1.348354  0  -0.359114  -0.333944  0  3.285645  0
N  N95  1  0.27822769  0.02233489  0.55528279  1  0  -0.398443  0  3.027316  0  0  -0.345743  0  3.297433  0  0  -0.362808  0  3.313595  0  -1.348443  0  -0.359188  -0.334117  0  3.286285  0
N  N96  1  0.28109272  0.23673213  0.66087021  1  0  -0.39356  0  3.049976  0  0  -0.335313  0  3.321405  0  0  -0.352926  0  3.33656  0  -1.360351  0  -0.360932  -0.323289  0  3.3109  0
N  N97  1  0.78109879  0.26326392  0.16086970  1  0  -0.393351  0  3.050635  0  0  -0.335099  0  3.322067  0  0  -0.352713  0  3.337235  0  -1.360638  0  -0.360809  -0.323069  0  3.311548  0
N  N98  1  0.71890756  0.76326977  0.33913360  1  0  -0.393544  0  3.049873  0  0  -0.335299  0  3.321319  0  0  -0.35291  0  3.336473  0  -1.360719  0  -0.360961  -0.323275  0  3.310816  0
N  N99  1  0.21889911  0.73673938  0.83913635  1  0  -0.393563  0  3.050402  0  0  -0.335329  0  3.321835  0  0  -0.352943  0  3.336988  0  -1.360538  0  -0.360994  -0.323303  0  3.311327  0
N  N100  1  0.60839728  0.31929244  0.95603268  1  0  -0.386046  0  3.078392  0  0  -0.325879  0  3.343069  0  0  -0.344413  0  3.360747  0  -1.290438  0  -0.361498  -0.313139  0  3.330693  0
N  N101  1  0.10840783  0.18071972  0.45603730  1  0  -0.386167  0  3.07757  0  0  -0.326012  0  3.342281  0  0  -0.344548  0  3.359953  0  -1.290352  0  -0.36158  -0.313272  0  3.329907  0
N  N102  1  0.39159270  0.68071997  0.04396506  1  0  -0.386216  0  3.077533  0  0  -0.326055  0  3.342242  0  0  -0.344591  0  3.359909  0  -1.290314  0  -0.361543  -0.313314  0  3.329869  0
N  N103  1  0.89159957  0.81928918  0.54395414  1  0  -0.386074  0  3.07765  0  0  -0.325904  0  3.342343  0  0  -0.344441  0  3.360016  0  -1.29014  0  -0.361523  -0.313162  0  3.329968  0
N  N104  1  0.29227963  0.22548410  0.98042911  1  0  -0.389503  0  3.115703  0  0  -0.323976  0  3.396476  0  0  -0.342907  0  3.410179  0  -1.386822  0  -0.380673  -0.311205  0  3.386947  0
N  N105  1  0.79227541  0.27450984  0.48041757  1  0  -0.389552  0  3.11543  0  0  -0.324028  0  3.396195  0  0  -0.342959  0  3.409891  0  -1.386673  0  -0.380639  -0.311257  0  3.386669  0
N  N106  1  0.70772302  0.77451149  0.01957883  1  0  -0.389641  0  3.115367  0  0  -0.32412  0  3.39614  0  0  -0.343051  0  3.409836  0  -1.386956  0  -0.380684  -0.31135  0  3.386614  0
N  N107  1  0.20772486  0.72548645  0.51958271  1  0  -0.389554  0  3.115551  0  0  -0.32403  0  3.396324  0  0  -0.34296  0  3.41002  0  -1.38705  0  -0.380659  -0.311259  0  3.386799  0
N  N108  1  0.21761784  0.84066752  0.04366863  1  0  -0.392303  0  3.026431  0  0  -0.337917  0  3.29244  0  0  -0.354485  0  3.306133  0  -1.350447  0  -0.359385  -0.326597  0  3.282956  0
N  N109  1  0.71761838  0.65933953  0.54366533  1  0  -0.392419  0  3.026582  0  0  -0.338043  0  3.29261  0  0  -0.35461  0  3.306301  0  -1.351  0  -0.359399  -0.326722  0  3.283129  0
N  N110  1  0.78237531  0.15934349  0.95632071  1  0  -0.392424  0  3.026235  0  0  -0.338039  0  3.292257  0  0  -0.354606  0  3.305949  0  -1.350416  0  -0.359427  -0.326719  0  3.282776  0
N  N111  1  0.28238507  0.34065746  0.45633361  1  0  -0.392427  0  3.025934  0  0  -0.338051  0  3.291984  0  0  -0.354621  0  3.305677  0  -1.350401  0  -0.359387  -0.326729  0  3.282502  0
N  N112  1  0.30564264  0.12454334  0.35793034  1  0  -0.389274  0  3.065747  0  0  -0.33271  0  3.338255  0  0  -0.350622  0  3.353432  0  -1.347013  0  -0.358656  -0.320475  0  3.327691  0
N  N113  1  0.80563763  0.37546812  0.85792850  1  0  -0.389058  0  3.065751  0  0  -0.332487  0  3.33824  0  0  -0.350395  0  3.353414  0  -1.347505  0  -0.358544  -0.320253  0  3.327679  0
N  N114  1  0.69435685  0.87546136  0.64207116  1  0  -0.38916  0  3.065498  0  0  -0.332577  0  3.33799  0  0  -0.35049  0  3.353167  0  -1.347036  0  -0.358627  -0.320341  0  3.327428  0
N  N115  1  0.19435948  0.62453728  0.14207312  1  0  -0.389093  0  3.065884  0  0  -0.332514  0  3.338366  0  0  -0.350426  0  3.353545  0  -1.347258  0  -0.358581  -0.320279  0  3.327802  0
N  N116  1  0.49481529  0.02915266  0.14048329  1  0  -0.36782  0  3.26435  0  0  -0.285068  0  3.542537  0  0  -0.305028  0  3.559609  0  -1.220238  0  -0.365579  -0.271465  0  3.530487  0
N  N117  1  0.99480632  0.47085039  0.64047978  1  0  -0.367784  0  3.264558  0  0  -0.284924  0  3.542634  0  0  -0.304881  0  3.559707  0  -1.2201  0  -0.365506  -0.27132  0  3.530578  0
N  N118  1  0.50519449  0.97084994  0.85951580  1  0  -0.368002  0  3.264226  0  0  -0.28518  0  3.542358  0  0  -0.305141  0  3.559426  0  -1.220107  0  -0.365614  -0.271576  0  3.530308  0
N  N119  1  0.00519474  0.52915221  0.35951646  1  0  -0.367977  0  3.264305  0  0  -0.285158  0  3.542431  0  0  -0.305116  0  3.5595  0  -1.220088  0  -0.365652  -0.271554  0  3.530381  0
N  N120  1  0.64702449  0.05575873  0.10778308  1  0  -0.282483  0  3.497077  0  0  -0.215233  0  3.732622  0  0  -0.231074  0  3.750092  0  -1.277162  0  -0.376691  -0.204631  0  3.720633  0
N  N121  1  0.14701287  0.44424362  0.60777658  1  0  -0.282579  0  3.497146  0  0  -0.215257  0  3.732631  0  0  -0.231098  0  3.750103  0  -1.276972  0  -0.37671  -0.204657  0  3.720639  0
N  N122  1  0.35298688  0.94424107  0.89221923  1  0  -0.282459  0  3.497093  0  0  -0.215332  0  3.73278  0  0  -0.231176  0  3.750248  0  -1.277145  0  -0.376766  -0.204727  0  3.720792  0
N  N123  1  0.85298662  0.55575687  0.39221856  1  0  -0.282361  0  3.497028  0  0  -0.21524  0  3.732708  0  0  -0.231084  0  3.750176  0  -1.277018  0  -0.376714  -0.204634  0  3.720718  0
N  N124  1  0.02468454  0.67656021  0.93332791  1  0  -0.392813  0  3.25027  0  0  -0.319643  0  3.530837  0  0  -0.339792  0  3.547386  0  -1.231963  0  -0.357377  -0.305759  0  3.519025  0
N  N125  1  0.52468032  0.82343142  0.43331991  1  0  -0.392823  0  3.250178  0  0  -0.319651  0  3.530761  0  0  -0.339797  0  3.547307  0  -1.231899  0  -0.357368  -0.305767  0  3.518952  0
N  N126  1  0.97531257  0.32343398  0.06667371  1  0  -0.392892  0  3.250133  0  0  -0.319718  0  3.530703  0  0  -0.339864  0  3.547242  0  -1.231437  0  -0.357391  -0.305833  0  3.518893  0
N  N127  1  0.47531758  0.17656417  0.56668403  1  0  -0.393057  0  3.250377  0  0  -0.319899  0  3.53102  0  0  -0.340048  0  3.547555  0  -1.231925  0  -0.357485  -0.306014  0  3.519211  0
N  N128  1  0.86233479  0.62643216  0.91844833  1  0  -0.274011  0  3.497363  0  0  -0.208364  0  3.730424  0  0  -0.22412  0  3.748209  0  -1.285451  0  -0.377485  -0.197812  0  3.718202  0
N  N129  1  0.36232950  0.87355878  0.41844692  1  0  -0.274195  0  3.497158  0  0  -0.208592  0  3.730187  0  0  -0.224345  0  3.747972  0  -1.28566  0  -0.377529  -0.19804  0  3.717969  0
N  N130  1  0.13766312  0.37355713  0.08155207  1  0  -0.274442  0  3.497431  0  0  -0.208869  0  3.730459  0  0  -0.224623  0  3.748233  0  -1.285723  0  -0.377654  -0.198317  0  3.718243  0
N  N131  1  0.63766999  0.12643891  0.58156165  1  0  -0.274297  0  3.497472  0  0  -0.208589  0  3.730471  0  0  -0.224342  0  3.748246  0  -1.285823  0  -0.377598  -0.198038  0  3.718254  0
