# generated using pymatgen
data_CdH36C40(NO)10
_symmetry_space_group_name_H-M   'P 1'
_cell_length_a   10.08010489
_cell_length_b   10.55525715
_cell_length_c   11.49235665
_cell_angle_alpha   67.47200818
_cell_angle_beta   67.98578185
_cell_angle_gamma   69.98229192
_symmetry_Int_Tables_number   1
_chemical_formula_structural   CdH36C40(NO)10
_chemical_formula_sum   'Cd1 H36 C40 N10 O10'
_cell_volume   1018.53393934
_cell_formula_units_Z   1
loop_
 _symmetry_equiv_pos_site_id
 _symmetry_equiv_pos_as_xyz
  1  'x, y, z'
loop_
 _atom_site_type_symbol
 _atom_site_label
 _atom_site_symmetry_multiplicity
 _atom_site_fract_x
 _atom_site_fract_y
 _atom_site_fract_z
 _atom_site_occupancy
 _atom_site_pbe_bader_charge
 _atom_site_pbe_bader_spin_density
 _atom_site_pbe_cm5_charge
 _atom_site_pbe_ddec_charge
 _atom_site_pbe_ddec_spin_density
 _atom_site_pbe_ddec_sum_bond_order
 _atom_site_pbe_magmom
Cd  Cd0  1  0.50000171  0.50000099  0.99999251  1  1.230034  0  0.779974  0.758073  0  2.208247  0
H  H1  1  0.68046489  0.99531108  0.07643264  1  0.53266  0  0.303278  0.274221  0  1.015793  0
H  H2  1  0.31953500  0.00467526  0.92358571  1  0.532507  0  0.30327  0.2742  0  1.015832  0
H  H3  1  0.47691908  0.74810024  0.09745886  1  0.162236  0  0.116251  0.105701  0  1.050924  0
H  H4  1  0.52308433  0.25188926  0.90254243  1  0.162203  0  0.116278  0.105639  0  1.051037  0
H  H5  1  0.84923833  0.49596133  0.91274540  1  0.103692  0  0.115284  0.084254  0  1.01647  0
H  H6  1  0.15076364  0.50404293  0.08724595  1  0.103687  0  0.115296  0.084263  0  1.016463  0
H  H7  1  0.01116603  0.64000493  0.89577170  1  0.164215  0  0.11239  0.126758  0  1.026681  0
H  H8  1  0.98884007  0.35998668  0.10423493  1  0.16424  0  0.112377  0.126748  0  1.026708  0
H  H9  1  0.89904725  0.84529957  0.98749482  1  0.110293  0  0.116736  0.133151  0  0.99234  0
H  H10  1  0.10095554  0.15468361  0.01253152  1  0.110001  0  0.116737  0.133125  0  0.992429  0
H  H11  1  0.32939158  0.11550323  0.25519045  1  0.070889  0  0.105073  0.130229  0  0.986801  0
H  H12  1  0.67060362  0.88449365  0.74481965  1  0.070877  0  0.105129  0.130255  0  0.986793  0
H  H13  1  0.50791341  0.14865278  0.17193937  1  0.068818  0  0.099034  0.111673  0  1.028737  0
H  H14  1  0.49208200  0.85133882  0.82806381  1  0.068655  0  0.099008  0.111707  0  1.028716  0
H  H15  1  0.25107330  0.02096819  0.49023282  1  0.068782  0  0.094748  0.095468  0  1.052822  0
H  H16  1  0.74891552  0.97903291  0.50977701  1  0.068533  0  0.094678  0.095329  0  1.052885  0
H  H17  1  0.70506836  0.04004915  0.29521350  1  0.105088  0  0.095848  0.103802  0  1.036511  0
H  H18  1  0.29492221  0.95994035  0.70479636  1  0.104927  0  0.095859  0.103772  0  1.036497  0
H  H19  1  0.37961560  0.73880216  0.42498096  1  0.525051  0  0.305215  0.281115  0  1.007975  0
H  H20  1  0.62038551  0.26119683  0.57501079  1  0.525136  0  0.305182  0.281043  0  1.007927  0
H  H21  1  0.34551590  0.58361618  0.78014811  1  0.172124  0  0.115682  0.100692  0  1.067508  0
H  H22  1  0.65449244  0.41638387  0.21984785  1  0.172013  0  0.115719  0.10072  0  1.067529  0
H  H23  1  0.78021628  0.56061952  0.73675379  1  0.067327  0  0.110882  0.076191  0  1.031201  0
H  H24  1  0.21979109  0.43938896  0.26322995  1  0.067482  0  0.110892  0.076248  0  1.031172  0
H  H25  1  0.83739689  0.63977082  0.49139409  1  0.074053  0  0.110412  0.114009  0  0.991249  0
H  H26  1  0.16260808  0.36023871  0.50859442  1  0.074052  0  0.110425  0.113986  0  0.991239  0
H  H27  1  0.63846764  0.68938966  0.38940592  1  0.107925  0  0.115693  0.12784  0  0.981789  0
H  H28  1  0.36153163  0.31061249  0.61058183  1  0.108153  0  0.115678  0.127728  0  0.981857  0
H  H29  1  0.00663461  0.80626808  0.70665624  1  0.087719  0  0.097327  0.101005  0  1.051128  0
H  H30  1  0.99335477  0.19373513  0.29334135  1  0.087652  0  0.097326  0.100986  0  1.0512  0
H  H31  1  0.10055748  0.94753496  0.28580493  1  0.066297  0  0.102321  0.110534  0  0.996749  0
H  H32  1  0.89944026  0.05247352  0.71419068  1  0.066324  0  0.102374  0.110593  0  0.996613  0
H  H33  1  0.18312084  0.70512415  0.39148414  1  0.090422  0  0.107442  0.13244  0  0.977717  0
H  H34  1  0.81687253  0.29487589  0.60851500  1  0.090276  0  0.107415  0.13244  0  0.977737  0
H  H35  1  0.04091675  0.64717617  0.53364752  1  0.040304  0  0.100325  0.116854  0  0.997082  0
H  H36  1  0.95908303  0.35282387  0.46635474  1  0.040241  0  0.100314  0.116882  0  0.997063  0
C  C37  1  0.67897767  0.81048167  0.05327871  1  0.374177  0  0.104062  0.21039  0  3.999892  0
C  C38  1  0.32102359  0.18950783  0.94673286  1  0.373716  0  0.104082  0.210319  0  3.9999  0
C  C39  1  0.59540325  0.72704168  0.05501248  1  0.514276  0  0.037579  -0.014065  0  3.906731  0
C  C40  1  0.40460071  0.27294992  0.94499050  1  0.514749  0  0.037613  -0.013914  0  3.906857  0
C  C41  1  0.80368563  0.58821801  0.94839420  1  0.481941  0  0.039187  0.06675  0  3.972873  0
C  C42  1  0.19631685  0.41178414  0.05160294  1  0.482329  0  0.03919  0.066742  0  3.97288  0
C  C43  1  0.89337318  0.66759634  0.94103894  1  0.009803  0  -0.081174  -0.110879  0  3.987541  0
C  C44  1  0.10663241  0.33239738  0.05896798  1  0.008956  0  -0.081177  -0.11096  0  3.987473  0
C  C45  1  0.83094826  0.78091448  0.99297201  1  -0.101456  0  -0.063285  -0.113409  0  3.870295  0
C  C46  1  0.16905458  0.21907291  0.00704414  1  -0.100726  0  -0.063236  -0.113225  0  3.87041  0
C  C47  1  0.48859052  0.93889986  0.20452337  1  1.384749  0  0.248596  0.540512  0  4.052524  0
C  C48  1  0.51140274  0.06109175  0.79548400  1  1.384522  0  0.248512  0.540427  0  4.052581  0
C  C49  1  0.44714590  0.07061281  0.24693659  1  -0.034481  0  -0.159497  -0.344296  0  3.946382  0
C  C50  1  0.55284924  0.92937985  0.75307152  1  -0.033965  0  -0.159488  -0.344352  0  3.946424  0
C  C51  1  0.47445491  0.03500373  0.37778753  1  -0.04524  0  -0.017237  0.123682  0  3.977343  0
C  C52  1  0.52554105  0.96498998  0.62221820  1  -0.045407  0  -0.017248  0.123637  0  3.97733  0
C  C53  1  0.36054720  0.01162777  0.49426030  1  -0.037536  0  -0.098484  -0.135683  0  3.989681  0
C  C54  1  0.63944315  0.98836700  0.50575039  1  -0.037125  0  -0.098439  -0.135455  0  3.989553  0
C  C55  1  0.61445633  0.02276190  0.38471777  1  -0.081504  0  -0.100463  -0.142664  0  3.973322  0
C  C56  1  0.38553719  0.97722865  0.61529075  1  -0.081572  0  -0.100468  -0.142596  0  3.973328  0
C  C57  1  0.47573432  0.64041344  0.57714811  1  0.40359  0  0.108845  0.21876  0  4.007208  0
C  C58  1  0.52426739  0.35959187  0.42284382  1  0.403316  0  0.108718  0.218486  0  4.007326  0
C  C59  1  0.45309285  0.59585407  0.71362454  1  0.501852  0  0.040749  -0.004929  0  3.887695  0
C  C60  1  0.54691075  0.40415230  0.28636727  1  0.50208  0  0.040765  -0.004865  0  3.887731  0
C  C61  1  0.69620122  0.58425930  0.68864174  1  0.482356  0  0.030413  0.056699  0  3.984165  0
C  C62  1  0.30380350  0.41575128  0.31134213  1  0.481554  0  0.03038  0.056564  0  3.98395  0
C  C63  1  0.72715686  0.62822542  0.55259657  1  -0.00406  0  -0.081794  -0.106459  0  4.016273  0
C  C64  1  0.27284653  0.37178622  0.44738736  1  -0.003361  0  -0.08183  -0.106455  0  4.01592  0
C  C65  1  0.61637231  0.65684706  0.49569197  1  -0.04404  0  -0.068039  -0.124881  0  3.921016  0
C  C66  1  0.38362839  0.34316247  0.50429533  1  -0.044775  0  -0.067945  -0.124632  0  3.92084  0
C  C67  1  0.23115615  0.63494628  0.57846474  1  1.40985  0  0.242336  0.537387  0  4.076222  0
C  C68  1  0.76884210  0.36506009  0.42153405  1  1.409866  0  0.24234  0.537305  0  4.076139  0
C  C69  1  0.00296835  0.89111108  0.61568646  1  -0.097181  0  -0.097547  -0.142746  0  3.978414  0
C  C70  1  0.99702746  0.10889212  0.38430990  1  -0.097094  0  -0.097577  -0.142825  0  3.978599  0
C  C71  1  0.05928344  0.85906931  0.49610719  1  -0.043552  0  -0.013755  0.121015  0  3.978539  0
C  C72  1  0.94071237  0.14093390  0.50388917  1  -0.04358  0  -0.013733  0.121074  0  3.978563  0
C  C73  1  0.05595871  0.96994193  0.38006303  1  0.002783  0  -0.091171  -0.130549  0  3.983743  0
C  C74  1  0.94403924  0.03006128  0.61993262  1  0.002944  0  -0.091215  -0.130615  0  3.983564  0
C  C75  1  0.12586025  0.70768796  0.49318979  1  -0.06205  0  -0.155871  -0.347608  0  3.950622  0
C  C76  1  0.87413769  0.29231525  0.50680934  1  -0.061798  0  -0.155821  -0.347665  0  3.950673  0
N  N77  1  0.65734749  0.61935431  0.00240024  1  -1.258692  0  -0.332533  -0.228197  0  3.565706  0
N  N78  1  0.34265495  0.38064363  0.99759840  1  -1.25863  0  -0.332592  -0.228224  0  3.565836  0
N  N79  1  0.61519078  0.92481520  0.10556749  1  -1.29196  0  -0.39488  -0.377744  0  3.563531  0
N  N80  1  0.38480885  0.07517219  0.89444622  1  -1.29202  0  -0.394931  -0.377858  0  3.563621  0
N  N81  1  0.56098831  0.56937380  0.76716799  1  -1.233121  0  -0.330725  -0.219134  0  3.528424  0
N  N82  1  0.43901876  0.43063152  0.23281957  1  -1.23249  0  -0.330688  -0.219064  0  3.528321  0
N  N83  1  0.36320375  0.67362928  0.52039891  1  -1.282225  0  -0.398554  -0.391074  0  3.570932  0
N  N84  1  0.63679608  0.32637498  0.47959575  1  -1.282274  0  -0.398509  -0.390853  0  3.570686  0
N  N85  1  0.22215810  0.79020215  0.95826951  1  0.845689  0  0.100336  0.719968  0  4.426188  0
N  N86  1  0.77783873  0.20979684  0.04173409  1  0.84595  0  0.100402  0.720017  0  4.426041  0
O  O87  1  0.41231793  0.84973400  0.25909278  1  -1.173527  0  -0.29052  -0.501147  0  2.1892  0
O  O88  1  0.58767166  0.15026393  0.74090660  1  -1.173363  0  -0.290409  -0.500976  0  2.189106  0
O  O89  1  0.19693594  0.55328554  0.69006734  1  -1.160372  0  -0.299941  -0.491999  0  2.08722  0
O  O90  1  0.80306108  0.44673032  0.30993547  1  -1.160448  0  -0.299974  -0.49199  0  2.087128  0
O  O91  1  0.18046586  0.73815144  0.90061260  1  -0.526862  0  -0.17039  -0.428388  0  2.00027  0
O  O92  1  0.81953581  0.26184966  0.09938605  1  -0.526866  0  -0.170408  -0.428398  0  2.000245  0
O  O93  1  0.18311047  0.92152216  0.94459928  1  -0.556358  0  -0.195761  -0.453133  0  1.977498  0
O  O94  1  0.81688127  0.07847577  0.05540984  1  -0.556596  0  -0.195783  -0.453193  0  1.97752  0
O  O95  1  0.30622829  0.71113258  0.03288057  1  -0.609831  0  -0.224428  -0.491145  0  2.036209  0
O  O96  1  0.69377282  0.28886641  0.96711987  1  -0.609801  0  -0.22446  -0.491159  0  2.036148  0
