# generated using pymatgen
data_V2CoH4C2NO7
_symmetry_space_group_name_H-M   'P 1'
_cell_length_a   7.05903032
_cell_length_b   9.58344400
_cell_length_c   12.36646324
_cell_angle_alpha   89.49003607
_cell_angle_beta   106.61805084
_cell_angle_gamma   90.83595219
_symmetry_Int_Tables_number   1
_chemical_formula_structural   V2CoH4C2NO7
_chemical_formula_sum   'V8 Co4 H16 C8 N4 O28'
_cell_volume   801.55173740
_cell_formula_units_Z   4
loop_
 _symmetry_equiv_pos_site_id
 _symmetry_equiv_pos_as_xyz
  1  'x, y, z'
loop_
 _atom_site_type_symbol
 _atom_site_label
 _atom_site_symmetry_multiplicity
 _atom_site_fract_x
 _atom_site_fract_y
 _atom_site_fract_z
 _atom_site_occupancy
 _atom_site_hse06_10hf_ddec_charge
 _atom_site_hse06_10hf_ddec_spin_density
 _atom_site_hse06_10hf_ddec_sum_bond_order
 _atom_site_hse06_10hf_magmom
 _atom_site_hse06_bader_charge
 _atom_site_hse06_bader_spin_density
 _atom_site_hse06_ddec_charge
 _atom_site_hse06_ddec_spin_density
 _atom_site_hse06_ddec_sum_bond_order
 _atom_site_hse06_magmom
 _atom_site_pbe_cm5_charge
 _atom_site_pbe_ddec_charge
 _atom_site_pbe_ddec_spin_density
 _atom_site_pbe_ddec_sum_bond_order
 _atom_site_pbe_magmom
V  V0  1  0.31418037  0.46548290  0.39860093  1  2.071826  0.029044  3.209393  0.053  2.294236  0.059561  2.171345  0.034223  3.186097  0.064  1.438445  1.996175  0.023505  3.239392  0.042
V  V1  1  0.18571224  0.96959345  0.10398563  1  2.07404  -0.035092  3.21078  -0.054  2.290415  -0.032177  2.170089  -0.021808  3.194328  -0.033  1.431958  1.996038  -0.045557  3.24258  -0.067
V  V2  1  0.67425347  0.53470588  0.60440067  1  2.079276  0.025255  3.199816  0.051  2.291645  0.056559  2.176096  0.031742  3.181841  0.062  1.435438  2.000941  0.011939  3.228521  0.028
V  V3  1  0.82793805  0.03425067  0.89484228  1  2.084894  0.027411  3.198752  0.054  2.294508  0.058277  2.179398  0.032872  3.182877  0.064  1.431466  2.005223  0.01363  3.229322  0.03
V  V4  1  0.81051020  0.46565412  0.40261488  1  2.062654  -0.042371  3.245466  -0.066  2.270833  -0.040989  2.160122  -0.027508  3.227683  -0.042  1.439025  1.985326  -0.060459  3.273279  -0.091
V  V5  1  0.68863447  0.96734417  0.09972726  1  2.067886  0.033075  3.248417  0.061  2.291829  0.065038  2.166555  0.037211  3.226452  0.07  1.441724  1.993623  0.027761  3.274867  0.051
V  V6  1  0.17692013  0.52909061  0.60167886  1  2.075325  0.021552  3.231567  0.044  2.282471  0.052453  2.172428  0.029474  3.213119  0.058  1.441305  1.996376  0.007006  3.259125  0.02
V  V7  1  0.32515325  0.02886265  0.89866376  1  2.077387  0.021333  3.23342  0.044  2.285523  0.052733  2.175158  0.029507  3.215165  0.058  1.443173  1.999005  0.007914  3.260035  0.022
Co  Co8  1  0.48122451  0.69716548  0.22768043  1  1.249271  2.839188  2.491437  2.593  1.452744  2.69684  1.307303  2.882362  2.411077  2.678  0.710304  1.2025  2.787562  2.548378  2.493
Co  Co9  1  0.01615182  0.19791271  0.27687595  1  1.120499  -1.115443  2.787296  -0.922  1.331214  -0.944674  1.168203  -1.132769  2.71732  -0.939  0.694612  1.096656  -1.083981  2.828989  -0.863
Co  Co10  1  0.52122426  0.30242572  0.77366022  1  1.250825  2.837315  2.497522  2.592  1.455682  2.699353  1.308032  2.886702  2.419267  2.68  0.709315  1.199272  2.790103  2.561614  2.493
Co  Co11  1  0.98335510  0.80259456  0.72393766  1  1.252454  2.843701  2.485082  2.599  1.459467  2.703351  1.310812  2.890321  2.405707  2.684  0.706798  1.199891  2.796128  2.548899  2.5
H  H12  1  0.53150981  0.38847824  0.18519174  1  0.11315  0.000732  1.012891  0.002  0.160306  0.001644  0.115195  0.000495  1.010902  0.001  0.133785  0.111649  0.001084  1.014481  0.002
H  H13  1  0.95942013  0.89557018  0.30869126  1  0.116715  0.000398  1.01888  0.0  0.1791  0.000783  0.118075  0.000341  1.017189  0.0  0.137253  0.115582  0.000498  1.020627  0.001
H  H14  1  0.45532370  0.60467142  0.81772679  1  0.114458  0.00091  1.011252  0.002  0.155375  0.001936  0.115951  0.000572  1.010194  0.001  0.134528  0.113301  0.001196  1.012625  0.002
H  H15  1  0.05281047  0.10859937  0.67647279  1  0.119959  0.00053  1.004193  0.001  0.17598  0.001402  0.121579  0.000323  1.003096  0.001  0.136006  0.118779  0.000657  1.005428  0.002
H  H16  1  0.57515393  0.25107602  0.02378899  1  0.086011  0.000916  1.063846  0.001  0.139624  0.00183  0.088121  0.000621  1.060926  0.001  0.126951  0.084742  0.001268  1.066067  0.002
H  H17  1  0.93381611  0.75448612  0.47294603  1  0.091738  0.00048  1.052859  0.001  0.115623  0.001413  0.093671  0.000254  1.050461  0.001  0.128323  0.090621  0.00072  1.054349  0.001
H  H18  1  0.40852319  0.74164660  0.97879377  1  0.085949  0.000924  1.062916  0.002  0.163426  0.001818  0.087978  0.000533  1.060302  0.001  0.127813  0.085168  0.001385  1.063569  0.002
H  H19  1  0.07899824  0.25026661  0.51223530  1  0.084423  0.000449  1.081875  0.0  0.129915  0.000671  0.086347  0.000311  1.078136  0.0  0.129163  0.08364  0.000657  1.083269  0.001
H  H20  1  0.44859832  0.80217265  0.43181936  1  0.415687  0.000399  0.872344  0.0  0.645212  0.000448  0.423258  0.000205  0.86404  0.0  0.325639  0.410359  0.000513  0.877903  0.001
H  H21  1  0.05607128  0.28986556  0.08810232  1  0.415612  4e-05  0.857945  0.0  0.666266  3.2e-05  0.422927  1.9e-05  0.850785  0.0  0.337813  0.410435  3.2e-05  0.862984  0.0
H  H22  1  0.58243300  0.21325838  0.57374573  1  0.412902  0.000141  0.882151  0.0  0.650479  5.4e-05  0.421518  1.8e-05  0.870238  0.0  0.321554  0.406964  0.000372  0.888475  0.0
H  H23  1  0.91335738  0.70908633  0.92109768  1  0.412098  6.5e-05  0.876706  0.0  0.633047  2.2e-05  0.420362  -4.4e-05  0.867529  0.0  0.324045  0.406178  0.000294  0.882974  0.0
H  H24  1  0.39038756  0.91836373  0.33723114  1  0.406457  7.1e-05  0.903256  0.0  0.659952  -9.7e-05  0.415248  -1.7e-05  0.890582  0.0  0.31062  0.400274  0.000177  0.912016  0.0
H  H25  1  0.11516021  0.41013109  0.17964461  1  0.40687  -2.6e-05  0.904928  0.0  0.670166  2e-05  0.415663  -2.5e-05  0.892353  0.0  0.31502  0.400736  -1.6e-05  0.912431  0.0
H  H26  1  0.63230681  0.09153048  0.66438714  1  0.407634  0.000103  0.904025  0.0  0.662937  3.2e-05  0.416615  -6.4e-05  0.891047  0.0  0.308221  0.401602  0.0002  0.912568  0.0
H  H27  1  0.86735519  0.58682133  0.83190008  1  0.404703  0.000105  0.911793  0.0  0.659962  3.4e-05  0.413981  -6.1e-05  0.898349  0.0  0.303864  0.398742  0.000203  0.920252  0.0
C  C28  1  0.51213460  0.43679398  0.10288777  1  0.070127  -0.001183  3.872978  -0.001  0.54722  -0.001672  0.074943  -0.000974  3.889944  -0.001  0.067683  0.065591  -0.000543  3.865532  0.001
C  C29  1  0.98148167  0.94379469  0.39056762  1  0.060518  0.006523  3.847063  0.009  0.529619  0.008827  0.067985  0.004662  3.860846  0.006  0.067269  0.053691  0.007918  3.843226  0.011
C  C30  1  0.47337818  0.55627989  0.89983058  1  0.0737  0.002038  3.871754  0.003  0.526505  0.003044  0.076592  0.001563  3.89015  0.002  0.068477  0.068636  0.000105  3.862798  0.002
C  C31  1  0.02940178  0.06056910  0.59422776  1  0.07338  -0.00137  3.877957  -0.002  0.508619  -0.00278  0.076526  -0.001742  3.89394  -0.003  0.069073  0.068606  -0.002186  3.870356  -0.003
C  C32  1  0.53712967  0.36062546  0.01320230  1  0.086029  0.001769  3.890534  0.002  0.531245  0.002809  0.089934  0.001467  3.906917  0.002  0.06982  0.079964  9.9e-05  3.882885  0.001
C  C33  1  0.96704120  0.86541509  0.48274974  1  0.088197  -0.001949  3.887692  -0.003  0.575482  -0.003333  0.092303  -0.002086  3.902079  -0.003  0.069845  0.08241  -0.002477  3.88116  -0.003
C  C34  1  0.44759537  0.63232351  0.98927389  1  0.085266  -0.000589  3.890636  0.0  0.551086  -0.001101  0.089859  -0.000592  3.907995  -0.001  0.068963  0.080739  -0.000734  3.882835  0.001
C  C35  1  0.04394095  0.14000386  0.50284453  1  0.073301  0.006449  3.866028  0.008  0.571498  0.00871  0.081071  0.004601  3.879112  0.006  0.06482  0.066897  0.007749  3.860778  0.01
N  N36  1  0.46905879  0.57311191  0.09075852  1  -0.214088  0.035672  3.549254  0.054  -1.303255  0.048352  -0.234213  0.027411  3.565642  0.042  -0.30553  -0.201266  0.040034  3.540928  0.06
N  N37  1  0.01687524  0.08241060  0.40026827  1  -0.156106  0.0038  3.613009  0.006  -1.269998  0.007699  -0.17937  0.002677  3.627745  0.005  -0.318583  -0.14478  0.001315  3.605939  0.002
N  N38  1  0.51786174  0.42022928  0.91214003  1  -0.215277  0.031443  3.548661  0.047  -1.289332  0.043261  -0.234267  0.024532  3.564542  0.037  -0.304398  -0.200135  0.038972  3.538773  0.058
N  N39  1  0.98972182  0.92301392  0.58428297  1  -0.220596  0.039031  3.541214  0.06  -1.277946  0.051307  -0.237057  0.028917  3.554479  0.044  -0.303961  -0.207355  0.049291  3.533064  0.074
O  O40  1  0.29561159  0.54984948  0.27757813  1  -0.8562  0.010071  1.777449  0.013  -0.962596  0.004777  -0.885493  0.004544  1.755917  0.002  -0.584358  -0.834016  0.014243  1.791197  0.02
O  O41  1  0.20373258  0.05852754  0.22165371  1  -0.840363  -0.002093  1.73835  0.007  -0.949497  0.006084  -0.869081  -0.000853  1.723273  0.01  -0.582135  -0.817538  -0.00423  1.748856  0.003
O  O42  1  0.69300327  0.45558622  0.72795393  1  -0.863761  0.020187  1.818063  0.028  -0.971717  0.021574  -0.894601  0.014071  1.798091  0.016  -0.587099  -0.84023  0.027609  1.836073  0.042
O  O43  1  0.81108745  0.95198921  0.77375561  1  -0.866478  0.01837  1.773395  0.026  -0.972578  0.01927  -0.897252  0.012627  1.75389  0.014  -0.586839  -0.840649  0.026842  1.789752  0.041
O  O44  1  0.69903206  0.60186027  0.32336525  1  -0.890514  0.043293  1.948884  0.061  -0.990438  0.041536  -0.937154  0.026285  1.938583  0.031  -0.600915  -0.851392  0.060659  1.955251  0.09
O  O45  1  0.80523599  0.10147559  0.18021906  1  -0.865044  -0.004851  2.004907  -0.007  -0.959798  -0.012725  -0.904422  -0.009311  1.992295  -0.014  -0.598067  -0.838256  -0.002588  2.012229  -0.003
O  O46  1  0.29230583  0.39483594  0.68125235  1  -0.878748  0.033114  1.920429  0.044  -0.975607  0.029626  -0.920041  0.019518  1.908958  0.02  -0.59539  -0.838009  0.056904  1.925263  0.084
O  O47  1  0.20896982  0.89401358  0.81943941  1  -0.877783  0.036767  1.935357  0.049  -0.976057  0.033261  -0.921052  0.021586  1.924099  0.023  -0.597466  -0.837751  0.059444  1.941491  0.087
O  O48  1  0.67457326  0.82721365  0.17637889  1  -0.823082  0.012488  1.809827  0.016  -0.934369  0.005683  -0.855049  0.005665  1.790507  0.002  -0.584042  -0.798397  0.01835  1.822369  0.028
O  O49  1  0.81717779  0.32865814  0.32355324  1  -0.798707  -0.000474  1.77752  0.01  -0.910971  0.011404  -0.829067  0.001701  1.764966  0.014  -0.576007  -0.774268  -0.001795  1.78474  0.007
O  O50  1  0.33790143  0.16355825  0.81623817  1  -0.827517  0.024325  1.850165  0.035  -0.934981  0.025399  -0.861434  0.01607  1.833153  0.02  -0.585973  -0.798992  0.035814  1.863971  0.057
O  O51  1  0.16618269  0.66455560  0.68174714  1  -0.829304  0.022517  1.830685  0.033  -0.935118  0.02373  -0.862076  0.015045  1.812917  0.019  -0.58472  -0.799857  0.03461  1.843127  0.056
O  O52  1  0.26542571  0.80633841  0.14205939  1  -0.878944  0.040976  1.904607  0.058  -0.976546  0.039748  -0.922008  0.024958  1.892029  0.03  -0.602146  -0.843043  0.05575  1.913408  0.082
O  O53  1  0.22607300  0.30140639  0.36737005  1  -0.853234  -0.004924  1.993413  -0.006  -0.947838  -0.01394  -0.891644  -0.009975  1.97979  -0.015  -0.596712  -0.827986  -0.003332  2.002129  -0.004
O  O54  1  0.74722356  0.19822756  0.86287959  1  -0.878227  0.027158  1.863129  0.033  -0.965869  0.020469  -0.915454  0.014702  1.849433  0.012  -0.600159  -0.842683  0.047213  1.871352  0.067
O  O55  1  0.75805420  0.69939056  0.63217534  1  -0.871885  0.029311  1.883567  0.037  -0.963158  0.023053  -0.910327  0.016052  1.869998  0.014  -0.599689  -0.838672  0.047102  1.892695  0.066
O  O56  1  0.58467431  0.42260630  0.46035223  1  -1.091066  0.00269  2.026455  0.005  -1.16783  0.00451  -1.136988  0.002071  2.026085  0.003  -0.697735  -1.054902  0.004309  2.026807  0.008
O  O57  1  0.91297648  0.92739108  0.04225470  1  -1.08876  0.002041  2.024335  0.004  -1.165657  0.00341  -1.133512  0.001422  2.023574  0.002  -0.699225  -1.052312  0.003641  2.024981  0.007
O  O58  1  0.40135341  0.57459120  0.54363465  1  -1.090632  0.002348  2.010595  0.004  -1.165317  0.003012  -1.136223  0.001009  2.01024  0.001  -0.698788  -1.055945  0.003384  2.011925  0.006
O  O59  1  0.10225301  0.07443315  0.95559987  1  -1.092498  0.00108  2.008126  0.003  -1.16624  0.000884  -1.137052  -6.5e-05  2.007164  0.0  -0.699456  -1.056812  0.002103  2.009906  0.006
O  O60  1  0.07921468  0.52549724  0.43540701  1  -1.079507  0.00205  2.079623  0.004  -1.145697  0.003417  -1.12642  0.001571  2.080996  0.002  -0.707758  -1.042815  0.003057  2.079145  0.007
O  O61  1  0.42265273  0.02703789  0.06547900  1  -1.087389  0.003593  2.090503  0.005  -1.150164  0.005478  -1.134517  0.002689  2.092463  0.003  -0.708645  -1.05014  0.005222  2.088934  0.009
O  O62  1  0.90749525  0.46833717  0.56901625  1  -1.082126  -0.000133  2.062149  0.001  -1.144481  -0.000623  -1.129183  -0.000937  2.064252  -0.001  -0.706124  -1.045456  0.000548  2.061025  0.004
O  O63  1  0.59260558  0.97020160  0.93233295  1  -1.084257  0.000654  2.065116  0.001  -1.156987  0.001006  -1.130366  -2.8e-05  2.066528  -0.001  -0.705223  -1.048652  0.001416  2.064131  0.004
O  O64  1  0.48630955  0.84449281  0.36872510  1  -0.756762  0.020374  2.035876  0.03  -1.273558  0.028913  -0.779118  0.01631  2.010162  0.024  -0.542607  -0.738824  0.024599  2.052561  0.035
O  O65  1  0.01751569  0.33445928  0.14931622  1  -0.69989  0.001591  2.126469  0.004  -1.260311  0.003722  -0.728242  0.001386  2.103426  0.003  -0.52141  -0.68099  0.000806  2.140899  0.002
O  O66  1  0.53645997  0.16538322  0.63193479  1  -0.757186  0.022098  2.033508  0.033  -1.28247  0.031594  -0.779945  0.017684  2.004102  0.026  -0.544361  -0.738073  0.02674  2.050411  0.039
O  O67  1  0.96280913  0.66241973  0.86484881  1  -0.755293  0.022543  2.030703  0.034  -1.262832  0.032239  -0.778618  0.017963  2.004088  0.027  -0.544594  -0.736136  0.027247  2.047431  0.04
