# generated using pymatgen
data_NaH7C2(SO2)2
_symmetry_space_group_name_H-M   'P 1'
_cell_length_a   4.94097326
_cell_length_b   6.07206943
_cell_length_c   23.45374218
_cell_angle_alpha   90.00008939
_cell_angle_beta   90.00015890
_cell_angle_gamma   90.00011513
_symmetry_Int_Tables_number   1
_chemical_formula_structural   NaH7C2(SO2)2
_chemical_formula_sum   'Na4 H28 C8 S8 O16'
_cell_volume   703.65759324
_cell_formula_units_Z   4
loop_
 _symmetry_equiv_pos_site_id
 _symmetry_equiv_pos_as_xyz
  1  'x, y, z'
loop_
 _atom_site_type_symbol
 _atom_site_label
 _atom_site_symmetry_multiplicity
 _atom_site_fract_x
 _atom_site_fract_y
 _atom_site_fract_z
 _atom_site_occupancy
 _atom_site_hle17_bader_spin_density
 _atom_site_hle17_ddec_charge
 _atom_site_hle17_ddec_spin_density
 _atom_site_hle17_ddec_sum_bond_order
 _atom_site_hle17_magmom
 _atom_site_hse06_10hf_bader_spin_density
 _atom_site_hse06_10hf_ddec_charge
 _atom_site_hse06_10hf_ddec_spin_density
 _atom_site_hse06_10hf_ddec_sum_bond_order
 _atom_site_hse06_10hf_magmom
 _atom_site_hse06_bader_spin_density
 _atom_site_hse06_ddec_charge
 _atom_site_hse06_ddec_spin_density
 _atom_site_hse06_ddec_sum_bond_order
 _atom_site_hse06_magmom
 _atom_site_pbe_bader_spin_density
 _atom_site_pbe_cm5_charge
 _atom_site_pbe_ddec_charge
 _atom_site_pbe_ddec_spin_density
 _atom_site_pbe_ddec_sum_bond_order
 _atom_site_pbe_magmom
Na  Na0  1  0.33424643  0.65939406  0.26579534  1  0  0.904086  0  0.401405  0  0  0.864766  0  0.553737  0  0  0.873371  0  0.533613  0  0  0.724328  0.858177  0  0.568453  0
Na  Na1  1  0.66575645  0.15939487  0.73420374  1  0  0.904086  0  0.401399  0  0  0.864768  0  0.553732  0  0  0.873377  0  0.53361  0  0  0.72433  0.858177  0  0.568451  0
Na  Na2  1  0.83424629  0.15939844  0.23420512  1  0  0.904061  0  0.401408  0  0  0.864748  0  0.553731  0  0  0.873349  0  0.533613  0  0  0.724311  0.858159  0  0.568448  0
Na  Na3  1  0.16575457  0.65939872  0.76579525  1  0  0.904068  0  0.401417  0  0  0.864751  0  0.553752  0  0  0.873355  0  0.533633  0  0  0.724312  0.858159  0  0.568467  0
H  H4  1  0.90724959  0.65926823  0.98320427  1  0  0.093429  0  1.015584  0  0  0.104096  0  1.107542  0  0  0.107814  0  1.105709  0  0  0.104696  0.101305  0  1.108998  0
H  H5  1  0.09275126  0.15926708  0.01679439  1  0  0.093444  0  1.015569  0  0  0.104102  0  1.107537  0  0  0.107821  0  1.105704  0  0  0.104699  0.101308  0  1.109002  0
H  H6  1  0.40725130  0.15926720  0.51679615  1  0  0.093445  0  1.015575  0  0  0.104107  0  1.107535  0  0  0.107827  0  1.105701  0  0  0.104695  0.101314  0  1.108998  0
H  H7  1  0.59275159  0.65926976  0.48320465  1  0  0.093449  0  1.01557  0  0  0.104107  0  1.107537  0  0  0.107826  0  1.105704  0  0  0.1047  0.10132  0  1.108987  0
H  H8  1  0.80005404  0.79049327  0.33135477  1  0  0.421335  0  0.873782  0  0  0.395507  0  0.930648  0  0  0.404761  0  0.916848  0  0  0.294584  0.388895  0  0.94052  0
H  H9  1  0.19994512  0.29048963  0.66864523  1  0  0.421364  0  0.87375  0  0  0.395538  0  0.93061  0  0  0.404791  0  0.916813  0  0  0.294605  0.388927  0  0.940481  0
H  H10  1  0.30005369  0.29049480  0.16864615  1  0  0.421343  0  0.873763  0  0  0.39551  0  0.930638  0  0  0.404766  0  0.916835  0  0  0.294584  0.388899  0  0.940509  0
H  H11  1  0.69994345  0.79049634  0.83135384  1  0  0.421373  0  0.873726  0  0  0.395555  0  0.930572  0  0  0.404807  0  0.916777  0  0  0.294606  0.388941  0  0.94045  0
H  H12  1  0.80275764  0.53510752  0.33079617  1  0  0.42031  0  0.875832  0  0  0.394164  0  0.933586  0  0  0.403429  0  0.919755  0  0  0.295343  0.387527  0  0.943515  0
H  H13  1  0.19723887  0.03510553  0.66920415  1  0  0.420325  0  0.875815  0  0  0.394186  0  0.933555  0  0  0.403452  0  0.919723  0  0  0.295348  0.387549  0  0.943483  0
H  H14  1  0.30275730  0.03511070  0.16920422  1  0  0.420311  0  0.875837  0  0  0.394165  0  0.933591  0  0  0.403431  0  0.919759  0  0  0.295347  0.387527  0  0.943523  0
H  H15  1  0.69724325  0.53511059  0.83079566  1  0  0.420338  0  0.875801  0  0  0.394196  0  0.933549  0  0  0.403462  0  0.919717  0  0  0.295359  0.38756  0  0.943476  0
H  H16  1  0.02631015  0.86425256  0.07612279  1  0  0.093415  0  0.933815  0  0  0.109548  0  0.992591  0  0  0.110767  0  0.992596  0  0  0.09788  0.108615  0  0.992717  0
H  H17  1  0.97368717  0.36425337  0.92387681  1  0  0.093367  0  0.933836  0  0  0.109502  0  0.992618  0  0  0.110721  0  0.992624  0  0  0.097864  0.108569  0  0.992744  0
H  H18  1  0.52630643  0.36425149  0.42387800  1  0  0.093436  0  0.93381  0  0  0.109553  0  0.992601  0  0  0.110774  0  0.992607  0  0  0.097895  0.108619  0  0.992726  0
H  H19  1  0.47368886  0.86425608  0.57612202  1  0  0.093362  0  0.933839  0  0  0.109495  0  0.992623  0  0  0.110714  0  0.992625  0  0  0.097862  0.108564  0  0.992752  0
H  H20  1  0.71357049  0.00440460  0.08251540  1  0  0.100078  0  0.918267  0  0  0.118999  0  0.972556  0  0  0.120309  0  0.972274  0  0  0.103929  0.117931  0  0.97303  0
H  H21  1  0.28642796  0.50440764  0.91748490  1  0  0.10005  0  0.918262  0  0  0.118973  0  0.972556  0  0  0.120282  0  0.972275  0  0  0.103921  0.117906  0  0.973024  0
H  H22  1  0.21356858  0.50439949  0.41748493  1  0  0.100025  0  0.918312  0  0  0.118948  0  0.972605  0  0  0.120262  0  0.972322  0  0  0.103898  0.117878  0  0.973082  0
H  H23  1  0.78642582  0.00440946  0.58251537  1  0  0.100024  0  0.918267  0  0  0.118951  0  0.97256  0  0  0.12026  0  0.972277  0  0  0.1039  0.117884  0  0.973036  0
H  H24  1  0.78086554  0.49830711  0.08280119  1  0  0.122859  0  0.939661  0  0  0.132512  0  1.005244  0  0  0.135  0  1.004586  0  0  0.103577  0.130665  0  1.005894  0
H  H25  1  0.21913616  0.99830839  0.91719846  1  0  0.122792  0  0.939722  0  0  0.132452  0  1.005295  0  0  0.134939  0  1.004634  0  0  0.103546  0.1306  0  1.005944  0
H  H26  1  0.28086565  0.99830364  0.41719980  1  0  0.122849  0  0.939721  0  0  0.132506  0  1.005312  0  0  0.134993  0  1.004651  0  0  0.103563  0.130658  0  1.005958  0
H  H27  1  0.71913200  0.49831186  0.58280027  1  0  0.122853  0  0.939674  0  0  0.13251  0  1.005259  0  0  0.134998  0  1.004598  0  0  0.103554  0.130655  0  1.005908  0
H  H28  1  0.46882200  0.64228910  0.09277139  1  0  0.129522  0  0.930702  0  0  0.142761  0  0.989034  0  0  0.145186  0  0.988561  0  0  0.105913  0.140982  0  0.989527  0
H  H29  1  0.53117882  0.14229238  0.90722897  1  0  0.129531  0  0.930696  0  0  0.142765  0  0.989033  0  0  0.14519  0  0.988561  0  0  0.105911  0.140985  0  0.989523  0
H  H30  1  0.96882413  0.14228629  0.40722786  1  0  0.129461  0  0.930774  0  0  0.142758  0  0.98904  0  0  0.145183  0  0.988567  0  0  0.105897  0.140976  0  0.98954  0
H  H31  1  0.03117264  0.64229190  0.59277207  1  0  0.129494  0  0.93078  0  0  0.142776  0  0.989063  0  0  0.145201  0  0.98859  0  0  0.105912  0.140994  0  0.989558  0
C  C32  1  0.80839891  0.85097269  0.06784630  1  0  -0.086509  0  3.680174  0  0  -0.120996  0  3.939686  0  0  -0.120028  0  3.951621  0  0  -0.150633  -0.121589  0  3.931472  0
C  C33  1  0.19159837  0.35097557  0.93215372  1  0  -0.086397  0  3.680083  0  0  -0.120912  0  3.939647  0  0  -0.119943  0  3.951582  0  0  -0.150623  -0.121507  0  3.931424  0
C  C34  1  0.30839798  0.35097251  0.43215508  1  0  -0.086501  0  3.680272  0  0  -0.120961  0  3.939759  0  0  -0.120003  0  3.95171  0  0  -0.150633  -0.121553  0  3.931544  0
C  C35  1  0.69159525  0.85097739  0.56784622  1  0  -0.086377  0  3.680096  0  0  -0.120874  0  3.939613  0  0  -0.119902  0  3.951544  0  0  -0.150611  -0.12147  0  3.931404  0
C  C36  1  0.68920777  0.65226448  0.09805718  1  0  -0.311778  0  3.6627  0  0  -0.344384  0  3.912252  0  0  -0.35085  0  3.921856  0  0  -0.159051  -0.339812  0  3.90559  0
C  C37  1  0.31079104  0.15226572  0.90194233  1  0  -0.311754  0  3.66266  0  0  -0.344329  0  3.912171  0  0  -0.350796  0  3.921773  0  0  -0.159009  -0.339747  0  3.905494  0
C  C38  1  0.18921252  0.15226247  0.40194319  1  0  -0.311695  0  3.662801  0  0  -0.344352  0  3.912317  0  0  -0.350815  0  3.921922  0  0  -0.15904  -0.339771  0  3.905628  0
C  C39  1  0.81078832  0.65226938  0.59805632  1  0  -0.311691  0  3.662741  0  0  -0.34434  0  3.912256  0  0  -0.350806  0  3.921858  0  0  -0.158991  -0.33975  0  3.905576  0
S  S40  1  0.74956029  0.83902892  0.99123112  1  0  -0.132103  0  2.197601  0  0  -0.146301  0  2.507578  0  0  -0.15135  0  2.502991  0  0  -0.098032  -0.142568  0  2.511094  0
S  S41  1  0.25043697  0.33902797  0.00876932  1  0  -0.132142  0  2.197554  0  0  -0.146327  0  2.507547  0  0  -0.151375  0  2.502961  0  0  -0.098042  -0.142591  0  2.511069  0
S  S42  1  0.24955986  0.33902783  0.50876757  1  0  -0.132119  0  2.19768  0  0  -0.146312  0  2.507652  0  0  -0.151359  0  2.503067  0  0  -0.098026  -0.14258  0  2.511172  0
S  S43  1  0.75043739  0.83902906  0.49123159  1  0  -0.132156  0  2.197577  0  0  -0.146345  0  2.507569  0  0  -0.151396  0  2.50298  0  0  -0.098045  -0.142615  0  2.511087  0
S  S44  1  0.74761377  0.65916520  0.17311942  1  0  1.374918  0  5.589609  0  0  1.289063  0  6.106781  0  0  1.334046  0  6.083469  0  0  0.493179  1.257922  0  6.121884  0
S  S45  1  0.25239316  0.15916590  0.82688052  1  0  1.375151  0  5.589536  0  0  1.289311  0  6.106681  0  0  1.334294  0  6.083366  0  0  0.493335  1.258164  0  6.121789  0
S  S46  1  0.24761348  0.15915451  0.32688014  1  0  1.374835  0  5.58975  0  0  1.28902  0  6.106897  0  0  1.334002  0  6.083585  0  0  0.493135  1.25788  0  6.122002  0
S  S47  1  0.75238738  0.65915683  0.67311980  1  0  1.374717  0  5.589802  0  0  1.288905  0  6.106947  0  0  1.333887  0  6.083639  0  0  0.493113  1.257742  0  6.122086  0
O  O48  1  0.61237514  0.46020004  0.19614850  1  0  -0.783305  0  1.988829  0  0  -0.731901  0  2.250705  0  0  -0.750287  0  2.231745  0  0  -0.449963  -0.718782  0  2.263574  0
O  O49  1  0.38763254  0.96020256  0.80385156  1  0  -0.783348  0  1.988774  0  0  -0.731961  0  2.250662  0  0  -0.750343  0  2.231699  0  0  -0.449986  -0.718843  0  2.263539  0
O  O50  1  0.11237983  0.96018930  0.30385366  1  0  -0.783242  0  1.988941  0  0  -0.731854  0  2.250849  0  0  -0.750237  0  2.231888  0  0  -0.449908  -0.718737  0  2.263716  0
O  O51  1  0.88762177  0.46019190  0.69614555  1  0  -0.783201  0  1.988959  0  0  -0.731803  0  2.250838  0  0  -0.750189  0  2.231882  0  0  -0.449892  -0.718681  0  2.263718  0
O  O52  1  0.04013581  0.66044758  0.18260299  1  0  -0.698953  0  1.939603  0  0  -0.648738  0  2.193044  0  0  -0.669154  0  2.179634  0  0  -0.372543  -0.634344  0  2.201878  0
O  O53  1  0.95987517  0.16044443  0.81739567  1  0  -0.699102  0  1.939708  0  0  -0.648902  0  2.193157  0  0  -0.669321  0  2.17975  0  0  -0.37264  -0.634511  0  2.201994  0
O  O54  1  0.54014283  0.16043929  0.31739815  1  0  -0.698939  0  1.939558  0  0  -0.648795  0  2.193056  0  0  -0.669211  0  2.179646  0  0  -0.372539  -0.634404  0  2.201891  0
O  O55  1  0.45986005  0.66044119  0.68260221  1  0  -0.69891  0  1.939604  0  0  -0.648736  0  2.193059  0  0  -0.669149  0  2.179648  0  0  -0.372543  -0.634339  0  2.201902  0
O  O56  1  0.68267623  0.66176937  0.33679051  1  0  -0.866184  0  1.741708  0  0  -0.830241  0  1.894844  0  0  -0.845634  0  1.866213  0  0  -0.647277  -0.819291  0  1.915126  0
O  O57  1  0.31732261  0.16176754  0.66320943  1  0  -0.866219  0  1.741647  0  0  -0.830297  0  1.894803  0  0  -0.84569  0  1.866172  0  0  -0.647304  -0.819354  0  1.915096  0
O  O58  1  0.18267783  0.16176921  0.16320944  1  0  -0.866186  0  1.741694  0  0  -0.830234  0  1.894813  0  0  -0.845627  0  1.86618  0  0  -0.647279  -0.819284  0  1.915108  0
O  O59  1  0.81732303  0.66177098  0.83678965  1  0  -0.866241  0  1.74166  0  0  -0.8303  0  1.894767  0  0  -0.84569  0  1.866136  0  0  -0.647313  -0.819346  0  1.915053  0
O  O60  1  0.61215300  0.86059895  0.19472493  1  0  -0.781121  0  1.979792  0  0  -0.728854  0  2.241817  0  0  -0.747379  0  2.223182  0  0  -0.445928  -0.715632  0  2.254433  0
O  O61  1  0.38785038  0.36059974  0.80527637  1  0  -0.781134  0  1.979762  0  0  -0.728875  0  2.241786  0  0  -0.7474  0  2.223151  0  0  -0.445938  -0.715658  0  2.254413  0
O  O62  1  0.11215445  0.36059471  0.30527506  1  0  -0.7811  0  1.979882  0  0  -0.728821  0  2.241878  0  0  -0.747347  0  2.223244  0  0  -0.445913  -0.715597  0  2.254481  0
O  O63  1  0.88784691  0.86059410  0.69472582  1  0  -0.7811  0  1.979941  0  0  -0.728835  0  2.241946  0  0  -0.747364  0  2.223315  0  0  -0.445933  -0.715582  0  2.254512  0
