# generated using pymatgen
data_ZnH10C9(NO3)2
_symmetry_space_group_name_H-M   'P 1'
_cell_length_a   7.20882249
_cell_length_b   7.37382963
_cell_length_c   21.84287172
_cell_angle_alpha   89.99955123
_cell_angle_beta   89.99892274
_cell_angle_gamma   89.99996407
_symmetry_Int_Tables_number   1
_chemical_formula_structural   ZnH10C9(NO3)2
_chemical_formula_sum   'Zn4 H40 C36 N8 O24'
_cell_volume   1161.09342529
_cell_formula_units_Z   4
loop_
 _symmetry_equiv_pos_site_id
 _symmetry_equiv_pos_as_xyz
  1  'x, y, z'
loop_
 _atom_site_type_symbol
 _atom_site_label
 _atom_site_symmetry_multiplicity
 _atom_site_fract_x
 _atom_site_fract_y
 _atom_site_fract_z
 _atom_site_occupancy
 _atom_site_hle17_bader_spin_density
 _atom_site_hle17_ddec_charge
 _atom_site_hle17_ddec_spin_density
 _atom_site_hle17_ddec_sum_bond_order
 _atom_site_hle17_magmom
 _atom_site_hse06_10hf_bader_spin_density
 _atom_site_hse06_10hf_ddec_charge
 _atom_site_hse06_10hf_ddec_spin_density
 _atom_site_hse06_10hf_ddec_sum_bond_order
 _atom_site_hse06_10hf_magmom
 _atom_site_hse06_bader_spin_density
 _atom_site_hse06_ddec_charge
 _atom_site_hse06_ddec_spin_density
 _atom_site_hse06_ddec_sum_bond_order
 _atom_site_hse06_magmom
 _atom_site_pbe_bader_spin_density
 _atom_site_pbe_cm5_charge
 _atom_site_pbe_ddec_charge
 _atom_site_pbe_ddec_spin_density
 _atom_site_pbe_ddec_sum_bond_order
 _atom_site_pbe_magmom
Zn  Zn0  1  0.75000790  0.92662161  0.21443575  1  0  1.099262  0  1.777651  0  0  0.923906  0  2.226928  0  0  0.972616  0  2.170889  0  0  0.676176  0.889716  0  2.265353  0
Zn  Zn1  1  0.25000205  0.42661480  0.28556276  1  0  1.099191  0  1.777762  0  0  0.923911  0  2.227004  0  0  0.972571  0  2.170967  0  0  0.676153  0.88972  0  2.265432  0
Zn  Zn2  1  0.75000071  0.57338413  0.71443869  1  0  1.099226  0  1.777732  0  0  0.923957  0  2.226907  0  0  0.972628  0  2.170871  0  0  0.676139  0.889768  0  2.26533  0
Zn  Zn3  1  0.24999624  0.07338139  0.78556525  1  0  1.099304  0  1.777693  0  0  0.923939  0  2.226934  0  0  0.972652  0  2.170901  0  0  0.67619  0.889751  0  2.26536  0
H  H4  1  0.74999942  0.29274264  0.86008978  1  0  0.371267  0  0.900997  0  0  0.346195  0  0.97141  0  0  0.356895  0  0.960333  0  0  0.305283  0.338592  0  0.979106  0
H  H5  1  0.25000155  0.79273928  0.63990992  1  0  0.371233  0  0.901065  0  0  0.346135  0  0.971511  0  0  0.356834  0  0.960439  0  0  0.305277  0.338541  0  0.979213  0
H  H6  1  0.75000121  0.20725694  0.36008787  1  0  0.371295  0  0.900959  0  0  0.346212  0  0.971387  0  0  0.356911  0  0.960312  0  0  0.305287  0.338616  0  0.979089  0
H  H7  1  0.25000611  0.70725358  0.13991167  1  0  0.371279  0  0.900949  0  0  0.346221  0  0.971344  0  0  0.356921  0  0.960269  0  0  0.305274  0.338625  0  0.979046  0
H  H8  1  0.63728494  0.20949566  0.27025891  1  0  0.413768  0  0.897731  0  0  0.379175  0  0.967244  0  0  0.390909  0  0.950368  0  0  0.288577  0.370919  0  0.979099  0
H  H9  1  0.36272098  0.70949692  0.22973880  1  0  0.413841  0  0.897684  0  0  0.379167  0  0.967306  0  0  0.390916  0  0.950409  0  0  0.288564  0.370905  0  0.979171  0
H  H10  1  0.86272081  0.29050465  0.77026196  1  0  0.413865  0  0.897609  0  0  0.379178  0  0.967256  0  0  0.390929  0  0.950355  0  0  0.288561  0.370914  0  0.979125  0
H  H11  1  0.13727878  0.79050334  0.72974049  1  0  0.41382  0  0.897676  0  0  0.379157  0  0.967286  0  0  0.390899  0  0.950398  0  0  0.288559  0.370896  0  0.979149  0
H  H12  1  0.36272059  0.79050598  0.72974025  1  0  0.4138  0  0.89769  0  0  0.379139  0  0.967307  0  0  0.390877  0  0.950424  0  0  0.288545  0.370877  0  0.979173  0
H  H13  1  0.63728038  0.29050472  0.77026266  1  0  0.413856  0  0.897632  0  0  0.379167  0  0.967281  0  0  0.39092  0  0.950378  0  0  0.288549  0.370903  0  0.979149  0
H  H14  1  0.13728195  0.70949428  0.22973904  1  0  0.413841  0  0.897643  0  0  0.379161  0  0.967281  0  0  0.390912  0  0.95038  0  0  0.288565  0.3709  0  0.979144  0
H  H15  1  0.86272537  0.20949695  0.27025867  1  0  0.413801  0  0.897737  0  0  0.379147  0  0.967324  0  0  0.390886  0  0.95044  0  0  0.288572  0.370891  0  0.979178  0
H  H16  1  0.75001043  0.93966528  0.07670705  1  0  0.077213  0  0.940752  0  0  0.086229  0  1.005528  0  0  0.089168  0  1.001361  0  0  0.116115  0.083996  0  1.008715  0
H  H17  1  0.25000644  0.43966747  0.42329326  1  0  0.07719  0  0.940733  0  0  0.086222  0  1.005508  0  0  0.08916  0  1.001341  0  0  0.116117  0.083989  0  1.008696  0
H  H18  1  0.74999492  0.56032739  0.57670865  1  0  0.077151  0  0.940708  0  0  0.086196  0  1.005485  0  0  0.089134  0  1.001318  0  0  0.116099  0.083962  0  1.008672  0
H  H19  1  0.24998955  0.06033365  0.92329441  1  0  0.077184  0  0.940766  0  0  0.086197  0  1.005541  0  0  0.089134  0  1.001377  0  0  0.116113  0.083963  0  1.008729  0
H  H20  1  0.75000536  0.72719925  0.98754498  1  0  0.110316  0  0.951646  0  0  0.12068  0  1.0117  0  0  0.123646  0  1.011001  0  0  0.110346  0.11853  0  1.012401  0
H  H21  1  0.25000952  0.22719339  0.51245352  1  0  0.110285  0  0.951768  0  0  0.120611  0  1.011851  0  0  0.123576  0  1.011152  0  0  0.110314  0.118459  0  1.01255  0
H  H22  1  0.74999185  0.77279333  0.48754610  1  0  0.110362  0  0.951697  0  0  0.120724  0  1.011743  0  0  0.123689  0  1.011043  0  0  0.110378  0.118574  0  1.012444  0
H  H23  1  0.24998491  0.27280646  0.01245510  1  0  0.110391  0  0.95165  0  0  0.120731  0  1.011734  0  0  0.123697  0  1.011035  0  0  0.110389  0.11858  0  1.012435  0
H  H24  1  0.74999837  0.28578477  0.11781697  1  0  0.112115  0  0.978353  0  0  0.120577  0  1.041463  0  0  0.123726  0  1.041265  0  0  0.105422  0.118278  0  1.04184  0
H  H25  1  0.24999086  0.78578118  0.38218283  1  0  0.11207  0  0.978357  0  0  0.120552  0  1.04145  0  0  0.123701  0  1.041254  0  0  0.105396  0.118238  0  1.041842  0
H  H26  1  0.74999803  0.21421368  0.61781359  1  0  0.112183  0  0.978214  0  0  0.120712  0  1.041253  0  0  0.123862  0  1.041053  0  0  0.105468  0.11839  0  1.041658  0
H  H27  1  0.24998496  0.71421823  0.88218311  1  0  0.11207  0  0.978316  0  0  0.120555  0  1.041419  0  0  0.123705  0  1.041222  0  0  0.105391  0.11824  0  1.041812  0
H  H28  1  0.75000288  0.51572809  0.20069725  1  0  0.077544  0  0.943354  0  0  0.085762  0  1.008208  0  0  0.0881  0  1.005996  0  0  0.1138  0.084022  0  1.009878  0
H  H29  1  0.24999069  0.01573046  0.29930417  1  0  0.077548  0  0.943385  0  0  0.085771  0  1.008236  0  0  0.088109  0  1.006022  0  0  0.113825  0.08403  0  1.009906  0
H  H30  1  0.74999542  0.98427390  0.70069408  1  0  0.077573  0  0.943318  0  0  0.085764  0  1.008208  0  0  0.088102  0  1.005995  0  0  0.113807  0.084024  0  1.009878  0
H  H31  1  0.24999017  0.48427220  0.79930329  1  0  0.07755  0  0.943363  0  0  0.085769  0  1.008214  0  0  0.088106  0  1.006002  0  0  0.113807  0.084029  0  1.009883  0
H  H32  1  0.74999866  0.20676872  0.01110263  1  0  0.083255  0  0.918124  0  0  0.09685  0  0.977768  0  0  0.100365  0  0.973755  0  0  0.117557  0.094276  0  0.980718  0
H  H33  1  0.24999755  0.70676130  0.48889646  1  0  0.083253  0  0.91805  0  0  0.096878  0  0.977677  0  0  0.100394  0  0.973661  0  0  0.117535  0.094302  0  0.980628  0
H  H34  1  0.74999965  0.29322272  0.51109995  1  0  0.083132  0  0.918054  0  0  0.096747  0  0.977738  0  0  0.100264  0  0.973727  0  0  0.117498  0.094172  0  0.98069  0
H  H35  1  0.24999715  0.79323563  0.98889791  1  0  0.083227  0  0.918097  0  0  0.096836  0  0.977743  0  0  0.100351  0  0.973732  0  0  0.117532  0.094261  0  0.980694  0
H  H36  1  0.25001886  0.35847694  0.13440690  1  0  0.151415  0  0.94986  0  0  0.150592  0  1.029839  0  0  0.155296  0  1.026579  0  0  0.111443  0.147272  0  1.032215  0
H  H37  1  0.74999668  0.85848564  0.36558675  1  0  0.151309  0  0.950033  0  0  0.15055  0  1.029956  0  0  0.15526  0  1.026698  0  0  0.111433  0.147232  0  1.032331  0
H  H38  1  0.25000746  0.14151465  0.63441333  1  0  0.151338  0  0.95001  0  0  0.150539  0  1.029949  0  0  0.155243  0  1.02669  0  0  0.111416  0.147222  0  1.032323  0
H  H39  1  0.74999222  0.64152335  0.86559318  1  0  0.151384  0  0.949881  0  0  0.150589  0  1.029865  0  0  0.155304  0  1.026602  0  0  0.111415  0.147269  0  1.032242  0
H  H40  1  0.25001822  0.12479403  0.11064385  1  0  0.149051  0  0.925682  0  0  0.157951  0  0.983723  0  0  0.163018  0  0.979311  0  0  0.107994  0.154358  0  0.986922  0
H  H41  1  0.74999192  0.62480625  0.38935500  1  0  0.149111  0  0.925673  0  0  0.15801  0  0.983722  0  0  0.163077  0  0.979313  0  0  0.108067  0.154416  0  0.986924  0
H  H42  1  0.25000945  0.37519404  0.61064692  1  0  0.149089  0  0.925797  0  0  0.157994  0  0.983793  0  0  0.163061  0  0.979383  0  0  0.108049  0.154402  0  0.986993  0
H  H43  1  0.74999424  0.87520490  0.88935806  1  0  0.149025  0  0.925662  0  0  0.157958  0  0.983706  0  0  0.163025  0  0.979298  0  0  0.107985  0.154363  0  0.986908  0
C  C44  1  0.75000752  0.79331520  0.08334556  1  0  0.151381  0  3.70087  0  0  0.11617  0  3.960628  0  0  0.125672  0  3.974591  0  0  0.050101  0.109853  0  3.951279  0
C  C45  1  0.25000529  0.29331619  0.41665284  1  0  0.151503  0  3.700792  0  0  0.116264  0  3.960571  0  0  0.125766  0  3.974535  0  0  0.050122  0.109945  0  3.951225  0
C  C46  1  0.74999053  0.70668139  0.58334724  1  0  0.151548  0  3.7007  0  0  0.116271  0  3.960544  0  0  0.125773  0  3.974507  0  0  0.050124  0.109954  0  3.951198  0
C  C47  1  0.24998414  0.20668644  0.91665361  1  0  0.151465  0  3.700873  0  0  0.116284  0  3.960601  0  0  0.125786  0  3.974567  0  0  0.050121  0.109966  0  3.951256  0
C  C48  1  0.75000479  0.67502446  0.03413058  1  0  -0.159861  0  3.699257  0  0  -0.181481  0  3.949787  0  0  -0.189407  0  3.970765  0  0  -0.081555  -0.176468  0  3.935917  0
C  C49  1  0.25000254  0.17502566  0.46586906  1  0  -0.159774  0  3.699315  0  0  -0.181377  0  3.949831  0  0  -0.189302  0  3.970809  0  0  -0.081472  -0.176359  0  3.935959  0
C  C50  1  0.74999050  0.82497192  0.53413148  1  0  -0.15984  0  3.699357  0  0  -0.181475  0  3.949876  0  0  -0.1894  0  3.970855  0  0  -0.081556  -0.176463  0  3.936008  0
C  C51  1  0.24998131  0.32497447  0.96586859  1  0  -0.159845  0  3.69933  0  0  -0.1815  0  3.949861  0  0  -0.18943  0  3.97084  0  0  -0.081615  -0.176482  0  3.935984  0
C  C52  1  0.75000177  0.48694160  0.04514723  1  0  0.116491  0  3.809156  0  0  0.131221  0  4.048824  0  0  0.135997  0  4.070643  0  0  0.012579  0.128073  0  4.033962  0
C  C53  1  0.24999704  0.98694039  0.45485204  1  0  0.116436  0  3.809264  0  0  0.131203  0  4.048867  0  0  0.135977  0  4.070692  0  0  0.012566  0.128054  0  4.034002  0
C  C54  1  0.74999184  0.01305447  0.54514530  1  0  0.116324  0  3.809531  0  0  0.131161  0  4.049097  0  0  0.135933  0  4.07093  0  0  0.012642  0.128016  0  4.034231  0
C  C55  1  0.24998434  0.51305869  0.95485239  1  0  0.116378  0  3.809371  0  0  0.131186  0  4.048948  0  0  0.135966  0  4.070778  0  0  0.012635  0.128038  0  4.034082  0
C  C56  1  0.75000281  0.42950127  0.10640253  1  0  -0.163388  0  3.680633  0  0  -0.182821  0  3.926656  0  0  -0.191784  0  3.947751  0  0  -0.087084  -0.17706  0  3.912755  0
C  C57  1  0.24999326  0.92949742  0.39359780  1  0  -0.163328  0  3.680548  0  0  -0.182783  0  3.926528  0  0  -0.191749  0  3.947625  0  0  -0.08706  -0.177006  0  3.912632  0
C  C58  1  0.74999146  0.07049745  0.60639999  1  0  -0.163608  0  3.680632  0  0  -0.183146  0  3.926592  0  0  -0.192103  0  3.94767  0  0  -0.08722  -0.177365  0  3.912701  0
C  C59  1  0.24998607  0.57050038  0.89359709  1  0  -0.163329  0  3.680672  0  0  -0.182813  0  3.926675  0  0  -0.191771  0  3.947751  0  0  -0.087087  -0.177035  0  3.912776  0
C  C60  1  0.75000561  0.55753731  0.15292189  1  0  0.153342  0  3.69058  0  0  0.12021  0  3.947667  0  0  0.129291  0  3.963523  0  0  0.046511  0.114196  0  3.937017  0
C  C61  1  0.24999764  0.05753585  0.34707805  1  0  0.153346  0  3.690514  0  0  0.120194  0  3.94761  0  0  0.129276  0  3.963465  0  0  0.046439  0.114179  0  3.936959  0
C  C62  1  0.74999679  0.94246308  0.65291974  1  0  0.153464  0  3.690382  0  0  0.120371  0  3.947445  0  0  0.129453  0  3.963301  0  0  0.046512  0.114361  0  3.936788  0
C  C63  1  0.24999437  0.44246569  0.84707820  1  0  0.153336  0  3.690719  0  0  0.120202  0  3.947805  0  0  0.129285  0  3.963666  0  0  0.046489  0.114189  0  3.93715  0
C  C64  1  0.75000382  0.35002199  0.99737477  1  0  0.01235  0  3.706311  0  0  -0.032828  0  3.98645  0  0  -0.028817  0  3.997594  0  0  0.037965  -0.035087  0  3.978601  0
C  C65  1  0.24999850  0.85001777  0.50262432  1  0  0.012287  0  3.706331  0  0  -0.03293  0  3.986462  0  0  -0.028923  0  3.997613  0  0  0.037951  -0.035186  0  3.97861  0
C  C66  1  0.75000009  0.14997438  0.49737301  1  0  0.012713  0  3.706131  0  0  -0.032513  0  3.986229  0  0  -0.028511  0  3.997383  0  0  0.038036  -0.034772  0  3.978379  0
C  C67  1  0.24999478  0.64998101  0.00262486  1  0  0.012385  0  3.706303  0  0  -0.032833  0  3.986443  0  0  -0.028831  0  3.997597  0  0  0.037941  -0.03509  0  3.978592  0
C  C68  1  0.42492115  0.18421675  0.18724030  1  0  0.749845  0  3.789496  0  0  0.698479  0  4.086457  0  0  0.733455  0  4.078082  0  0  0.225291  0.674597  0  4.091546  0
C  C69  1  0.57508479  0.68421594  0.31275793  1  0  0.749724  0  3.789585  0  0  0.698464  0  4.086377  0  0  0.733479  0  4.07799  0  0  0.22531  0.674584  0  4.091462  0
C  C70  1  0.07509106  0.31578716  0.68724324  1  0  0.749869  0  3.789451  0  0  0.698504  0  4.086347  0  0  0.733518  0  4.077955  0  0  0.225313  0.674614  0  4.091442  0
C  C71  1  0.92490434  0.81578479  0.81276007  1  0  0.74988  0  3.789449  0  0  0.698757  0  4.086057  0  0  0.733749  0  4.077675  0  0  0.225435  0.674874  0  4.091143  0
C  C72  1  0.57508577  0.81579032  0.81276115  1  0  0.749803  0  3.789657  0  0  0.698576  0  4.08645  0  0  0.733559  0  4.078078  0  0  0.22533  0.674695  0  4.091535  0
C  C73  1  0.42491657  0.31578706  0.68724398  1  0  0.749684  0  3.789806  0  0  0.698334  0  4.086676  0  0  0.73335  0  4.07829  0  0  0.225272  0.674444  0  4.09177  0
C  C74  1  0.92490892  0.68421313  0.31275776  1  0  0.749828  0  3.789503  0  0  0.6985  0  4.086392  0  0  0.733522  0  4.077997  0  0  0.225335  0.674619  0  4.091479  0
C  C75  1  0.07510257  0.18421957  0.18724047  1  0  0.749781  0  3.789518  0  0  0.698618  0  4.086157  0  0  0.733603  0  4.07778  0  0  0.22547  0.674734  0  4.091243  0
C  C76  1  0.25001846  0.21627656  0.15002821  1  0  -0.444515  0  3.639005  0  0  -0.477696  0  3.879206  0  0  -0.488969  0  3.878363  0  0  -0.170226  -0.469959  0  3.879863  0
C  C77  1  0.74999440  0.71628292  0.34996903  1  0  -0.444319  0  3.638971  0  0  -0.477686  0  3.879397  0  0  -0.488969  0  3.878536  0  0  -0.170309  -0.469953  0  3.880053  0
C  C78  1  0.25000974  0.28371737  0.65003243  1  0  -0.444415  0  3.639105  0  0  -0.47764  0  3.879354  0  0  -0.4889  0  3.87847  0  0  -0.170275  -0.469901  0  3.880015  0
C  C79  1  0.74999262  0.78372508  0.84997325  1  0  -0.444375  0  3.638826  0  0  -0.477839  0  3.879331  0  0  -0.489129  0  3.878479  0  0  -0.170219  -0.470101  0  3.879989  0
N  N80  1  0.75000863  0.73680521  0.14211263  1  0  -0.329476  0  3.263076  0  0  -0.256002  0  3.536999  0  0  -0.273564  0  3.549967  0  0  -0.327637  -0.244098  0  3.52803  0
N  N81  1  0.24999866  0.23680486  0.35788684  1  0  -0.329605  0  3.263131  0  0  -0.256121  0  3.537063  0  0  -0.273687  0  3.550039  0  0  -0.327638  -0.244216  0  3.528097  0
N  N82  1  0.74999577  0.76319408  0.64211325  1  0  -0.329626  0  3.26306  0  0  -0.256155  0  3.536998  0  0  -0.273722  0  3.549974  0  0  -0.327639  -0.24425  0  3.528029  0
N  N83  1  0.24998580  0.26319779  0.85788699  1  0  -0.329594  0  3.263234  0  0  -0.256118  0  3.537136  0  0  -0.273682  0  3.550104  0  0  -0.327651  -0.244213  0  3.528168  0
N  N84  1  0.74999989  0.39279284  0.94002511  1  0  -0.084112  0  2.980771  0  0  -0.057993  0  3.271756  0  0  -0.059214  0  3.284925  0  0  -0.209883  -0.057454  0  3.262523  0
N  N85  1  0.24999824  0.89278863  0.55997479  1  0  -0.083975  0  2.980778  0  0  -0.057875  0  3.271796  0  0  -0.059092  0  3.284955  0  0  -0.209827  -0.057336  0  3.262564  0
N  N86  1  0.74999896  0.10720894  0.44002301  1  0  -0.084203  0  2.980702  0  0  -0.058104  0  3.271781  0  0  -0.059312  0  3.284924  0  0  -0.209908  -0.057564  0  3.262551  0
N  N87  1  0.25000009  0.60720881  0.05997497  1  0  -0.084089  0  2.98069  0  0  -0.057976  0  3.271722  0  0  -0.059188  0  3.284873  0  0  -0.209873  -0.057437  0  3.262491  0
O  O88  1  0.74999960  0.24272607  0.90311349  1  0  -0.402367  0  2.069919  0  0  -0.35569  0  2.296221  0  0  -0.378318  0  2.293721  0  0  -0.26081  -0.339239  0  2.297277  0
O  O89  1  0.25000140  0.74272100  0.59688725  1  0  -0.402392  0  2.070073  0  0  -0.355681  0  2.296394  0  0  -0.378308  0  2.293889  0  0  -0.2608  -0.339243  0  2.297449  0
O  O90  1  0.74999719  0.25727386  0.40311100  1  0  -0.40237  0  2.069901  0  0  -0.355698  0  2.296254  0  0  -0.378323  0  2.293737  0  0  -0.26079  -0.33926  0  2.297308  0
O  O91  1  0.25000731  0.75727422  0.09688750  1  0  -0.402363  0  2.069827  0  0  -0.355706  0  2.296141  0  0  -0.378332  0  2.29363  0  0  -0.260773  -0.339267  0  2.297198  0
O  O92  1  0.75000469  0.14513674  0.28730723  1  0  -0.818596  0  1.923814  0  0  -0.750583  0  2.115601  0  0  -0.773153  0  2.081567  0  0  -0.561573  -0.734659  0  2.139071  0
O  O93  1  0.25000267  0.64513576  0.21269156  1  0  -0.81861  0  1.923651  0  0  -0.750579  0  2.115547  0  0  -0.773145  0  2.081479  0  0  -0.561521  -0.734651  0  2.139027  0
O  O94  1  0.75000009  0.35486589  0.78731035  1  0  -0.818668  0  1.923543  0  0  -0.750604  0  2.115437  0  0  -0.773171  0  2.081362  0  0  -0.561508  -0.734689  0  2.13896  0
O  O95  1  0.24999945  0.85486626  0.71269193  1  0  -0.818587  0  1.923617  0  0  -0.750523  0  2.115458  0  0  -0.773099  0  2.081421  0  0  -0.561514  -0.734612  0  2.138971  0
O  O96  1  0.53695251  0.06569101  0.16795693  1  0  -0.626928  0  2.036552  0  0  -0.566554  0  2.299424  0  0  -0.592941  0  2.286192  0  0  -0.309044  -0.548169  0  2.307951  0
O  O97  1  0.46306183  0.56568440  0.33203978  1  0  -0.626897  0  2.036633  0  0  -0.566561  0  2.299429  0  0  -0.592935  0  2.286164  0  0  -0.309014  -0.548175  0  2.307953  0
O  O98  1  0.96307016  0.43431576  0.66796127  1  0  -0.626842  0  2.03668  0  0  -0.5665  0  2.299537  0  0  -0.592871  0  2.286268  0  0  -0.308916  -0.548109  0  2.308062  0
O  O99  1  0.03693627  0.93431076  0.83204401  1  0  -0.626961  0  2.036482  0  0  -0.56665  0  2.299251  0  0  -0.593021  0  2.28598  0  0  -0.309019  -0.548263  0  2.307778  0
O  O100  1  0.46306273  0.93432284  0.83204315  1  0  -0.626877  0  2.036673  0  0  -0.566536  0  2.29949  0  0  -0.59291  0  2.286227  0  0  -0.309009  -0.548149  0  2.308011  0
O  O101  1  0.53693677  0.43431860  0.66796213  1  0  -0.626817  0  2.036799  0  0  -0.566482  0  2.299648  0  0  -0.592862  0  2.286392  0  0  -0.308954  -0.548091  0  2.308172  0
O  O102  1  0.03692982  0.56568182  0.33204019  1  0  -0.626853  0  2.036696  0  0  -0.566523  0  2.299551  0  0  -0.592901  0  2.286295  0  0  -0.308967  -0.548138  0  2.308076  0
O  O103  1  0.96307481  0.06569360  0.16795607  1  0  -0.626878  0  2.036386  0  0  -0.56664  0  2.299224  0  0  -0.59302  0  2.285979  0  0  -0.309077  -0.548254  0  2.30775  0
O  O104  1  0.45178126  0.27831518  0.23600978  1  0  -0.668029  0  2.099087  0  0  -0.591785  0  2.351462  0  0  -0.621727  0  2.33978  0  0  -0.311142  -0.570973  0  2.358923  0
O  O105  1  0.54822601  0.77832095  0.26398820  1  0  -0.668115  0  2.099146  0  0  -0.59173  0  2.351322  0  0  -0.621767  0  2.339697  0  0  -0.311159  -0.570916  0  2.358781  0
O  O106  1  0.04822818  0.22167675  0.73601221  1  0  -0.668172  0  2.098991  0  0  -0.591754  0  2.351228  0  0  -0.621823  0  2.339641  0  0  -0.311186  -0.570932  0  2.358692  0
O  O107  1  0.95176729  0.72168770  0.76399042  1  0  -0.668129  0  2.099217  0  0  -0.59183  0  2.351364  0  0  -0.621836  0  2.339742  0  0  -0.311226  -0.571013  0  2.358825  0
O  O108  1  0.54822705  0.72169325  0.76399122  1  0  -0.668127  0  2.09911  0  0  -0.591848  0  2.351399  0  0  -0.621802  0  2.339712  0  0  -0.311212  -0.571029  0  2.358862  0
O  O109  1  0.45177536  0.22168070  0.73601325  1  0  -0.668089  0  2.099128  0  0  -0.591683  0  2.351367  0  0  -0.621744  0  2.339761  0  0  -0.311164  -0.570861  0  2.358829  0
O  O110  1  0.95177597  0.77831947  0.26398833  1  0  -0.668172  0  2.099097  0  0  -0.591727  0  2.351267  0  0  -0.6218  0  2.339688  0  0  -0.311164  -0.570912  0  2.358727  0
O  O111  1  0.04823685  0.27831937  0.23600920  1  0  -0.668027  0  2.099244  0  0  -0.591713  0  2.351346  0  0  -0.621694  0  2.339716  0  0  -0.311198  -0.570903  0  2.358804  0
