# generated using pymatgen
data_CsH4C4BrN2O3
_symmetry_space_group_name_H-M   'P 1'
_cell_length_a   9.08657272
_cell_length_b   9.15245288
_cell_length_c   10.38404191
_cell_angle_alpha   90.00002810
_cell_angle_beta   91.04467615
_cell_angle_gamma   89.99997152
_symmetry_Int_Tables_number   1
_chemical_formula_structural   CsH4C4BrN2O3
_chemical_formula_sum   'Cs4 H16 C16 Br4 N8 O12'
_cell_volume   863.43937027
_cell_formula_units_Z   4
loop_
 _symmetry_equiv_pos_site_id
 _symmetry_equiv_pos_as_xyz
  1  'x, y, z'
loop_
 _atom_site_type_symbol
 _atom_site_label
 _atom_site_symmetry_multiplicity
 _atom_site_fract_x
 _atom_site_fract_y
 _atom_site_fract_z
 _atom_site_occupancy
 _atom_site_hle17_bader_spin_density
 _atom_site_hle17_ddec_charge
 _atom_site_hle17_ddec_spin_density
 _atom_site_hle17_ddec_sum_bond_order
 _atom_site_hle17_magmom
 _atom_site_hse06_10hf_bader_spin_density
 _atom_site_hse06_10hf_ddec_charge
 _atom_site_hse06_10hf_ddec_spin_density
 _atom_site_hse06_10hf_ddec_sum_bond_order
 _atom_site_hse06_10hf_magmom
 _atom_site_hse06_bader_spin_density
 _atom_site_hse06_ddec_charge
 _atom_site_hse06_ddec_spin_density
 _atom_site_hse06_ddec_sum_bond_order
 _atom_site_hse06_magmom
 _atom_site_pbe_bader_spin_density
 _atom_site_pbe_cm5_charge
 _atom_site_pbe_ddec_charge
 _atom_site_pbe_ddec_spin_density
 _atom_site_pbe_ddec_sum_bond_order
 _atom_site_pbe_magmom
Cs  Cs0  1  0.22594079  0.60555479  0.87057802  1  0  0.910729  0  0.577365  0  0  0.851456  0  0.824717  0  0  0.866995  0  0.799816  0  0  0.697362  0.840267  0  0.842124  0
Cs  Cs1  1  0.27405903  0.10555432  0.62942361  1  0  0.910736  0  0.577361  0  0  0.851477  0  0.824692  0  0  0.867001  0  0.79981  0  0  0.697369  0.840293  0  0.842102  0
Cs  Cs2  1  0.77405975  0.39444602  0.12942258  1  0  0.910731  0  0.577341  0  0  0.851458  0  0.824686  0  0  0.866996  0  0.799787  0  0  0.697354  0.840272  0  0.842094  0
Cs  Cs3  1  0.72594151  0.89444758  0.37057795  1  0  0.910735  0  0.57736  0  0  0.851456  0  0.824714  0  0  0.866992  0  0.799812  0  0  0.697367  0.840275  0  0.842124  0
H  H4  1  0.30050936  0.27630735  0.27210386  1  0  0.168406  0  0.923523  0  0  0.177676  0  0.984176  0  0  0.181948  0  0.981783  0  0  0.125406  0.17454  0  0.985976  0
H  H5  1  0.19949187  0.77630775  0.22789851  1  0  0.16838  0  0.923588  0  0  0.177634  0  0.984275  0  0  0.181918  0  0.981873  0  0  0.12539  0.174498  0  0.98608  0
H  H6  1  0.69949119  0.72369127  0.72789386  1  0  0.16841  0  0.923469  0  0  0.177651  0  0.984131  0  0  0.181931  0  0.981726  0  0  0.125402  0.174516  0  0.985926  0
H  H7  1  0.80050867  0.22369633  0.77210498  1  0  0.168379  0  0.923553  0  0  0.177656  0  0.984184  0  0  0.18194  0  0.981776  0  0  0.125396  0.174526  0  0.985974  0
H  H8  1  0.39740189  0.36908570  0.14956433  1  0  0.157366  0  0.933594  0  0  0.162447  0  1.000461  0  0  0.166917  0  0.997713  0  0  0.115076  0.159184  0  1.00254  0
H  H9  1  0.10259929  0.86908731  0.35043615  1  0  0.157337  0  0.933622  0  0  0.162438  0  1.000473  0  0  0.166907  0  0.997728  0  0  0.115077  0.159176  0  1.002546  0
H  H10  1  0.60259865  0.63091292  0.85043434  1  0  0.157358  0  0.933616  0  0  0.162433  0  1.000469  0  0  0.1669  0  0.997726  0  0  0.115078  0.159165  0  1.002544  0
H  H11  1  0.89740124  0.13091678  0.64956831  1  0  0.157385  0  0.933569  0  0  0.162468  0  1.000422  0  0  0.166932  0  0.997681  0  0  0.115095  0.159202  0  1.002505  0
H  H12  1  0.03450660  0.13276987  0.01185138  1  0  0.338365  0  0.899019  0  0  0.315061  0  0.966038  0  0  0.325469  0  0.956705  0  0  0.32088  0.307685  0  0.97279  0
H  H13  1  0.46549361  0.63276919  0.48814898  1  0  0.338377  0  0.899039  0  0  0.315077  0  0.96605  0  0  0.32549  0  0.956709  0  0  0.320888  0.307711  0  0.972795  0
H  H14  1  0.96549284  0.86722876  0.98814920  1  0  0.338375  0  0.899024  0  0  0.315071  0  0.966043  0  0  0.325485  0  0.9567  0  0  0.320879  0.307684  0  0.972805  0
H  H15  1  0.53450804  0.36723053  0.51184972  1  0  0.338325  0  0.899113  0  0  0.315046  0  0.9661  0  0  0.325461  0  0.956757  0  0  0.320873  0.307664  0  0.972851  0
H  H16  1  0.41140475  0.91232585  0.11592153  1  0  0.32009  0  0.913893  0  0  0.295181  0  0.988583  0  0  0.305446  0  0.980047  0  0  0.28352  0.28795  0  0.994573  0
H  H17  1  0.08859201  0.41232671  0.38408177  1  0  0.320122  0  0.913904  0  0  0.295185  0  0.988612  0  0  0.305451  0  0.980071  0  0  0.283503  0.287956  0  0.994603  0
H  H18  1  0.58859580  0.08767386  0.88407714  1  0  0.320097  0  0.913931  0  0  0.295193  0  0.988627  0  0  0.305461  0  0.980085  0  0  0.283519  0.287959  0  0.994626  0
H  H19  1  0.91140633  0.58767519  0.61591975  1  0  0.320096  0  0.913914  0  0  0.295164  0  0.988625  0  0  0.305431  0  0.980085  0  0  0.283494  0.287933  0  0.994613  0
C  C20  1  0.33299697  0.27054165  0.16998067  1  0  -0.441381  0  3.667095  0  0  -0.472116  0  3.892295  0  0  -0.483061  0  3.89463  0  0  -0.1539  -0.464473  0  3.890834  0
C  C21  1  0.16700316  0.77054212  0.33002071  1  0  -0.441237  0  3.66704  0  0  -0.472007  0  3.892329  0  0  -0.482964  0  3.894659  0  0  -0.153887  -0.464362  0  3.89086  0
C  C22  1  0.66700358  0.72945807  0.83001801  1  0  -0.441426  0  3.667061  0  0  -0.472052  0  3.892289  0  0  -0.482992  0  3.894616  0  0  -0.153917  -0.464407  0  3.890812  0
C  C23  1  0.83299627  0.22945978  0.66998180  1  0  -0.441352  0  3.666928  0  0  -0.472085  0  3.892245  0  0  -0.483039  0  3.894555  0  0  -0.153927  -0.464449  0  3.890774  0
C  C24  1  0.19192266  0.27284815  0.09260251  1  0  0.673582  0  3.763602  0  0  0.627093  0  4.055573  0  0  0.657577  0  4.052059  0  0  0.252514  0.606274  0  4.057837  0
C  C25  1  0.30807747  0.77284859  0.40740079  1  0  0.673486  0  3.763639  0  0  0.626953  0  4.0557  0  0  0.657446  0  4.052158  0  0  0.252526  0.606138  0  4.057976  0
C  C26  1  0.80807789  0.72714939  0.90739616  1  0  0.67376  0  3.763464  0  0  0.627083  0  4.055661  0  0  0.65755  0  4.052177  0  0  0.252544  0.60626  0  4.05791  0
C  C27  1  0.69192307  0.22715331  0.59260173  1  0  0.673641  0  3.763537  0  0  0.627002  0  4.055724  0  0  0.657514  0  4.052161  0  0  0.252514  0.606174  0  4.057993  0
C  C28  1  0.21442880  0.00884787  0.06238599  1  0  0.780276  0  3.807592  0  0  0.709371  0  4.110574  0  0  0.745403  0  4.105398  0  0  0.363631  0.685091  0  4.113288  0
C  C29  1  0.28556705  0.50884725  0.43761809  1  0  0.780459  0  3.807496  0  0  0.709423  0  4.110624  0  0  0.745483  0  4.105411  0  0  0.36367  0.685161  0  4.11333  0
C  C30  1  0.78556954  0.99114967  0.93761361  1  0  0.780382  0  3.807621  0  0  0.709532  0  4.110537  0  0  0.745548  0  4.105382  0  0  0.36374  0.685248  0  4.11324  0
C  C31  1  0.71443240  0.49115356  0.56238057  1  0  0.780327  0  3.807545  0  0  0.709388  0  4.110545  0  0  0.745424  0  4.105365  0  0  0.363636  0.685111  0  4.113242  0
C  C32  1  0.42615028  0.13555158  0.15926902  1  0  0.678018  0  3.736138  0  0  0.634676  0  4.021723  0  0  0.665015  0  4.0183  0  0  0.260407  0.613957  0  4.023904  0
C  C33  1  0.07384881  0.63555211  0.34073324  1  0  0.678031  0  3.736163  0  0  0.634679  0  4.021715  0  0  0.665014  0  4.018297  0  0  0.260427  0.613967  0  4.023892  0
C  C34  1  0.57384916  0.86444704  0.84072963  1  0  0.678003  0  3.736262  0  0  0.634686  0  4.0218  0  0  0.665025  0  4.018378  0  0  0.260425  0.613967  0  4.023977  0
C  C35  1  0.92615062  0.36445089  0.65926830  1  0  0.677987  0  3.736173  0  0  0.634642  0  4.021713  0  0  0.66498  0  4.018292  0  0  0.260387  0.613936  0  4.023874  0
Br  Br36  1  0.49270641  0.31391924  0.86548238  1  0  -0.759515  0  0.67899  0  0  -0.711726  0  0.912783  0  0  -0.727959  0  0.895479  0  0  -0.409756  -0.699486  0  0.92466  0
Br  Br37  1  0.00729662  0.81391969  0.63451555  1  0  -0.759504  0  0.678971  0  0  -0.711713  0  0.912768  0  0  -0.727945  0  0.895462  0  0  -0.409751  -0.699473  0  0.924647  0
Br  Br38  1  0.50728866  0.68607829  0.13450945  1  0  -0.759501  0  0.678956  0  0  -0.711709  0  0.91274  0  0  -0.727944  0  0.895437  0  0  -0.409746  -0.69947  0  0.924624  0
Br  Br39  1  0.99270832  0.18607675  0.36548610  1  0  -0.7595  0  0.678936  0  0  -0.711703  0  0.912736  0  0  -0.727937  0  0.895431  0  0  -0.409749  -0.69946  0  0.924624  0
N  N40  1  0.35554093  0.01251244  0.11231975  1  0  -0.531162  0  3.233555  0  0  -0.468575  0  3.468926  0  0  -0.495742  0  3.470741  0  0  -0.381965  -0.450066  0  3.467352  0
N  N41  1  0.14445933  0.51251514  0.38768345  1  0  -0.531349  0  3.233784  0  0  -0.468623  0  3.469094  0  0  -0.495796  0  3.470898  0  0  -0.381965  -0.450123  0  3.467524  0
N  N42  1  0.64446182  0.98748509  0.88767993  1  0  -0.531156  0  3.233659  0  0  -0.468641  0  3.469065  0  0  -0.495805  0  3.470889  0  0  -0.382  -0.450138  0  3.467498  0
N  N43  1  0.85554342  0.48748676  0.61231623  1  0  -0.531269  0  3.233773  0  0  -0.468601  0  3.469065  0  0  -0.495776  0  3.470891  0  0  -0.381944  -0.450103  0  3.467488  0
N  N44  1  0.14202976  0.13967183  0.04747460  1  0  -0.552543  0  3.255159  0  0  -0.492885  0  3.496676  0  0  -0.519573  0  3.496664  0  0  -0.389084  -0.474824  0  3.496569  0
N  N45  1  0.35796934  0.63967337  0.45252767  1  0  -0.552541  0  3.2551  0  0  -0.492835  0  3.496677  0  0  -0.519534  0  3.496636  0  0  -0.389089  -0.474812  0  3.496601  0
N  N46  1  0.85796968  0.86032571  0.95252598  1  0  -0.552689  0  3.255093  0  0  -0.492981  0  3.49665  0  0  -0.519665  0  3.496645  0  0  -0.38915  -0.474892  0  3.496521  0
N  N47  1  0.64203121  0.36032526  0.54747101  1  0  -0.552559  0  3.255235  0  0  -0.49287  0  3.496793  0  0  -0.519574  0  3.496762  0  0  -0.389088  -0.474783  0  3.496664  0
O  O48  1  0.11958363  0.38497657  0.07381125  1  0  -0.566622  0  1.920469  0  0  -0.531762  0  2.150829  0  0  -0.551286  0  2.143206  0  0  -0.386823  -0.518385  0  2.155887  0
O  O49  1  0.38041755  0.88497481  0.42619116  1  0  -0.566604  0  1.9205  0  0  -0.531726  0  2.150895  0  0  -0.551251  0  2.143256  0  0  -0.386843  -0.518342  0  2.155948  0
O  O50  1  0.88041802  0.61502205  0.92618745  1  0  -0.566651  0  1.920475  0  0  -0.531732  0  2.150948  0  0  -0.551256  0  2.143347  0  0  -0.386816  -0.518361  0  2.156004  0
O  O51  1  0.61958409  0.11502600  0.57381042  1  0  -0.566602  0  1.920429  0  0  -0.531688  0  2.150877  0  0  -0.551214  0  2.14322  0  0  -0.38679  -0.518314  0  2.15594  0
O  O52  1  0.15534969  0.89135009  0.03020420  1  0  -0.603016  0  1.938987  0  0  -0.556196  0  2.165628  0  0  -0.578197  0  2.155733  0  0  -0.327687  -0.541052  0  2.172153  0
O  O53  1  0.34464376  0.39135087  0.46980481  1  0  -0.603068  0  1.938965  0  0  -0.556236  0  2.165685  0  0  -0.578245  0  2.155776  0  0  -0.327696  -0.541092  0  2.172202  0
O  O54  1  0.84464975  0.10864744  0.96979734  1  0  -0.603074  0  1.938978  0  0  -0.556273  0  2.165608  0  0  -0.578266  0  2.155721  0  0  -0.327722  -0.541134  0  2.172131  0
O  O55  1  0.65535349  0.60864994  0.53019284  1  0  -0.602996  0  1.938975  0  0  -0.556168  0  2.165626  0  0  -0.578166  0  2.155728  0  0  -0.327655  -0.541035  0  2.172151  0
O  O56  1  0.55567972  0.13050701  0.19643474  1  0  -0.572606  0  1.907495  0  0  -0.539699  0  2.134988  0  0  -0.558951  0  2.127452  0  0  -0.369583  -0.52666  0  2.14017  0
O  O57  1  0.94431837  0.63050843  0.30356466  1  0  -0.572616  0  1.907419  0  0  -0.539724  0  2.134925  0  0  -0.558977  0  2.12739  0  0  -0.369604  -0.526683  0  2.140104  0
O  O58  1  0.44431972  0.86949161  0.80356392  1  0  -0.572605  0  1.907527  0  0  -0.539716  0  2.135023  0  0  -0.558968  0  2.127489  0  0  -0.369603  -0.52668  0  2.140205  0
O  O59  1  0.05567997  0.36949457  0.69643687  1  0  -0.572606  0  1.907503  0  0  -0.539715  0  2.135011  0  0  -0.558966  0  2.127474  0  0  -0.369607  -0.526681  0  2.140186  0
