# generated using pymatgen
data_ZnH8(C4N3)4
_symmetry_space_group_name_H-M   'P 1'
_cell_length_a   13.49107230
_cell_length_b   16.13826451
_cell_length_c   16.50748083
_cell_angle_alpha   110.05287775
_cell_angle_beta   100.50688255
_cell_angle_gamma   109.81333873
_symmetry_Int_Tables_number   1
_chemical_formula_structural   ZnH8(C4N3)4
_chemical_formula_sum   'Zn6 H48 C96 N72'
_cell_volume   2989.54084835
_cell_formula_units_Z   6
loop_
 _symmetry_equiv_pos_site_id
 _symmetry_equiv_pos_as_xyz
  1  'x, y, z'
loop_
 _atom_site_type_symbol
 _atom_site_label
 _atom_site_symmetry_multiplicity
 _atom_site_fract_x
 _atom_site_fract_y
 _atom_site_fract_z
 _atom_site_occupancy
 _atom_site_pbe_bader_charge
 _atom_site_pbe_bader_spin_density
 _atom_site_pbe_cm5_charge
 _atom_site_pbe_ddec_charge
 _atom_site_pbe_ddec_spin_density
 _atom_site_pbe_ddec_sum_bond_order
 _atom_site_pbe_magmom
Zn  Zn0  1  0.49745246  0.57265578  0.17372724  1  1.240026  0  0.741068  0.58986  0  2.518189  0
Zn  Zn1  1  0.50254723  0.42734379  0.82627305  1  1.240027  0  0.741064  0.58987  0  2.518145  0
Zn  Zn2  1  0.16870843  0.45831282  0.57414591  1  1.242054  0  0.739247  0.593853  0  2.497183  0
Zn  Zn3  1  0.83129272  0.54168967  0.42585497  1  1.242094  0  0.739279  0.593875  0  2.497126  0
Zn  Zn4  1  0.58636085  0.20230085  0.50789165  1  1.236684  0  0.736187  0.617058  0  2.496734  0
Zn  Zn5  1  0.41363883  0.79770017  0.49210731  1  1.236631  0  0.736198  0.617104  0  2.496757  0
H  H6  1  0.10953278  0.31106285  0.11856887  1  0.082943  0  0.110879  0.118004  0  1.009262  0
H  H7  1  0.89046732  0.68893451  0.88143015  1  0.083203  0  0.110881  0.118005  0  1.009221  0
H  H8  1  0.14866355  0.32253566  0.27547822  1  0.123836  0  0.10867  0.105588  0  1.020862  0
H  H9  1  0.85133541  0.67746244  0.72452087  1  0.123711  0  0.108674  0.105582  0  1.020906  0
H  H10  1  0.34762729  0.42337497  0.38695257  1  0.108851  0  0.107285  0.10934  0  1.035143  0
H  H11  1  0.65237203  0.57662386  0.61304742  1  0.108846  0  0.107281  0.109338  0  1.035122  0
H  H12  1  0.49379466  0.51361831  0.33600670  1  0.123468  0  0.113552  0.068153  0  1.061946  0
H  H13  1  0.50620354  0.48637980  0.66399348  1  0.123451  0  0.113519  0.068116  0  1.062005  0
H  H14  1  0.95515158  0.27051101  0.88172809  1  0.080647  0  0.106925  0.115711  0  1.009136  0
H  H15  1  0.04484927  0.72948636  0.11827286  1  0.080561  0  0.106904  0.115724  0  1.009096  0
H  H16  1  0.80892306  0.10524794  0.84362805  1  0.158299  0  0.106679  0.101915  0  1.048386  0
H  H17  1  0.19107700  0.89475090  0.15637388  1  0.158272  0  0.106662  0.101914  0  1.048325  0
H  H18  1  0.86914840  0.99240015  0.89282388  1  0.069913  0  0.109246  0.112876  0  0.99081  0
H  H19  1  0.13085131  0.00759795  0.10717714  1  0.069959  0  0.109248  0.11289  0  0.990802  0
H  H20  1  0.07273506  0.05161117  0.97631705  1  0.074739  0  0.107199  0.066826  0  1.016862  0
H  H21  1  0.92726467  0.94838547  0.02368228  1  0.074839  0  0.107205  0.066846  0  1.01691  0
H  H22  1  0.98509163  0.10205825  0.31701743  1  0.121064  0  0.109872  0.117898  0  1.033009  0
H  H23  1  0.01490542  0.89794060  0.68298525  1  0.121018  0  0.109897  0.117892  0  1.033029  0
H  H24  1  0.16315339  0.09126006  0.30614732  1  0.101534  0  0.110172  0.100907  0  1.01859  0
H  H25  1  0.83684627  0.90874098  0.69385527  1  0.101427  0  0.110136  0.100863  0  1.018612  0
H  H26  1  0.34632009  0.23522162  0.40952128  1  0.12666  0  0.111204  0.113866  0  1.025715  0
H  H27  1  0.65367879  0.76478088  0.59048107  1  0.126592  0  0.111185  0.113831  0  1.025713  0
H  H28  1  0.34314567  0.38650078  0.51874793  1  0.123118  0  0.11747  0.074068  0  1.048046  0
H  H29  1  0.65685283  0.61350391  0.48125084  1  0.123141  0  0.117457  0.074028  0  1.048147  0
H  H30  1  0.88521314  0.19278288  0.21432789  1  0.116642  0  0.103336  0.112629  0  1.038052  0
H  H31  1  0.11478950  0.80721961  0.78567564  1  0.116643  0  0.103332  0.112616  0  1.038082  0
H  H32  1  0.79514863  0.03728533  0.06685263  1  0.062986  0  0.105922  0.100698  0  0.986488  0
H  H33  1  0.20485664  0.96271935  0.93314960  1  0.062987  0  0.105967  0.100778  0  0.986471  0
H  H34  1  0.67676329  0.87947141  0.06947792  1  0.151802  0  0.10567  0.108165  0  1.058604  0
H  H35  1  0.32323977  0.12053034  0.93052119  1  0.152337  0  0.105683  0.108181  0  1.058655  0
H  H36  1  0.65006037  0.88516174  0.21644648  1  0.128873  0  0.105891  0.068711  0  1.044442  0
H  H37  1  0.34994121  0.11483855  0.78355131  1  0.128836  0  0.105936  0.068779  0  1.044264  0
H  H38  1  0.96607343  0.24200983  0.70834772  1  0.112385  0  0.10914  0.116814  0  1.05087  0
H  H39  1  0.03392814  0.75799045  0.29165068  1  0.112492  0  0.10911  0.116761  0  1.050964  0
H  H40  1  0.02756768  0.40813505  0.82629096  1  0.125617  0  0.107251  0.102709  0  1.014449  0
H  H41  1  0.97243352  0.59186451  0.17370956  1  0.125626  0  0.107256  0.102709  0  1.014517  0
H  H42  1  0.91125187  0.50022696  0.81167007  1  0.108373  0  0.109896  0.115739  0  0.986942  0
H  H43  1  0.08874820  0.49977187  0.18833186  1  0.108391  0  0.109913  0.115771  0  0.986861  0
H  H44  1  0.73605632  0.41559978  0.67581272  1  0.109449  0  0.112909  0.074599  0  1.041199  0
H  H45  1  0.26394635  0.58440270  0.32418778  1  0.10981  0  0.112914  0.074589  0  1.041225  0
H  H46  1  0.89120295  0.03509287  0.68161589  1  0.096821  0  0.103117  0.108654  0  1.040211  0
H  H47  1  0.10879756  0.96490376  0.31838114  1  0.096791  0  0.103099  0.108645  0  1.040213  0
H  H48  1  0.09594692  0.09288473  0.76938899  1  0.076813  0  0.105735  0.104374  0  0.994798  0
H  H49  1  0.90405430  0.90711482  0.23060729  1  0.07678  0  0.105733  0.104372  0  0.994762  0
H  H50  1  0.24082079  0.18485069  0.71733080  1  0.112426  0  0.102309  0.099909  0  1.076244  0
H  H51  1  0.75917932  0.81514813  0.28266507  1  0.112676  0  0.102291  0.099932  0  1.076258  0
H  H52  1  0.17870342  0.21575660  0.58334155  1  0.078341  0  0.103237  0.070714  0  1.004837  0
H  H53  1  0.82129479  0.78424295  0.41665488  1  0.078183  0  0.10326  0.070751  0  1.00488  0
C  C54  1  0.45057033  0.58680475  0.99900423  1  0.917723  0  0.189533  0.169836  0  4.124693  0
C  C55  1  0.54942897  0.41319554  0.00099625  1  0.917684  0  0.189544  0.169829  0  4.12458  0
C  C56  1  0.27126515  0.43823387  0.81164174  1  1.004892  0  0.23124  0.228922  0  4.026483  0
C  C57  1  0.72873455  0.56176569  0.18835734  1  1.00488  0  0.231202  0.228844  0  4.026505  0
C  C58  1  0.35299233  0.50023979  0.98145785  1  0.510272  0  0.141871  0.123569  0  3.980936  0
C  C59  1  0.64700622  0.49976050  0.01854190  1  0.510471  0  0.141885  0.123548  0  3.98087  0
C  C60  1  0.26558660  0.43314357  0.89788426  1  0.638676  0  0.143662  0.115208  0  3.973014  0
C  C61  1  0.73441272  0.56685526  0.10211573  1  0.638649  0  0.143703  0.115356  0  3.972966  0
C  C62  1  0.17974601  0.34169857  0.96852585  1  0.574181  0  0.141433  0.11735  0  3.928961  0
C  C63  1  0.82025371  0.65829953  0.03147336  1  0.574339  0  0.141465  0.117386  0  3.928829  0
C  C64  1  0.26769783  0.40769700  0.05332630  1  0.528836  0  0.14628  0.129011  0  3.911246  0
C  C65  1  0.73230261  0.59230256  0.94667411  1  0.528823  0  0.146271  0.129017  0  3.911174  0
C  C66  1  0.28131776  0.40539243  0.14370753  1  0.479614  0  0.124389  0.179007  0  3.960363  0
C  C67  1  0.71868308  0.59460639  0.85629209  1  0.47946  0  0.124417  0.179038  0  3.960342  0
C  C68  1  0.19427088  0.35388622  0.16743726  1  0.040177  0  -0.072962  -0.143104  0  3.925101  0
C  C69  1  0.80572772  0.64611114  0.83256153  1  0.039946  0  -0.07299  -0.143128  0  3.925086  0
C  C70  1  0.21675970  0.35989342  0.25565359  1  -0.062684  0  -0.060234  -0.009128  0  3.933191  0
C  C71  1  0.78324077  0.64010467  0.74434633  1  -0.062524  0  -0.060247  -0.009165  0  3.933158  0
C  C72  1  0.32569316  0.41619440  0.31741297  1  0.009814  0  -0.074256  -0.105272  0  3.920512  0
C  C73  1  0.67430580  0.58380370  0.68258612  1  0.009827  0  -0.074238  -0.105191  0  3.920294  0
C  C74  1  0.40774958  0.46742120  0.28980167  1  0.511063  0  0.057025  0.10897  0  3.939791  0
C  C75  1  0.59225050  0.53257763  0.71019844  1  0.511065  0  0.057075  0.108984  0  3.9398  0
C  C76  1  0.08863718  0.24709446  0.95075669  1  0.54932  0  0.116947  0.163499  0  4.036215  0
C  C77  1  0.91136181  0.75290217  0.04924252  1  0.548949  0  0.116979  0.163525  0  4.036154  0
C  C78  1  0.97729696  0.22031661  0.90287391  1  -0.009657  0  -0.079744  -0.154141  0  3.928577  0
C  C79  1  0.02270426  0.77968149  0.09712674  1  -0.009628  0  -0.079638  -0.154085  0  3.928449  0
C  C80  1  0.89590152  0.12809034  0.88222673  1  -0.08851  0  -0.068408  -0.019741  0  3.954392  0
C  C81  1  0.10409855  0.87190849  0.11777459  1  -0.088549  0  -0.068348  -0.019648  0  3.954457  0
C  C82  1  0.92963316  0.06571393  0.90864400  1  -0.046998  0  -0.089453  -0.145032  0  3.989251  0
C  C83  1  0.07036695  0.93428344  0.09135562  1  -0.046969  0  -0.089531  -0.145187  0  3.989405  0
C  C84  1  0.04300358  0.09889221  0.95565155  1  0.508196  0  0.03927  0.082213  0  4.023769  0
C  C85  1  0.95699576  0.90110515  0.04434796  1  0.508201  0  0.039217  0.082152  0  4.023959  0
C  C86  1  0.96656249  0.48568780  0.59137591  1  0.975587  0  0.192894  0.173358  0  4.118406  0
C  C87  1  0.03343867  0.51431323  0.40862630  1  0.975708  0  0.192865  0.173328  0  4.11844  0
C  C88  1  0.71787941  0.36097143  0.46072198  1  0.997326  0  0.236845  0.248832  0  4.002917  0
C  C89  1  0.28212287  0.63903179  0.53927871  1  0.997618  0  0.236916  0.24895  0  4.002955  0
C  C90  1  0.92011070  0.38940488  0.51485459  1  0.537314  0  0.138329  0.117805  0  3.984517  0
C  C91  1  0.07989011  0.61059541  0.48514672  1  0.537137  0  0.138313  0.117838  0  3.984404  0
C  C92  1  0.80768262  0.32907468  0.45821487  1  0.62509  0  0.137298  0.09758  0  4.007153  0
C  C93  1  0.19231778  0.67092782  0.54178589  1  0.625097  0  0.137312  0.09759  0  4.007228  0
C  C94  1  0.85689500  0.21040585  0.37510960  1  0.59031  0  0.149705  0.138677  0  3.905455  0
C  C95  1  0.14310355  0.78959445  0.62489076  1  0.590329  0  0.149679  0.13867  0  3.905517  0
C  C96  1  0.97137633  0.27115678  0.42929707  1  0.536481  0  0.145662  0.12112  0  3.90513  0
C  C97  1  0.02862145  0.72884353  0.57070560  1  0.536004  0  0.145598  0.120939  0  3.905005  0
C  C98  1  0.07045898  0.25279776  0.41928978  1  0.497546  0  0.128436  0.180612  0  3.953328  0
C  C99  1  0.92953883  0.74720108  0.58071119  1  0.497645  0  0.128506  0.18079  0  3.953179  0
C  C100  1  0.06534262  0.16462742  0.35904696  1  -0.036969  0  -0.068432  -0.13733  0  3.903031  0
C  C101  1  0.93465516  0.83537289  0.64095692  1  -0.037016  0  -0.068422  -0.137262  0  3.902967  0
C  C102  1  0.16473958  0.15810680  0.35414795  1  -0.014479  0  -0.057819  -0.01485  0  3.941575  0
C  C103  1  0.83525823  0.84189204  0.64585363  1  -0.014523  0  -0.057777  -0.014869  0  3.941765  0
C  C104  1  0.26704969  0.23755634  0.41131204  1  0.015905  0  -0.06977  -0.104118  0  3.931717  0
C  C105  1  0.73294880  0.76244690  0.58869110  1  0.015887  0  -0.069776  -0.104093  0  3.931613  0
C  C106  1  0.26585280  0.32196369  0.47176030  1  0.453441  0  0.053706  0.096026  0  3.945706  0
C  C107  1  0.73414425  0.67803661  0.52823922  1  0.453536  0  0.053772  0.096146  0  3.945681  0
C  C108  1  0.81274942  0.11737425  0.29001199  1  0.548238  0  0.113911  0.172202  0  4.03014  0
C  C109  1  0.18725063  0.88262604  0.70998921  1  0.548136  0  0.113916  0.172212  0  4.030187  0
C  C110  1  0.83324919  0.12246665  0.21126777  1  -0.072073  0  -0.089032  -0.173939  0  3.950213  0
C  C111  1  0.16675083  0.87753512  0.78873451  1  -0.072243  0  -0.089022  -0.173902  0  3.950387  0
C  C112  1  0.78313328  0.03613672  0.13014168  1  -0.04084  0  -0.073763  -0.030783  0  3.989423  0
C  C113  1  0.21686901  0.96386504  0.86985974  1  -0.040608  0  -0.073813  -0.030912  0  3.989529  0
C  C114  1  0.71662491  0.94898459  0.13096520  1  -0.102088  0  -0.0838  -0.125654  0  3.946965  0
C  C115  1  0.28337664  0.05101716  0.86903489  1  -0.10265  0  -0.08382  -0.125642  0  3.946955  0
C  C116  1  0.70138898  0.95211196  0.21335806  1  0.483812  0  0.04272  0.104048  0  3.954847  0
C  C117  1  0.29861296  0.04788906  0.78664185  1  0.483795  0  0.042672  0.104001  0  3.954697  0
C  C118  1  0.49205806  0.99547450  0.38089540  1  0.97287  0  0.195615  0.188203  0  4.096211  0
C  C119  1  0.50794125  0.00452579  0.61910326  1  0.972865  0  0.195561  0.188167  0  4.096297  0
C  C120  1  0.57550585  0.83773720  0.37970539  1  1.025539  0  0.236779  0.2391  0  4.006536  0
C  C121  1  0.42449383  0.16226382  0.62029235  1  1.025527  0  0.236615  0.23891  0  4.006744  0
C  C122  1  0.60055164  0.01293794  0.43628541  1  0.52807  0  0.144124  0.120548  0  3.975574  0
C  C123  1  0.39944693  0.98706235  0.56371252  1  0.528097  0  0.144163  0.120638  0  3.975557  0
C  C124  1  0.64337230  0.94424356  0.43451844  1  0.62207  0  0.147576  0.117824  0  3.965671  0
C  C125  1  0.35662774  0.05575820  0.56548021  1  0.622111  0  0.147641  0.117818  0  3.965554  0
C  C126  1  0.81321595  0.06873992  0.54057370  1  0.62964  0  0.146871  0.132142  0  3.92849  0
C  C127  1  0.18678300  0.93125964  0.45942405  1  0.629534  0  0.146801  0.132057  0  3.928438  0
C  C128  1  0.76643156  0.13680043  0.55418307  1  0.526242  0  0.142607  0.122746  0  3.900779  0
C  C129  1  0.23356663  0.86319914  0.44581638  1  0.526099  0  0.142538  0.122671  0  3.900834  0
C  C130  1  0.81640743  0.23843592  0.62807739  1  0.515483  0  0.119501  0.177853  0  3.952727  0
C  C131  1  0.18359263  0.76156437  0.37192260  1  0.515476  0  0.119526  0.177819  0  3.95301  0
C  C132  1  0.91549706  0.28074741  0.70191355  1  0.016751  0  -0.072889  -0.13892  0  3.901988  0
C  C133  1  0.08450412  0.71925361  0.29808564  1  0.016629  0  -0.072828  -0.138761  0  3.901976  0
C  C134  1  0.94983429  0.37509617  0.76953561  1  -0.072062  0  -0.063194  -0.016702  0  3.963297  0
C  C135  1  0.05016504  0.62490266  0.23046378  1  -0.072043  0  -0.063218  -0.016774  0  3.963432  0
C  C136  1  0.88593585  0.42550913  0.76183483  1  -0.080584  0  -0.077844  -0.106983  0  3.934458  0
C  C137  1  0.11406532  0.57449190  0.23816678  1  -0.080587  0  -0.077865  -0.107004  0  3.934485  0
C  C138  1  0.78860447  0.37910205  0.68584111  1  0.557328  0  0.051182  0.109506  0  3.960226  0
C  C139  1  0.21139634  0.62089824  0.31415899  1  0.556951  0  0.051183  0.109524  0  3.960233  0
C  C140  1  0.93236593  0.09691755  0.58916123  1  0.530908  0  0.113849  0.174479  0  4.032492  0
C  C141  1  0.06763228  0.90308055  0.41083714  1  0.531343  0  0.113867  0.174464  0  4.03258  0
C  C142  1  0.95862893  0.07362527  0.66191936  1  -0.035274  0  -0.087858  -0.172793  0  3.952774  0
C  C143  1  0.04137119  0.92637209  0.33807785  1  -0.035266  0  -0.087855  -0.172793  0  3.952691  0
C  C144  1  0.07101190  0.10637222  0.71022717  1  -0.092728  0  -0.069921  -0.019507  0  3.957576  0
C  C145  1  0.92898747  0.89362514  0.28976870  1  -0.092446  0  -0.06988  -0.019402  0  3.957334  0
C  C146  1  0.15199974  0.15844561  0.68225970  1  -0.014737  0  -0.084998  -0.121372  0  3.951396  0
C  C147  1  0.84799887  0.84155175  0.31773727  1  -0.015201  0  -0.085063  -0.121501  0  3.951415  0
C  C148  1  0.11706645  0.17625625  0.60751122  1  0.513249  0  0.039495  0.107686  0  3.969593  0
C  C149  1  0.88293067  0.82374111  0.39248370  1  0.513293  0  0.039547  0.10769  0  3.969546  0
N  N150  1  0.53256770  0.63344541  0.08154779  1  -0.750521  0  -0.240919  -0.254505  0  3.522937  0
N  N151  1  0.46743163  0.36655342  0.91845159  1  -0.7505  0  -0.240907  -0.254507  0  3.522926  0
N  N152  1  0.61132270  0.70913558  0.07931909  1  -0.119935  0  -0.092699  -0.064883  0  3.191218  0
N  N153  1  0.38867625  0.29086398  0.92067987  1  -0.119979  0  -0.092701  -0.064814  0  3.191187  0
N  N154  1  0.57691160  0.70810788  0.99769886  1  -0.106892  0  -0.095761  -0.074381  0  3.220301  0
N  N155  1  0.42308695  0.29189242  0.00230150  1  -0.106884  0  -0.095793  -0.074469  0  3.220282  0
N  N156  1  0.47639576  0.63189992  0.94572130  1  -0.626026  0  -0.227686  -0.266209  0  3.200272  0
N  N157  1  0.52360167  0.36809965  0.05427864  1  -0.626005  0  -0.227694  -0.26621  0  3.200216  0
N  N158  1  0.35700258  0.43547924  0.78056566  1  -0.710199  0  -0.220526  -0.211318  0  3.527249  0
N  N159  1  0.64299747  0.56452106  0.21943554  1  -0.710592  0  -0.220559  -0.211366  0  3.527175  0
N  N160  1  0.33309178  0.43903833  0.70033763  1  -0.07805  0  -0.078673  -0.057334  0  3.202902  0
N  N161  1  0.66691052  0.56096343  0.29966379  1  -0.077619  0  -0.078677  -0.057389  0  3.202859  0
N  N162  1  0.23682858  0.44473844  0.68517537  1  -0.253063  0  -0.11228  -0.021839  0  3.586288  0
N  N163  1  0.76317369  0.55526479  0.31482592  1  -0.253028  0  -0.112226  -0.021723  0  3.586184  0
N  N164  1  0.19476693  0.44373922  0.75258264  1  -0.622566  0  -0.199894  -0.231663  0  3.132807  0
N  N165  1  0.80523498  0.55626327  0.24741775  1  -0.622585  0  -0.199884  -0.231648  0  3.132815  0
N  N166  1  0.34980220  0.48490518  0.05604555  1  -1.251547  0  -0.307123  -0.243582  0  3.538394  0
N  N167  1  0.65019824  0.51509439  0.94395485  1  -1.251766  0  -0.307163  -0.243636  0  3.53839  0
N  N168  1  0.17937108  0.35794762  0.89391035  1  -1.143158  0  -0.273443  -0.254627  0  3.286516  0
N  N169  1  0.82062900  0.64205121  0.10608976  1  -1.143135  0  -0.273488  -0.254708  0  3.286338  0
N  N170  1  0.38599606  0.46334873  0.20570106  1  -1.241067  0  -0.313667  -0.250304  0  3.471847  0
N  N171  1  0.61400251  0.53665010  0.79429882  1  -1.240954  0  -0.313687  -0.250326  0  3.471815  0
N  N172  1  0.12160155  0.18795340  0.97757274  1  -1.219928  0  -0.314835  -0.292864  0  3.314489  0
N  N173  1  0.87839856  0.81204396  0.02242689  1  -1.219737  0  -0.314875  -0.292882  0  3.314623  0
N  N174  1  0.07893338  0.53523682  0.63224124  1  -0.778241  0  -0.233813  -0.243641  0  3.502671  0
N  N175  1  0.92106779  0.46476421  0.36775977  1  -0.778224  0  -0.233817  -0.24366  0  3.502687  0
N  N176  1  0.09803894  0.61974587  0.69991707  1  -0.090414  0  -0.10117  -0.069896  0  3.191724  0
N  N177  1  0.90196335  0.38025589  0.30008495  1  -0.090567  0  -0.10114  -0.069854  0  3.191873  0
N  N178  1  0.99962233  0.62078375  0.69956308  1  -0.158651  0  -0.10585  -0.108537  0  3.26807  0
N  N179  1  0.00038034  0.37921728  0.30043997  1  -0.158347  0  -0.105933  -0.108672  0  3.268431  0
N  N180  1  0.91539384  0.53761723  0.63167494  1  -0.658662  0  -0.223592  -0.274223  0  3.258859  0
N  N181  1  0.08460733  0.46238381  0.36832728  1  -0.658706  0  -0.223526  -0.274129  0  3.259008  0
N  N182  1  0.62108586  0.31304087  0.47000584  1  -0.769097  0  -0.228317  -0.218599  0  3.495403  0
N  N183  1  0.37891605  0.68696162  0.52999455  1  -0.769132  0  -0.228393  -0.218724  0  3.49543  0
N  N184  1  0.55857256  0.36215871  0.46271745  1  -0.076694  0  -0.077848  -0.054597  0  3.186101  0
N  N185  1  0.44142860  0.63784378  0.53728282  1  -0.07673  0  -0.077814  -0.054506  0  3.185921  0
N  N186  1  0.61479664  0.43633402  0.44855944  1  -0.09434  0  -0.07908  -0.060111  0  3.206743  0
N  N187  1  0.38520452  0.56366847  0.55144144  1  -0.094274  0  -0.079101  -0.060151  0  3.206658  0
N  N188  1  0.71570632  0.43775607  0.44709177  1  -0.761171  0  -0.225767  -0.220103  0  3.472025  0
N  N189  1  0.28429483  0.56224642  0.55290911  1  -0.76134  0  -0.22578  -0.220185  0  3.472175  0
N  N190  1  0.99738014  0.35746224  0.49812671  1  -1.234687  0  -0.304208  -0.238888  0  3.533021  0
N  N191  1  0.00261953  0.64253733  0.50187601  1  -1.234198  0  -0.30422  -0.238885  0  3.532813  0
N  N192  1  0.77820259  0.23986264  0.39265617  1  -1.133191  0  -0.276866  -0.249764  0  3.270614  0
N  N193  1  0.22179857  0.76013985  0.60734411  1  -1.133209  0  -0.276851  -0.249726  0  3.27069  0
N  N194  1  0.17063107  0.32977531  0.47466739  1  -1.228485  0  -0.315593  -0.254575  0  3.49478  0
N  N195  1  0.82936558  0.67022573  0.52533353  1  -1.228473  0  -0.315636  -0.254707  0  3.495094  0
N  N196  1  0.74747455  0.03470279  0.29212348  1  -1.181204  0  -0.32116  -0.29892  0  3.277031  0
N  N197  1  0.25252587  0.96529823  0.70787680  1  -1.181106  0  -0.321167  -0.298963  0  3.277059  0
N  N198  1  0.46474009  0.07157117  0.39671762  1  -0.744289  0  -0.241048  -0.247762  0  3.511789  0
N  N199  1  0.53525773  0.92842766  0.60328093  1  -0.744294  0  -0.241064  -0.247796  0  3.511798  0
N  N200  1  0.36069181  0.03443334  0.33877065  1  -0.137394  0  -0.108836  -0.09173  0  3.199582  0
N  N201  1  0.63930601  0.96556549  0.66122972  1  -0.13736  0  -0.108791  -0.091712  0  3.199586  0
N  N202  1  0.32690680  0.93882532  0.28977283  1  -0.1332  0  -0.101465  -0.088117  0  3.261289  0
N  N203  1  0.67309177  0.06117352  0.71022826  1  -0.133088  0  -0.10147  -0.088094  0  3.261309  0
N  N204  1  0.40765016  0.91217039  0.31483996  1  -0.644614  0  -0.229713  -0.263466  0  3.176663  0
N  N205  1  0.59234954  0.08782917  0.68515973  1  -0.644693  0  -0.229743  -0.26351  0  3.176733  0
N  N206  1  0.58708903  0.78405739  0.30332732  1  -0.647998  0  -0.187641  -0.214943  0  3.149308  0
N  N207  1  0.41291068  0.21594217  0.69667054  1  -0.647977  0  -0.187622  -0.214906  0  3.149395  0
N  N208  1  0.51265669  0.69229496  0.27933790  1  -0.221252  0  -0.111961  -0.028883  0  3.587586  0
N  N209  1  0.48734376  0.30770460  0.72066129  1  -0.221215  0  -0.111989  -0.029002  0  3.587718  0
N  N210  1  0.45821532  0.68835773  0.33721026  1  -0.081481  0  -0.080018  -0.056533  0  3.234618  0
N  N211  1  0.54178510  0.31164330  0.66278941  1  -0.08152  0  -0.079948  -0.056409  0  3.234508  0
N  N212  1  0.49621319  0.77982410  0.40140385  1  -0.733374  0  -0.228054  -0.223105  0  3.519308  0
N  N213  1  0.50378649  0.22017692  0.59859449  1  -0.733429  0  -0.227958  -0.22295  0  3.519177  0
N  N214  1  0.66282958  0.10643893  0.49880671  1  -1.254487  0  -0.303875  -0.243101  0  3.560075  0
N  N215  1  0.33717012  0.89356064  0.50119298  1  -1.254475  0  -0.303848  -0.243085  0  3.560081  0
N  N216  1  0.74923453  0.97367598  0.48458384  1  -1.169177  0  -0.269549  -0.244086  0  3.262574  0
N  N217  1  0.25076518  0.02632358  0.51541463  1  -1.16921  0  -0.26954  -0.243992  0  3.262515  0
N  N218  1  0.75449173  0.28824303  0.62147245  1  -1.250146  0  -0.317299  -0.279282  0  3.494019  0
N  N219  1  0.24550830  0.71175873  0.37852741  1  -1.250161  0  -0.31732  -0.279299  0  3.494166  0
N  N220  1  0.00932568  0.14812799  0.56185462  1  -1.191467  0  -0.32419  -0.311786  0  3.284353  0
N  N221  1  0.99067104  0.85187011  0.43814230  1  -1.191649  0  -0.324204  -0.311787  0  3.284374  0
