# generated using pymatgen
data_NaH2C3ClO3
_symmetry_space_group_name_H-M   'P 1'
_cell_length_a   3.61577734
_cell_length_b   8.86506885
_cell_length_c   14.62730908
_cell_angle_alpha   94.73082775
_cell_angle_beta   89.99874934
_cell_angle_gamma   89.99917667
_symmetry_Int_Tables_number   1
_chemical_formula_structural   NaH2C3ClO3
_chemical_formula_sum   'Na4 H8 C12 Cl4 O12'
_cell_volume   467.26809651
_cell_formula_units_Z   4
loop_
 _symmetry_equiv_pos_site_id
 _symmetry_equiv_pos_as_xyz
  1  'x, y, z'
loop_
 _atom_site_type_symbol
 _atom_site_label
 _atom_site_symmetry_multiplicity
 _atom_site_fract_x
 _atom_site_fract_y
 _atom_site_fract_z
 _atom_site_occupancy
 _atom_site_hle17_bader_spin_density
 _atom_site_hle17_ddec_charge
 _atom_site_hle17_ddec_spin_density
 _atom_site_hle17_ddec_sum_bond_order
 _atom_site_hle17_magmom
 _atom_site_hse06_10hf_bader_spin_density
 _atom_site_hse06_10hf_ddec_charge
 _atom_site_hse06_10hf_ddec_spin_density
 _atom_site_hse06_10hf_ddec_sum_bond_order
 _atom_site_hse06_10hf_magmom
 _atom_site_hse06_bader_spin_density
 _atom_site_hse06_ddec_charge
 _atom_site_hse06_ddec_spin_density
 _atom_site_hse06_ddec_sum_bond_order
 _atom_site_hse06_magmom
 _atom_site_pbe_bader_spin_density
 _atom_site_pbe_cm5_charge
 _atom_site_pbe_ddec_charge
 _atom_site_pbe_ddec_spin_density
 _atom_site_pbe_ddec_sum_bond_order
 _atom_site_pbe_magmom
Na  Na0  1  0.50317278  0.08095499  0.78549139  1  0  0.900843  0  0.37607  0  0  0.848869  0  0.538796  0  0  0.860725  0  0.515598  0  0  0.62388  0.840225  0  0.555339  0
Na  Na1  1  0.00317790  0.41904597  0.71450203  1  0  0.900868  0  0.376051  0  0  0.84889  0  0.538814  0  0  0.860747  0  0.515615  0  0  0.62389  0.840242  0  0.555358  0
Na  Na2  1  0.49685249  0.91904621  0.21450894  1  0  0.900858  0  0.376033  0  0  0.848889  0  0.538797  0  0  0.860745  0  0.515599  0  0  0.623853  0.840244  0  0.555342  0
Na  Na3  1  0.99683078  0.58095101  0.28548915  1  0  0.900866  0  0.376003  0  0  0.848866  0  0.5388  0  0  0.860721  0  0.5156  0  0  0.62385  0.840215  0  0.555347  0
H  H4  1  0.93536925  0.87646463  0.74434650  1  0  0.40836  0  0.903087  0  0  0.38086  0  0.962708  0  0  0.390694  0  0.948122  0  0  0.286987  0.373941  0  0.972974  0
H  H5  1  0.43535068  0.62354081  0.75566003  1  0  0.408567  0  0.902831  0  0  0.381039  0  0.9625  0  0  0.390876  0  0.947907  0  0  0.287086  0.374114  0  0.972779  0
H  H6  1  0.06465602  0.12354208  0.25565827  1  0  0.408563  0  0.902828  0  0  0.381028  0  0.962507  0  0  0.390864  0  0.947916  0  0  0.287095  0.374107  0  0.972779  0
H  H7  1  0.56465799  0.37645820  0.24433811  1  0  0.408425  0  0.903009  0  0  0.380923  0  0.962638  0  0  0.390759  0  0.948048  0  0  0.287066  0.373999  0  0.972915  0
H  H8  1  0.06518805  0.82091598  0.83909546  1  0  0.430739  0  0.868732  0  0  0.398878  0  0.93436  0  0  0.409663  0  0.918351  0  0  0.286255  0.391241  0  0.945694  0
H  H9  1  0.56519315  0.67909757  0.66091426  1  0  0.43087  0  0.868546  0  0  0.398974  0  0.934247  0  0  0.409766  0  0.918226  0  0  0.286225  0.391341  0  0.945573  0
H  H10  1  0.93483446  0.17908051  0.16091005  1  0  0.4307  0  0.868825  0  0  0.398859  0  0.934418  0  0  0.409643  0  0.918411  0  0  0.286237  0.391226  0  0.945748  0
H  H11  1  0.43483212  0.32090700  0.33908696  1  0  0.430825  0  0.868627  0  0  0.398937  0  0.934303  0  0  0.409728  0  0.918284  0  0  0.28624  0.391304  0  0.945631  0
C  C12  1  0.46888118  0.41220106  0.91117202  1  0  0.300309  0  3.865265  0  0  0.279319  0  4.140989  0  0  0.300367  0  4.147376  0  0  0.110013  0.26536  0  4.136131  0
C  C13  1  0.96886535  0.08779203  0.58882525  1  0  0.300127  0  3.864985  0  0  0.27933  0  4.14051  0  0  0.300375  0  4.1469  0  0  0.10995  0.265386  0  4.135628  0
C  C14  1  0.53109431  0.58778777  0.08882548  1  0  0.300419  0  3.864457  0  0  0.279523  0  4.140042  0  0  0.300591  0  4.146391  0  0  0.110054  0.265561  0  4.135181  0
C  C15  1  0.03113226  0.91219303  0.41118296  1  0  0.300428  0  3.864995  0  0  0.279454  0  4.140613  0  0  0.300455  0  4.147084  0  0  0.109982  0.265514  0  4.135736  0
C  C16  1  0.67299266  0.42415463  0.07304118  1  0  0.299508  0  3.820996  0  0  0.270829  0  4.099711  0  0  0.291547  0  4.10773  0  0  0.114466  0.256899  0  4.093861  0
C  C17  1  0.17299399  0.07582602  0.42694382  1  0  0.299752  0  3.820138  0  0  0.271071  0  4.09889  0  0  0.291816  0  4.106904  0  0  0.114578  0.25712  0  4.093061  0
C  C18  1  0.32696070  0.57583898  0.92694910  1  0  0.300001  0  3.820354  0  0  0.271274  0  4.099173  0  0  0.292002  0  4.107188  0  0  0.114745  0.257341  0  4.093316  0
C  C19  1  0.82699257  0.92416374  0.57305922  1  0  0.300007  0  3.820295  0  0  0.271185  0  4.099081  0  0  0.291922  0  4.107073  0  0  0.114608  0.257239  0  4.093243  0
C  C20  1  0.63156054  0.34644483  0.98581631  1  0  -0.167405  0  3.81003  0  0  -0.169289  0  4.103576  0  0  -0.188156  0  4.130769  0  0  -0.042785  -0.156903  0  4.085083  0
C  C21  1  0.13159246  0.15357192  0.51418698  1  0  -0.167278  0  3.80939  0  0  -0.169332  0  4.103064  0  0  -0.188206  0  4.130266  0  0  -0.042775  -0.156933  0  4.084549  0
C  C22  1  0.36840112  0.65356787  0.01417927  1  0  -0.167522  0  3.80968  0  0  -0.169532  0  4.103426  0  0  -0.188407  0  4.130619  0  0  -0.042888  -0.157126  0  4.084903  0
C  C23  1  0.86843834  0.84643919  0.48582217  1  0  -0.167451  0  3.809618  0  0  -0.169306  0  4.103145  0  0  -0.188159  0  4.130335  0  0  -0.04278  -0.156915  0  4.084639  0
Cl  Cl24  1  0.78072188  0.16105696  0.97029038  1  0  -0.07338  0  1.560443  0  0  -0.056208  0  1.831814  0  0  -0.056847  0  1.828213  0  0  0.025259  -0.055577  0  1.834484  0
Cl  Cl25  1  0.28069894  0.33894235  0.52969530  1  0  -0.073221  0  1.56095  0  0  -0.056027  0  1.832375  0  0  -0.056668  0  1.828784  0  0  0.025336  -0.055399  0  1.835028  0
Cl  Cl26  1  0.21925914  0.83893551  0.02969983  1  0  -0.073242  0  1.560926  0  0  -0.056035  0  1.832372  0  0  -0.056674  0  1.828778  0  0  0.025351  -0.055408  0  1.83503  0
Cl  Cl27  1  0.71930974  0.66105986  0.47030851  1  0  -0.073314  0  1.560627  0  0  -0.056148  0  1.831978  0  0  -0.056788  0  1.828372  0  0  0.025282  -0.055513  0  1.834641  0
O  O28  1  0.02379706  0.91279758  0.80618230  1  0  -0.937587  0  1.820641  0  0  -0.895346  0  2.004053  0  0  -0.911474  0  1.970256  0  0  -0.71368  -0.883914  0  2.027705  0
O  O29  1  0.52380527  0.58721283  0.69382812  1  0  -0.937923  0  1.820202  0  0  -0.895678  0  2.003679  0  0  -0.911809  0  1.96986  0  0  -0.713774  -0.884239  0  2.02733  0
O  O30  1  0.97622268  0.08722147  0.19382667  1  0  -0.937769  0  1.820547  0  0  -0.895512  0  2.003995  0  0  -0.91164  0  1.970192  0  0  -0.713736  -0.884087  0  2.027642  0
O  O31  1  0.47622277  0.41277604  0.30616801  1  0  -0.937773  0  1.820447  0  0  -0.895504  0  2.003889  0  0  -0.911628  0  1.970069  0  0  -0.713737  -0.884078  0  2.027537  0
O  O32  1  0.82511564  0.36859912  0.14077618  1  0  -0.53426  0  2.06385  0  0  -0.47204  0  2.279554  0  0  -0.493111  0  2.273377  0  0  -0.289651  -0.457569  0  2.283442  0
O  O33  1  0.32513200  0.13139622  0.35921302  1  0  -0.534647  0  2.064051  0  0  -0.47226  0  2.279631  0  0  -0.493328  0  2.273433  0  0  -0.289733  -0.4578  0  2.283554  0
O  O34  1  0.17485432  0.63140130  0.85921385  1  0  -0.534717  0  2.064001  0  0  -0.472345  0  2.279622  0  0  -0.493419  0  2.273435  0  0  -0.289831  -0.457905  0  2.283595  0
O  O35  1  0.67485455  0.86860703  0.64079359  1  0  -0.534625  0  2.063914  0  0  -0.472248  0  2.279543  0  0  -0.493317  0  2.273348  0  0  -0.289676  -0.457812  0  2.283522  0
O  O36  1  0.43291568  0.34614030  0.83139097  1  0  -0.627108  0  2.000425  0  0  -0.585902  0  2.244595  0  0  -0.603444  0  2.235681  0  0  -0.400778  -0.573711  0  2.250454  0
O  O37  1  0.93294865  0.15388006  0.66861161  1  0  -0.627237  0  2.000026  0  0  -0.586064  0  2.244091  0  0  -0.603615  0  2.235177  0  0  -0.400828  -0.573874  0  2.249941  0
O  O38  1  0.56701555  0.65387108  0.16860999  1  0  -0.627258  0  1.999937  0  0  -0.586083  0  2.244177  0  0  -0.603639  0  2.235252  0  0  -0.40084  -0.573898  0  2.250038  0
O  O39  1  0.06709874  0.84611652  0.33139116  1  0  -0.627318  0  1.999931  0  0  -0.586139  0  2.244162  0  0  -0.603678  0  2.235276  0  0  -0.400796  -0.573956  0  2.25002  0
