# generated using pymatgen
data_Zr3H11C24O16F3
_symmetry_space_group_name_H-M   'P 1'
_cell_length_a   14.78442198
_cell_length_b   14.78450778
_cell_length_c   20.95039051
_cell_angle_alpha   90.00297169
_cell_angle_beta   90.00234711
_cell_angle_gamma   90.04164045
_symmetry_Int_Tables_number   1
_chemical_formula_structural   Zr3H11C24O16F3
_chemical_formula_sum   'Zr12 H44 C96 O64 F12'
_cell_volume   4579.34355523
_cell_formula_units_Z   4
loop_
 _symmetry_equiv_pos_site_id
 _symmetry_equiv_pos_as_xyz
  1  'x, y, z'
loop_
 _atom_site_type_symbol
 _atom_site_label
 _atom_site_symmetry_multiplicity
 _atom_site_fract_x
 _atom_site_fract_y
 _atom_site_fract_z
 _atom_site_occupancy
 _atom_site_pbe_bader_charge
 _atom_site_pbe_bader_spin_density
 _atom_site_pbe_cm5_charge
 _atom_site_pbe_ddec_charge
 _atom_site_pbe_ddec_spin_density
 _atom_site_pbe_ddec_sum_bond_order
 _atom_site_pbe_magmom
Zr  Zr0  1  0.38063572  0.38039938  0.50159310  1  2.63759  0  1.626944  2.374602  0  2.752837  0
Zr  Zr1  1  0.61995690  0.61985032  0.49850459  1  2.640056  0  1.636168  2.380968  0  2.754224  0
Zr  Zr2  1  0.50170579  0.50144329  0.61952710  1  2.62327  0  1.624011  2.377328  0  2.738561  0
Zr  Zr3  1  0.49842335  0.49836051  0.38056629  1  2.622789  0  1.624148  2.37707  0  2.739951  0
Zr  Zr4  1  0.38096552  0.61985958  0.50009490  1  2.63748  0  1.632262  2.378454  0  2.754232  0
Zr  Zr5  1  0.62009532  0.38080220  0.49995269  1  2.638701  0  1.631955  2.378456  0  2.754347  0
Zr  Zr6  1  0.12011850  0.88087452  0.00001645  1  2.635674  0  1.627939  2.372629  0  2.760009  0
Zr  Zr7  1  0.87892611  0.11816456  0.99992274  1  2.638399  0  1.629871  2.375109  0  2.7524  0
Zr  Zr8  1  0.11834586  0.12028123  0.99995759  1  2.63669  0  1.625268  2.372183  0  2.751951  0
Zr  Zr9  1  0.88110000  0.87915437  0.00029520  1  2.638339  0  1.63299  2.37549  0  2.763634  0
Zr  Zr10  1  0.00003672  0.99987339  0.11935882  1  2.60712  0  1.62899  2.372432  0  2.761379  0
Zr  Zr11  1  0.99979887  0.99950303  0.88075479  1  2.611183  0  1.628758  2.372212  0  2.761647  0
H  H12  1  0.31264231  0.50079537  0.59474963  1  0.6073  0  0.330513  0.421296  0  0.859153  0
H  H13  1  0.49919080  0.68740960  0.40539126  1  0.608679  0  0.330977  0.422154  0  0.858182  0
H  H14  1  0.68950114  0.50085649  0.59301240  1  0.626251  0  0.33109  0.422534  0  0.857451  0
H  H15  1  0.49934950  0.31059295  0.40700676  1  0.628542  0  0.33059  0.421847  0  0.858925  0
H  H16  1  0.18821474  0.00105869  0.09398285  1  0.615656  0  0.331111  0.421743  0  0.858259  0
H  H17  1  0.81189350  0.99859557  0.09427650  1  0.611069  0  0.331755  0.422794  0  0.85733  0
H  H18  1  0.99877004  0.18769902  0.90579958  1  0.612804  0  0.331468  0.422459  0  0.856982  0
H  H19  1  0.00081085  0.81143500  0.90608773  1  0.619775  0  0.331515  0.422634  0  0.857683  0
H  H20  1  0.08250220  0.35451047  0.49597744  1  0.10369  0  0.111611  0.121547  0  0.990564  0
H  H21  1  0.08832363  0.64600764  0.49702342  1  0.123344  0  0.120883  0.151778  0  0.978986  0
H  H22  1  0.91246003  0.35939656  0.49520483  1  0.113667  0  0.11482  0.124115  0  0.985726  0
H  H23  1  0.35439256  0.08240298  0.50387935  1  0.101151  0  0.111435  0.121021  0  0.989943  0
H  H24  1  0.64589342  0.08828522  0.50370468  1  0.126817  0  0.121051  0.151595  0  0.978848  0
H  H25  1  0.35934835  0.91234248  0.50309750  1  0.115078  0  0.11472  0.124291  0  0.985714  0
H  H26  1  0.71431573  0.27623691  0.86379309  1  0.086016  0  0.111228  0.12073  0  0.990871  0
H  H27  1  0.86353368  0.12963371  0.72062578  1  0.120619  0  0.118659  0.147284  0  0.980625  0
H  H28  1  0.63186674  0.35938948  0.77670626  1  0.124618  0  0.113592  0.121636  0  0.987247  0
H  H29  1  0.27835997  0.71525074  0.13618977  1  0.08432  0  0.109907  0.118725  0  0.992456  0
H  H30  1  0.12987639  0.86320426  0.27903063  1  0.126742  0  0.119041  0.147397  0  0.980144  0
H  H31  1  0.36010613  0.63190515  0.22345272  1  0.117549  0  0.113549  0.121128  0  0.987177  0
H  H32  1  0.28510759  0.72225140  0.86388336  1  0.082512  0  0.110053  0.119009  0  0.99257  0
H  H33  1  0.13675227  0.86998817  0.72089565  1  0.126534  0  0.119023  0.147361  0  0.979575  0
H  H34  1  0.36825262  0.64007817  0.77670234  1  0.119  0  0.113771  0.121307  0  0.98724  0
H  H35  1  0.72530619  0.28732379  0.13614687  1  0.091495  0  0.111434  0.121226  0  0.990879  0
H  H36  1  0.86884735  0.13498856  0.27923275  1  0.113819  0  0.118502  0.146495  0  0.980901  0
H  H37  1  0.64249614  0.36998413  0.22327492  1  0.126827  0  0.113826  0.122413  0  0.986907  0
H  H38  1  0.86739554  0.85810862  0.28136575  1  0.099261  0  0.111996  0.120944  0  0.988771  0
H  H39  1  0.72335623  0.71780196  0.13236483  1  0.145711  0  0.118628  0.14837  0  0.981383  0
H  H40  1  0.77909483  0.77063529  0.36318187  1  0.11372  0  0.118228  0.128615  0  0.980404  0
H  H41  1  0.14088618  0.13256021  0.71912710  1  0.107427  0  0.111786  0.120883  0  0.988921  0
H  H42  1  0.28276759  0.27606400  0.86751327  1  0.13948  0  0.117155  0.146821  0  0.981596  0
H  H43  1  0.22854978  0.22020103  0.63701838  1  0.109013  0  0.115094  0.122761  0  0.983947  0
H  H44  1  0.71362061  0.72354816  0.86375116  1  0.088366  0  0.111058  0.121315  0  0.991325  0
H  H45  1  0.86450668  0.86953836  0.72098780  1  0.112606  0  0.118634  0.146897  0  0.980194  0
H  H46  1  0.63091127  0.64120982  0.77638063  1  0.116425  0  0.112636  0.11996  0  0.988006  0
H  H47  1  0.27684716  0.28596365  0.13671410  1  0.088686  0  0.10956  0.117867  0  0.993145  0
H  H48  1  0.12958425  0.13559854  0.27896193  1  0.111467  0  0.119156  0.147828  0  0.979951  0
H  H49  1  0.35925211  0.36821531  0.22427220  1  0.115878  0  0.113171  0.120873  0  0.987972  0
H  H50  1  0.41825160  0.14534252  0.99570949  1  0.102502  0  0.110991  0.119391  0  0.99067  0
H  H51  1  0.41100195  0.85411229  0.99644932  1  0.112722  0  0.119041  0.147379  0  0.981854  0
H  H52  1  0.58829332  0.13943523  0.99591470  1  0.110342  0  0.114057  0.121239  0  0.986968  0
H  H53  1  0.14558069  0.58156788  0.00411245  1  0.103964  0  0.11111  0.119683  0  0.990821  0
H  H54  1  0.85436077  0.58776880  0.00347653  1  0.123155  0  0.120106  0.149013  0  0.978828  0
H  H55  1  0.14010235  0.41143509  0.00395603  1  0.114486  0  0.112674  0.119552  0  0.988521  0
C  C56  1  0.19670261  0.49896200  0.49790677  1  1.536483  0  0.237979  0.637311  0  4.09672  0
C  C57  1  0.50241900  0.80388692  0.50200310  1  1.554217  0  0.236516  0.654493  0  4.105712  0
C  C58  1  0.80392812  0.50244949  0.49543452  1  1.547004  0  0.236476  0.655354  0  4.106024  0
C  C59  1  0.49896662  0.19659868  0.50446634  1  1.53893  0  0.237315  0.637771  0  4.096109  0
C  C60  1  0.35397481  0.34660722  0.65408854  1  1.555216  0  0.236327  0.654878  0  4.106138  0
C  C61  1  0.34287780  0.34988059  0.34991464  1  1.553223  0  0.236649  0.65537  0  4.104906  0
C  C62  1  0.65242647  0.64578094  0.34559240  1  1.577354  0  0.237208  0.656029  0  4.102369  0
C  C63  1  0.64953020  0.65687160  0.65057446  1  1.560965  0  0.236964  0.656157  0  4.102072  0
C  C64  1  0.35189612  0.65729443  0.65098113  1  1.564311  0  0.236349  0.655423  0  4.10391  0
C  C65  1  0.65049556  0.34457139  0.65089954  1  1.565339  0  0.236224  0.655158  0  4.104541  0
C  C66  1  0.65567525  0.34979605  0.34903946  1  1.558102  0  0.236183  0.655299  0  4.104699  0
C  C67  1  0.34251674  0.64812576  0.34917118  1  1.560337  0  0.236019  0.655507  0  4.104384  0
C  C68  1  0.14950363  0.84500792  0.15141960  1  1.558055  0  0.23779  0.639834  0  4.092874  0
C  C69  1  0.85100839  0.15472915  0.15153739  1  1.557906  0  0.238081  0.639105  0  4.093623  0
C  C70  1  0.84382441  0.14733422  0.84830554  1  1.555854  0  0.238334  0.639795  0  4.092411  0
C  C71  1  0.15576242  0.85126664  0.84854953  1  1.556489  0  0.238227  0.64052  0  4.094092  0
C  C72  1  0.30339068  0.00153139  0.99640876  1  1.538947  0  0.23857  0.639967  0  4.094871  0
C  C73  1  0.00161927  0.69585822  0.00358645  1  1.56581  0  0.238924  0.640272  0  4.096097  0
C  C74  1  0.69605358  0.99616651  0.99673862  1  1.574102  0  0.237149  0.656936  0  4.101948  0
C  C75  1  0.99683716  0.30318409  0.00334975  1  1.534513  0  0.237188  0.657078  0  4.100892  0
C  C76  1  0.14816628  0.15592054  0.15147044  1  1.561186  0  0.238555  0.640712  0  4.09266  0
C  C77  1  0.15471496  0.14843252  0.84823831  1  1.562022  0  0.237996  0.639957  0  4.092578  0
C  C78  1  0.84518852  0.85044442  0.84861152  1  1.556655  0  0.2383  0.639903  0  4.093366  0
C  C79  1  0.85249263  0.84407838  0.15215575  1  1.554282  0  0.237738  0.63905  0  4.095301  0
C  C80  1  0.90495460  0.50393704  0.49536632  1  -0.020493  0  -0.020634  -0.152813  0  3.945363  0
C  C81  1  0.09557004  0.49973348  0.49658744  1  -0.031726  0  -0.008929  -0.003235  0  3.974655  0
C  C82  1  0.95657519  0.58403627  0.49582628  1  0.441851  0  0.111527  0.287094  0  4.031284  0
C  C83  1  0.04623797  0.41860021  0.49601007  1  -0.061258  0  -0.086394  -0.11375  0  3.97986  0
C  C84  1  0.05043309  0.58280676  0.49648282  1  0.04651  0  -0.089718  -0.224505  0  3.960823  0
C  C85  1  0.95236373  0.42139217  0.49546382  1  0.087631  0  -0.075713  -0.066337  0  3.974484  0
C  C86  1  0.50386939  0.90490743  0.50298586  1  -0.01944  0  -0.020412  -0.15067  0  3.941323  0
C  C87  1  0.49964143  0.09548902  0.50435137  1  -0.026031  0  -0.00933  -0.004293  0  3.975435  0
C  C88  1  0.58396771  0.95651553  0.50298939  1  0.436159  0  0.111861  0.287444  0  4.028765  0
C  C89  1  0.41850973  0.04615791  0.50396266  1  -0.060293  0  -0.086367  -0.113641  0  3.980047  0
C  C90  1  0.58271045  0.05036448  0.50376846  1  0.041025  0  -0.089562  -0.223673  0  3.959042  0
C  C91  1  0.42131592  0.95228586  0.50339220  1  0.085659  0  -0.076132  -0.067856  0  3.973885  0
C  C92  1  0.70074638  0.29206013  0.70059861  1  -0.028727  0  -0.018263  -0.147467  0  3.935515  0
C  C93  1  0.79347736  0.19754909  0.79761503  1  0.019272  0  -0.010361  -0.004842  0  3.975183  0
C  C94  1  0.76673083  0.22654605  0.68619864  1  0.453567  0  0.112724  0.289007  0  4.027785  0
C  C95  1  0.72823411  0.26260220  0.81367083  1  0.028748  0  -0.086121  -0.113984  0  3.978644  0
C  C96  1  0.81273659  0.17969112  0.73352596  1  -0.001884  0  -0.090626  -0.224661  0  3.96539  0
C  C97  1  0.68289901  0.30864840  0.76554828  1  -0.032787  0  -0.075108  -0.065194  0  3.972821  0
C  C98  1  0.29119478  0.69946175  0.29940333  1  -0.026399  0  -0.017925  -0.146313  0  3.931756  0
C  C99  1  0.19885879  0.79392625  0.20216879  1  0.025141  0  -0.009946  -0.00449  0  3.976298  0
C  C100  1  0.22583555  0.76563755  0.31365536  1  0.429556  0  0.112462  0.288096  0  4.028749  0
C  C101  1  0.26399443  0.72870198  0.18627384  1  -0.038629  0  -0.087526  -0.115618  0  3.98456  0
C  C102  1  0.18000089  0.81242964  0.26622398  1  0.023656  0  -0.089783  -0.223056  0  3.964548  0
C  C103  1  0.30898794  0.68260561  0.23449089  1  0.02864  0  -0.075383  -0.065356  0  3.974309  0
C  C104  1  0.30053038  0.70866855  0.70068876  1  -0.028722  0  -0.017835  -0.146534  0  3.933142  0
C  C105  1  0.20636100  0.80145939  0.79779659  1  0.020181  0  -0.009693  -0.003953  0  3.976265  0
C  C106  1  0.23430760  0.77394542  0.68634798  1  0.432329  0  0.112828  0.288538  0  4.027989  0
C  C107  1  0.27155510  0.73635197  0.81378364  1  -0.067387  0  -0.08735  -0.115771  0  3.985275  0
C  C108  1  0.18762926  0.81998382  0.73373533  1  0.024283  0  -0.090215  -0.223279  0  3.963161  0
C  C109  1  0.31749375  0.69110397  0.76560919  1  0.057061  0  -0.075822  -0.065564  0  3.975227  0
C  C110  1  0.70827176  0.29959184  0.29935718  1  -0.019809  0  -0.018448  -0.147844  0  3.93582  0
C  C111  1  0.80191670  0.20611158  0.20228035  1  0.018179  0  -0.00969  -0.004144  0  3.975823  0
C  C112  1  0.77309527  0.23292246  0.31370412  1  0.448437  0  0.11223  0.288047  0  4.028958  0
C  C113  1  0.73806637  0.27252355  0.18626375  1  -0.035291  0  -0.085837  -0.113714  0  3.9795  0
C  C114  1  0.81947179  0.18645107  0.26635971  1  0.010673  0  -0.090787  -0.223817  0  3.965018  0
C  C115  1  0.69235309  0.31810374  0.23441816  1  0.027559  0  -0.075515  -0.066025  0  3.973758  0
C  C116  1  0.70287580  0.69530395  0.29450095  1  -0.013224  0  -0.01814  -0.147914  0  3.937082  0
C  C117  1  0.80136762  0.79288373  0.20195744  1  -0.038291  0  -0.010233  -0.006199  0  3.978616  0
C  C118  1  0.68850056  0.68200267  0.22878717  1  0.447414  0  0.110355  0.286852  0  4.030717  0
C  C119  1  0.81706593  0.80822815  0.26708896  1  -0.006148  0  -0.08427  -0.109903  0  3.975113  0
C  C120  1  0.73650621  0.72955535  0.18282491  1  0.000975  0  -0.091832  -0.227334  0  3.968664  0
C  C121  1  0.76823476  0.75984725  0.31230848  1  0.012111  0  -0.071977  -0.062312  0  3.959671  0
C  C122  1  0.30467161  0.29613296  0.70531650  1  -0.009143  0  -0.017938  -0.146289  0  3.934233  0
C  C123  1  0.20658230  0.19867509  0.79826621  1  -0.046559  0  -0.009223  -0.003089  0  3.973349  0
C  C124  1  0.31841683  0.31045264  0.77098161  1  0.457847  0  0.111015  0.28742  0  4.028607  0
C  C125  1  0.19109479  0.18268209  0.73317335  1  -0.01524  0  -0.085021  -0.112605  0  3.97704  0
C  C126  1  0.27059046  0.26300419  0.81709374  1  0.012253  0  -0.092298  -0.228269  0  3.969279  0
C  C127  1  0.23962295  0.23110008  0.68784834  1  0.024765  0  -0.073671  -0.062268  0  3.966572  0
C  C128  1  0.70013414  0.70871837  0.70043345  1  -0.023775  0  -0.018608  -0.148858  0  3.934096  0
C  C129  1  0.79398225  0.80146459  0.79775021  1  0.021949  0  -0.010587  -0.006  0  3.980274  0
C  C130  1  0.76664834  0.77387304  0.68617048  1  0.455294  0  0.114087  0.289794  0  4.029209  0
C  C131  1  0.72796957  0.73703457  0.81365613  1  -0.084107  0  -0.087106  -0.116005  0  3.98352  0
C  C132  1  0.81320460  0.81984454  0.73373101  1  0.008408  0  -0.090137  -0.222227  0  3.962435  0
C  C133  1  0.68226172  0.69173771  0.76535578  1  0.07896  0  -0.076702  -0.066467  0  3.977629  0
C  C134  1  0.29116229  0.29917380  0.29999933  1  0.04031  0  -0.017867  -0.145282  0  3.93149  0
C  C135  1  0.19793570  0.20623639  0.20241433  1  0.017074  0  -0.009591  -0.003756  0  3.975373  0
C  C136  1  0.22586310  0.23277434  0.31397877  1  0.447742  0  0.112675  0.28822  0  4.027187  0
C  C137  1  0.26293692  0.27175840  0.18675900  1  0.028705  0  -0.086774  -0.114309  0  3.985671  0
C  C138  1  0.17956383  0.18669472  0.26639437  1  -0.002123  0  -0.090113  -0.223049  0  3.962934  0
C  C139  1  0.30840872  0.31709983  0.23512284  1  -0.086058  0  -0.076349  -0.067665  0  3.976814  0
C  C140  1  0.59503871  0.99501578  0.99609085  1  0.014772  0  -0.018718  -0.148593  0  3.9393  0
C  C141  1  0.40448243  0.00027756  0.99581260  1  -0.022391  0  -0.007833  -0.001454  0  3.970588  0
C  C142  1  0.54305843  0.91526816  0.99625618  1  0.445621  0  0.111861  0.287642  0  4.0288  0
C  C143  1  0.45418773  0.08109439  0.99571026  1  -0.059329  0  -0.085601  -0.112428  0  3.981448  0
C  C144  1  0.44927318  0.91704205  0.99613743  1  0.044664  0  -0.089773  -0.223079  0  3.963409  0
C  C145  1  0.54800487  0.07773710  0.99587194  1  0.045898  0  -0.07499  -0.064456  0  3.974591  0
C  C146  1  0.99566045  0.40420498  0.00394632  1  -0.005026  0  -0.019341  -0.15017  0  3.941951  0
C  C147  1  0.00053550  0.59476621  0.00406715  1  0.013752  0  -0.007739  -0.000413  0  3.968911  0
C  C148  1  0.91580394  0.45591998  0.00378621  1  0.419824  0  0.112553  0.289243  0  4.026271  0
C  C149  1  0.08144395  0.54534114  0.00411515  1  -0.04699  0  -0.085377  -0.112913  0  3.981759  0
C  C150  1  0.91736937  0.54972957  0.00381516  1  0.009471  0  -0.088929  -0.222175  0  3.958457  0
C  C151  1  0.07831199  0.45151002  0.00404513  1  0.065106  0  -0.076362  -0.065962  0  3.977657  0
O  O152  1  0.23564675  0.42186509  0.49968249  1  -1.167451  0  -0.353757  -0.614674  0  2.278445  0
O  O153  1  0.57823590  0.76284845  0.50040395  1  -1.159138  0  -0.357867  -0.615194  0  2.321094  0
O  O154  1  0.76278395  0.57826864  0.49506157  1  -1.156567  0  -0.358364  -0.616365  0  2.318832  0
O  O155  1  0.42183744  0.23562843  0.50460006  1  -1.170624  0  -0.354583  -0.616434  0  2.277557  0
O  O156  1  0.41201051  0.40560419  0.67122714  1  -1.167467  0  -0.356068  -0.617099  0  2.311698  0
O  O157  1  0.40161104  0.40674584  0.32981714  1  -1.171694  0  -0.355364  -0.621094  0  2.272204  0
O  O158  1  0.59329873  0.58770548  0.32841085  1  -1.157302  0  -0.359179  -0.621297  0  2.31161  0
O  O159  1  0.59271915  0.59785412  0.67062231  1  -1.169686  0  -0.35843  -0.625215  0  2.269137  0
O  O160  1  0.33376793  0.67407760  0.59270971  1  -1.15572  0  -0.355952  -0.615464  0  2.317574  0
O  O161  1  0.66839236  0.32757891  0.59261465  1  -1.159008  0  -0.355954  -0.615302  0  2.318717  0
O  O162  1  0.67310450  0.33236058  0.40734714  1  -1.157456  0  -0.356562  -0.6163  0  2.316814  0
O  O163  1  0.32637788  0.66697758  0.40740839  1  -1.154083  0  -0.355395  -0.615146  0  2.31802  0
O  O164  1  0.59413059  0.40375347  0.67068798  1  -1.176701  0  -0.350219  -0.615395  0  2.262975  0
O  O165  1  0.59598549  0.40562263  0.32927388  1  -1.178981  0  -0.349557  -0.615221  0  2.262338  0
O  O166  1  0.39986281  0.58985242  0.32942764  1  -1.177001  0  -0.350251  -0.61641  0  2.2629  0
O  O167  1  0.40955257  0.59935881  0.67075381  1  -1.178585  0  -0.349977  -0.616137  0  2.263051  0
O  O168  1  0.33298118  0.32725493  0.59654337  1  -1.158107  0  -0.350206  -0.61493  0  2.272539  0
O  O169  1  0.66697192  0.67375225  0.59235511  1  -1.153959  0  -0.347942  -0.604412  0  2.310304  0
O  O170  1  0.67180403  0.66651719  0.40308316  1  -1.167835  0  -0.347035  -0.607186  0  2.271882  0
O  O171  1  0.32592083  0.33239746  0.40818315  1  -1.145782  0  -0.351475  -0.61162  0  2.312277  0
O  O172  1  0.57561912  0.23631196  0.50351401  1  -1.178292  0  -0.350266  -0.6084  0  2.283972  0
O  O173  1  0.23650409  0.57560398  0.49810588  1  -1.179178  0  -0.351304  -0.6091  0  2.28464  0
O  O174  1  0.42487483  0.76559233  0.50196500  1  -1.174827  0  -0.350286  -0.61363  0  2.266168  0
O  O175  1  0.76573548  0.42490180  0.49674851  1  -1.169586  0  -0.349904  -0.612976  0  2.267073  0
O  O176  1  0.49927718  0.36450168  0.43333280  1  -1.262017  0  -0.693522  -1.069505  0  2.363083  0
O  O177  1  0.63554084  0.50075678  0.56673907  1  -1.257511  0  -0.693874  -1.070002  0  2.364321  0
O  O178  1  0.49923968  0.63368746  0.43190291  1  -1.241305  0  -0.694473  -1.069895  0  2.368118  0
O  O179  1  0.36629658  0.50055010  0.56816808  1  -1.240438  0  -0.693888  -1.068617  0  2.364828  0
O  O180  1  0.50078900  0.59934759  0.54911730  1  -1.186726  0  -0.791603  -1.150391  0  2.129271  0
O  O181  1  0.40042932  0.49926969  0.45108386  1  -1.185644  0  -0.790703  -1.149301  0  2.125904  0
O  O182  1  0.59826057  0.49943623  0.44985047  1  -1.196234  0  -0.791437  -1.150726  0  2.130334  0
O  O183  1  0.50070901  0.40148777  0.55011986  1  -1.197791  0  -0.790516  -1.149969  0  2.126288  0
O  O184  1  0.16946782  0.82710376  0.09343066  1  -1.174547  0  -0.354182  -0.61809  0  2.277883  0
O  O185  1  0.83040611  0.17187736  0.09359672  1  -1.174547  0  -0.351432  -0.612409  0  2.278508  0
O  O186  1  0.82479188  0.16599357  0.90630548  1  -1.167515  0  -0.352082  -0.61439  0  2.276509  0
O  O187  1  0.17431241  0.83191064  0.90652784  1  -1.174453  0  -0.353966  -0.617887  0  2.278151  0
O  O188  1  0.26443101  0.07850732  0.99721961  1  -1.170797  0  -0.350104  -0.613204  0  2.272978  0
O  O189  1  0.92479046  0.73528256  0.00301248  1  -1.180796  0  -0.354743  -0.615437  0  2.290115  0
O  O190  1  0.73718902  0.92045965  0.99738508  1  -1.170732  0  -0.355669  -0.615679  0  2.315551  0
O  O191  1  0.07461748  0.26527785  0.00250518  1  -1.17026  0  -0.3551  -0.620513  0  2.270606  0
O  O192  1  0.09083699  0.09668975  0.16986293  1  -1.172272  0  -0.354785  -0.616445  0  2.285593  0
O  O193  1  0.09617718  0.09088141  0.82929452  1  -1.179855  0  -0.351025  -0.613993  0  2.275681  0
O  O194  1  0.90399455  0.90835004  0.83022857  1  -1.183359  0  -0.357233  -0.618848  0  2.285484  0
O  O195  1  0.90958487  0.90319682  0.17108810  1  -1.177352  0  -0.353187  -0.616956  0  2.274811  0
O  O196  1  0.17208934  0.16800740  0.90642161  1  -1.181247  0  -0.356389  -0.619742  0  2.285697  0
O  O197  1  0.82763190  0.83012634  0.90653296  1  -1.172834  0  -0.351471  -0.612742  0  2.276968  0
O  O198  1  0.83422312  0.82561718  0.09396005  1  -1.170663  0  -0.354599  -0.614538  0  2.286253  0
O  O199  1  0.16726522  0.17484110  0.09350364  1  -1.175306  0  -0.353421  -0.618207  0  2.273954  0
O  O200  1  0.26382062  0.92465976  0.99701268  1  -1.178893  0  -0.356367  -0.616877  0  2.292845  0
O  O201  1  0.92117158  0.26193031  0.00285674  1  -1.168368  0  -0.35528  -0.614464  0  2.318549  0
O  O202  1  0.73402907  0.07390270  0.99742250  1  -1.182538  0  -0.353524  -0.618873  0  2.272056  0
O  O203  1  0.07859557  0.73498927  0.00294009  1  -1.171729  0  -0.351195  -0.614884  0  2.275459  0
O  O204  1  0.09684712  0.90883593  0.83013910  1  -1.171025  0  -0.354488  -0.616944  0  2.283885  0
O  O205  1  0.09182763  0.90378365  0.16985911  1  -1.180225  0  -0.354037  -0.615858  0  2.283522  0
O  O206  1  0.90908939  0.09629447  0.17001223  1  -1.177174  0  -0.355775  -0.617789  0  2.282342  0
O  O207  1  0.90317169  0.09020339  0.82982360  1  -1.183463  0  -0.355046  -0.617369  0  2.281956  0
O  O208  1  0.00082559  0.86475803  0.93300849  1  -1.251395  0  -0.694899  -1.070298  0  2.365991  0
O  O209  1  0.99896718  0.13429147  0.93263724  1  -1.244693  0  -0.69407  -1.067949  0  2.361738  0
O  O210  1  0.86528955  0.99883043  0.06743195  1  -1.243484  0  -0.694783  -1.06926  0  2.364902  0
O  O211  1  0.13481241  0.00085297  0.06713866  1  -1.248538  0  -0.69422  -1.068459  0  2.363771  0
O  O212  1  0.99917219  0.09886124  0.04930366  1  -1.19251  0  -0.790832  -1.147728  0  2.127554  0
O  O213  1  0.00080690  0.90057122  0.04965998  1  -1.192324  0  -0.792304  -1.149771  0  2.129811  0
O  O214  1  0.90079374  0.99883518  0.95068140  1  -1.190425  0  -0.792108  -1.14911  0  2.130179  0
O  O215  1  0.09918276  0.00039764  0.95054936  1  -1.191765  0  -0.79105  -1.147535  0  2.12479  0
F  F216  1  0.91661440  0.66646617  0.49591074  1  -0.621782  0  -0.094798  -0.131309  0  1.351874  0
F  F217  1  0.66637033  0.91658807  0.50197603  1  -0.61898  0  -0.094517  -0.130968  0  1.35362  0
F  F218  1  0.78897624  0.20640445  0.62507658  1  -0.624293  0  -0.096028  -0.133457  0  1.348727  0
F  F219  1  0.20461669  0.78709103  0.37471255  1  -0.622671  0  -0.095467  -0.132669  0  1.350204  0
F  F220  1  0.21265753  0.79484842  0.62526947  1  -0.622251  0  -0.09576  -0.133151  0  1.349332  0
F  F221  1  0.79300642  0.21035019  0.37480691  1  -0.624035  0  -0.096202  -0.133593  0  1.348423  0
F  F222  1  0.62625512  0.62177637  0.20720180  1  -0.628495  0  -0.101514  -0.140554  0  1.344597  0
F  F223  1  0.37927215  0.37215768  0.79243190  1  -0.631884  0  -0.101242  -0.140801  0  1.343939  0
F  F224  1  0.78874685  0.79431509  0.62524868  1  -0.617094  0  -0.090212  -0.126234  0  1.360499  0
F  F225  1  0.20532497  0.21034565  0.37501129  1  -0.623423  0  -0.096888  -0.135031  0  1.347638  0
F  F226  1  0.58255307  0.83248775  0.99679365  1  -0.624959  0  -0.098809  -0.137251  0  1.34545  0
F  F227  1  0.83313558  0.41614156  0.00328501  1  -0.627783  0  -0.098513  -0.137606  0  1.345817  0
