# generated using pymatgen
data_LiH4C6NO2
_symmetry_space_group_name_H-M   'P 1'
_cell_length_a   10.74280698
_cell_length_b   10.39082303
_cell_length_c   14.84131567
_cell_angle_alpha   90.00015527
_cell_angle_beta   89.99835226
_cell_angle_gamma   108.83781561
_symmetry_Int_Tables_number   1
_chemical_formula_structural   LiH4C6NO2
_chemical_formula_sum   'Li8 H32 C48 N8 O16'
_cell_volume   1567.94757593
_cell_formula_units_Z   8
loop_
 _symmetry_equiv_pos_site_id
 _symmetry_equiv_pos_as_xyz
  1  'x, y, z'
loop_
 _atom_site_type_symbol
 _atom_site_label
 _atom_site_symmetry_multiplicity
 _atom_site_fract_x
 _atom_site_fract_y
 _atom_site_fract_z
 _atom_site_occupancy
 _atom_site_pbe_bader_charge
 _atom_site_pbe_bader_spin_density
 _atom_site_pbe_cm5_charge
 _atom_site_pbe_ddec_charge
 _atom_site_pbe_ddec_spin_density
 _atom_site_pbe_ddec_sum_bond_order
 _atom_site_pbe_magmom
Li  Li0  1  0.53127149  0.25583663  0.51743187  1  0.859413  0  0.531899  0.775324  0  0.582211  0
Li  Li1  1  0.46872399  0.74416417  0.01743684  1  0.859435  0  0.531932  0.77536  0  0.582144  0
Li  Li2  1  0.72108337  0.24683661  0.64136496  1  0.859419  0  0.529023  0.776314  0  0.579467  0
Li  Li3  1  0.27890898  0.75315705  0.14136318  1  0.859362  0  0.529051  0.776269  0  0.579525  0
Li  Li4  1  0.02906358  0.26038253  0.51217216  1  0.859709  0  0.522846  0.776022  0  0.577277  0
Li  Li5  1  0.97094490  0.73963094  0.01216447  1  0.859746  0  0.522842  0.776012  0  0.577269  0
Li  Li6  1  0.21615884  0.23620648  0.63919259  1  0.859258  0  0.528085  0.775174  0  0.582324  0
Li  Li7  1  0.78383560  0.76378429  0.13919699  1  0.859192  0  0.528088  0.775198  0  0.582313  0
H  H8  1  0.31290472  0.92909898  0.97091813  1  0.088302  0  0.133921  0.0863  0  0.984453  0
H  H9  1  0.68709991  0.07090869  0.47090926  1  0.088658  0  0.133891  0.086271  0  0.984457  0
H  H10  1  0.92999968  0.57974983  0.18768694  1  0.092251  0  0.13414  0.086316  0  0.987217  0
H  H11  1  0.06999970  0.42026586  0.68767854  1  0.092046  0  0.134147  0.086387  0  0.986962  0
H  H12  1  0.95732077  0.43909917  0.31911087  1  0.126425  0  0.108954  0.110042  0  1.033443  0
H  H13  1  0.04269297  0.56091312  0.81911473  1  0.126514  0  0.108977  0.110072  0  1.03343  0
H  H14  1  0.81901041  0.08834250  0.84391053  1  0.06446  0  0.110165  0.110929  0  1.027498  0
H  H15  1  0.18098847  0.91165990  0.34391579  1  0.064422  0  0.110134  0.110891  0  1.027611  0
H  H16  1  0.85346013  0.94861402  0.97361838  1  0.079441  0  0.133684  0.088496  0  0.982848  0
H  H17  1  0.14654885  0.05140989  0.47361486  1  0.079421  0  0.133753  0.088579  0  0.982897  0
H  H18  1  0.08143658  0.93897616  0.68778733  1  0.086412  0  0.119564  0.125959  0  0.996025  0
H  H19  1  0.91855022  0.06099382  0.18779713  1  0.08598  0  0.119581  0.125943  0  0.996046  0
H  H20  1  0.39170200  0.53679961  0.17583314  1  0.085499  0  0.133807  0.088923  0  0.979278  0
H  H21  1  0.60829616  0.46319304  0.67584104  1  0.08566  0  0.133734  0.08883  0  0.979395  0
H  H22  1  0.09511277  0.79505992  0.82070789  1  0.044937  0  0.116605  0.075497  0  1.010004  0
H  H23  1  0.90487880  0.20493631  0.32070610  1  0.044996  0  0.116612  0.075458  0  1.010066  0
H  H24  1  0.15111209  0.69312452  0.32742817  1  0.062752  0  0.115122  0.071466  0  1.020351  0
H  H25  1  0.84889014  0.30687414  0.82742735  1  0.062696  0  0.115101  0.071394  0  1.020397  0
H  H26  1  0.16534830  0.55146016  0.46164646  1  0.111662  0  0.11986  0.126201  0  0.996814  0
H  H27  1  0.83465050  0.44854532  0.96164888  1  0.111689  0  0.119837  0.12617  0  0.996837  0
H  H28  1  0.42694356  0.39890768  0.30689381  1  0.085135  0  0.11145  0.114485  0  1.013282  0
H  H29  1  0.57305482  0.60109098  0.80690471  1  0.085138  0  0.111469  0.114442  0  1.0133  0
H  H30  1  0.28581155  0.06707892  0.83767142  1  0.119763  0  0.110147  0.112182  0  1.023942  0
H  H31  1  0.71419698  0.93293399  0.33765938  1  0.119787  0  0.110147  0.112172  0  1.023901  0
H  H32  1  0.63047207  0.67685111  0.31662148  1  0.087289  0  0.116041  0.074954  0  1.008236  0
H  H33  1  0.36953574  0.32316294  0.81659041  1  0.088161  0  0.116006  0.074924  0  1.00834  0
H  H34  1  0.61988022  0.83859764  0.84793783  1  0.056229  0  0.114583  0.070776  0  1.023831  0
H  H35  1  0.38010997  0.16138728  0.34795987  1  0.055625  0  0.114592  0.070852  0  1.023817  0
H  H36  1  0.63838115  0.53120469  0.44970382  1  0.119538  0  0.117398  0.123916  0  1.016774  0
H  H37  1  0.36164463  0.46880911  0.94967787  1  0.121203  0  0.117367  0.123729  0  1.016759  0
H  H38  1  0.61244616  0.98143271  0.71304703  1  0.136784  0  0.117153  0.12407  0  1.02354  0
H  H39  1  0.38753633  0.01854892  0.21306530  1  0.136597  0  0.117075  0.123965  0  1.023662  0
C  C40  1  0.37686023  0.94206886  0.91203454  1  0.507371  0  0.056205  0.098239  0  3.985099  0
C  C41  1  0.62313909  0.05792801  0.41203240  1  0.50735  0  0.056247  0.098352  0  3.985225  0
C  C42  1  0.86777871  0.56767458  0.24743836  1  0.47655  0  0.053809  0.094355  0  3.986567  0
C  C43  1  0.13222656  0.43233388  0.74742731  1  0.476685  0  0.053758  0.094241  0  3.986665  0
C  C44  1  0.88237607  0.48877162  0.31987309  1  -0.082952  0  -0.079359  -0.152775  0  3.966377  0
C  C45  1  0.11763147  0.51122834  0.81987124  1  -0.083357  0  -0.079389  -0.152726  0  3.966379  0
C  C46  1  0.94728114  0.02418584  0.75532869  1  0.002194  0  0.009506  0.010524  0  3.924539  0
C  C47  1  0.05272189  0.97580540  0.25532937  1  0.002742  0  0.009495  0.010388  0  3.924399  0
C  C48  1  0.92969707  0.10947668  0.67660615  1  1.620967  0  0.234738  0.632514  0  4.21394  0
C  C49  1  0.07030826  0.89050825  0.17661507  1  1.620671  0  0.234721  0.632606  0  4.213721  0
C  C50  1  0.29927008  0.46536001  0.39471223  1  -0.045487  0  0.009689  0.011693  0  3.92896  0
C  C51  1  0.70071998  0.53463457  0.89472234  1  -0.045281  0  0.009659  0.011786  0  3.929166  0
C  C52  1  0.88316135  0.02645732  0.83708762  1  0.009903  0  -0.078813  -0.152726  0  3.965085  0
C  C53  1  0.11683819  0.97354315  0.33709233  1  0.009962  0  -0.078751  -0.152615  0  3.965044  0
C  C54  1  0.90111811  0.94779915  0.90866946  1  0.451362  0  0.054972  0.094979  0  3.987415  0
C  C55  1  0.09889137  0.05221726  0.40866964  1  0.451842  0  0.054875  0.094848  0  3.987564  0
C  C56  1  0.02663248  0.94110126  0.74917667  1  -0.019588  0  -0.069555  -0.141202  0  3.935825  0
C  C57  1  0.97335876  0.05888349  0.24918464  1  -0.018857  0  -0.069521  -0.141136  0  3.935572  0
C  C58  1  0.31699632  0.38244812  0.47449735  1  1.633798  0  0.234496  0.633375  0  4.214786  0
C  C59  1  0.68298490  0.61754947  0.97450797  1  1.633988  0  0.234557  0.63332  0  4.215344  0
C  C60  1  0.34465951  0.53869150  0.24087909  1  0.477808  0  0.055666  0.096477  0  3.987173  0
C  C61  1  0.65533969  0.46130069  0.74088531  1  0.477028  0  0.05581  0.096587  0  3.987411  0
C  C62  1  0.81818629  0.39262521  0.47565705  1  1.6204  0  0.23366  0.632832  0  4.208351  0
C  C63  1  0.18181989  0.60736845  0.97565467  1  1.620855  0  0.233528  0.632683  0  4.208667  0
C  C64  1  0.03572013  0.86264941  0.82356951  1  0.511206  0  0.051724  0.097819  0  3.994838  0
C  C65  1  0.96427583  0.13735302  0.32356904  1  0.510975  0  0.051755  0.09797  0  3.994567  0
C  C66  1  0.21045632  0.62546063  0.32532794  1  0.4972  0  0.050904  0.097815  0  4.000733  0
C  C67  1  0.78954844  0.37454017  0.82533051  1  0.497492  0  0.050908  0.097962  0  4.000645  0
C  C68  1  0.21982904  0.54835826  0.40026184  1  -0.051829  0  -0.071233  -0.144878  0  3.939807  0
C  C69  1  0.78016924  0.45164668  0.90026473  1  -0.051923  0  -0.071307  -0.145083  0  3.93988  0
C  C70  1  0.36314555  0.46133136  0.31308806  1  0.031718  0  -0.078438  -0.153062  0  3.961929  0
C  C71  1  0.63685434  0.53867033  0.81309615  1  0.031913  0  -0.078503  -0.153057  0  3.961899  0
C  C72  1  0.36218964  0.01920212  0.83856335  1  -0.099802  0  -0.07888  -0.153214  0  3.966227  0
C  C73  1  0.63780974  0.98080135  0.33856042  1  -0.099873  0  -0.07892  -0.15328  0  3.966303  0
C  C74  1  0.80114064  0.47550495  0.39534905  1  -0.030128  0  0.007349  0.010997  0  3.920416  0
C  C75  1  0.19886784  0.52450249  0.89534685  1  -0.030509  0  0.007318  0.010723  0  3.920668  0
C  C76  1  0.70118932  0.62142955  0.31924916  1  0.511226  0  0.050374  0.096916  0  3.989603  0
C  C77  1  0.29881332  0.37857622  0.81922911  1  0.510169  0  0.050418  0.096989  0  3.989181  0
C  C78  1  0.42983734  0.11336048  0.68249030  1  1.612786  0  0.235993  0.639255  0  4.203986  0
C  C79  1  0.57015502  0.88664591  0.18248864  1  1.613472  0  0.235897  0.63923  0  4.204407  0
C  C80  1  0.54778360  0.89208442  0.84339188  1  0.519435  0  0.048869  0.094805  0  3.997317  0
C  C81  1  0.45220594  0.10789750  0.34340960  1  0.519494  0  0.048722  0.09448  0  3.99757  0
C  C82  1  0.44593875  0.03335768  0.76438644  1  -0.007682  0  0.00774  0.010133  0  3.925873  0
C  C83  1  0.55406197  0.96664342  0.26438727  1  -0.011457  0  0.007743  0.010191  0  3.92585  0
C  C84  1  0.70686823  0.54203220  0.39395603  1  -0.045342  0  -0.071498  -0.143448  0  3.935343  0
C  C85  1  0.29313297  0.45796891  0.89394161  1  -0.04613  0  -0.071557  -0.143181  0  3.934937  0
C  C86  1  0.54229722  0.96969372  0.76786028  1  -0.083592  0  -0.073427  -0.146419  0  3.937631  0
C  C87  1  0.45768907  0.03029266  0.26787507  1  -0.078983  0  -0.073252  -0.146186  0  3.937594  0
N  N88  1  0.27074197  0.62119408  0.24659843  1  -1.264088  0  -0.387088  -0.338532  0  3.433932  0
N  N89  1  0.72925566  0.37880000  0.74660633  1  -1.264182  0  -0.387078  -0.338549  0  3.434091  0
N  N90  1  0.97513646  0.86545660  0.90245285  1  -1.243207  0  -0.382926  -0.339053  0  3.43105  0
N  N91  1  0.02487151  0.13455678  0.40244800  1  -1.243646  0  -0.383007  -0.339209  0  3.431017  0
N  N92  1  0.77984549  0.63519650  0.24694006  1  -1.270461  0  -0.382417  -0.336905  0  3.427902  0
N  N93  1  0.22015789  0.36482192  0.74692704  1  -1.270297  0  -0.382293  -0.336875  0  3.428082  0
N  N94  1  0.46706174  0.87743834  0.91457643  1  -1.242962  0  -0.386404  -0.337301  0  3.432906  0
N  N95  1  0.53293458  0.12255135  0.41458641  1  -1.243407  0  -0.386365  -0.337247  0  3.433072  0
O  O96  1  0.02341340  0.14746992  0.61970100  1  -1.240813  0  -0.427146  -0.713185  0  2.241651  0
O  O97  1  0.97659647  0.85249960  0.11971022  1  -1.240893  0  -0.427186  -0.713217  0  2.241451  0
O  O98  1  0.22229853  0.34445158  0.53060858  1  -1.258778  0  -0.431102  -0.714327  0  2.243299  0
O  O99  1  0.77769946  0.65556027  0.03061157  1  -1.25868  0  -0.43114  -0.714404  0  2.243123  0
O  O100  1  0.92630168  0.36988727  0.48201718  1  -1.225624  0  -0.38999  -0.663491  0  2.190443  0
O  O101  1  0.07371139  0.63013575  0.98199894  1  -1.226133  0  -0.389827  -0.663408  0  2.190485  0
O  O102  1  0.31907679  0.12870901  0.67150795  1  -1.219668  0  -0.394199  -0.665711  0  2.186275  0
O  O103  1  0.68091821  0.87129859  0.17149651  1  -1.220147  0  -0.39416  -0.665751  0  2.186416  0
O  O104  1  0.72254364  0.35186801  0.53090852  1  -1.242298  0  -0.430977  -0.716089  0  2.245821  0
O  O105  1  0.27745563  0.64812483  0.03090592  1  -1.242254  0  -0.430979  -0.715928  0  2.245772  0
O  O106  1  0.82402487  0.13758378  0.67357521  1  -1.223336  0  -0.3849  -0.657732  0  2.200713  0
O  O107  1  0.17598421  0.86241439  0.17358253  1  -1.223648  0  -0.384832  -0.657684  0  2.200848  0
O  O108  1  0.52889706  0.15891160  0.63053971  1  -1.249287  0  -0.435394  -0.718652  0  2.245439  0
O  O109  1  0.47110475  0.84109462  0.13054277  1  -1.249339  0  -0.435336  -0.718609  0  2.245639  0
O  O110  1  0.42359470  0.35646755  0.47924848  1  -1.221775  0  -0.386415  -0.657362  0  2.196368  0
O  O111  1  0.57638789  0.64351199  0.97925668  1  -1.221877  0  -0.386322  -0.657139  0  2.196798  0
