# generated using pymatgen
data_ZnH14C10(NO2)2
_symmetry_space_group_name_H-M   'P 1'
_cell_length_a   7.30483428
_cell_length_b   9.81040599
_cell_length_c   16.65251265
_cell_angle_alpha   90.00008779
_cell_angle_beta   89.99977719
_cell_angle_gamma   92.38027874
_symmetry_Int_Tables_number   1
_chemical_formula_structural   ZnH14C10(NO2)2
_chemical_formula_sum   'Zn4 H56 C40 N8 O16'
_cell_volume   1192.34584465
_cell_formula_units_Z   4
loop_
 _symmetry_equiv_pos_site_id
 _symmetry_equiv_pos_as_xyz
  1  'x, y, z'
loop_
 _atom_site_type_symbol
 _atom_site_label
 _atom_site_symmetry_multiplicity
 _atom_site_fract_x
 _atom_site_fract_y
 _atom_site_fract_z
 _atom_site_occupancy
 _atom_site_hle17_bader_spin_density
 _atom_site_hle17_ddec_charge
 _atom_site_hle17_ddec_spin_density
 _atom_site_hle17_ddec_sum_bond_order
 _atom_site_hle17_magmom
 _atom_site_hse06_10hf_bader_spin_density
 _atom_site_hse06_10hf_ddec_charge
 _atom_site_hse06_10hf_ddec_spin_density
 _atom_site_hse06_10hf_ddec_sum_bond_order
 _atom_site_hse06_10hf_magmom
 _atom_site_hse06_bader_spin_density
 _atom_site_hse06_ddec_charge
 _atom_site_hse06_ddec_spin_density
 _atom_site_hse06_ddec_sum_bond_order
 _atom_site_hse06_magmom
 _atom_site_pbe_bader_spin_density
 _atom_site_pbe_cm5_charge
 _atom_site_pbe_ddec_charge
 _atom_site_pbe_ddec_spin_density
 _atom_site_pbe_ddec_sum_bond_order
 _atom_site_pbe_magmom
Zn  Zn0  1  0.75775613  0.55217231  0.55482338  1  0  1.025928  0  1.746354  0  0  0.836456  0  2.202352  0  0  0.882123  0  2.150485  0  0  0.684689  0.804648  0  2.237777  0
Zn  Zn1  1  0.74224029  0.44782785  0.05482673  1  0  1.025933  0  1.746296  0  0  0.836469  0  2.202268  0  0  0.882132  0  2.150404  0  0  0.684722  0.804671  0  2.237685  0
Zn  Zn2  1  0.24223939  0.44782914  0.44517425  1  0  1.02591  0  1.746309  0  0  0.836438  0  2.202274  0  0  0.882117  0  2.150419  0  0  0.684709  0.804633  0  2.237687  0
Zn  Zn3  1  0.25776070  0.55217360  0.94517391  1  0  1.025946  0  1.746291  0  0  0.836465  0  2.202279  0  0  0.882141  0  2.150416  0  0  0.684719  0.80467  0  2.237704  0
H  H4  1  0.52975129  0.49455672  0.74818055  1  0  0.13482  0  0.932789  0  0  0.147507  0  0.987174  0  0  0.150784  0  0.985982  0  0  0.113436  0.145004  0  0.988605  0
H  H5  1  0.97024356  0.50544593  0.24818176  1  0  0.134773  0  0.932853  0  0  0.147467  0  0.987235  0  0  0.150743  0  0.986046  0  0  0.113409  0.144963  0  0.988667  0
H  H6  1  0.47024538  0.50544064  0.25182188  1  0  0.134753  0  0.932794  0  0  0.14744  0  0.987188  0  0  0.150716  0  0.985998  0  0  0.113392  0.144959  0  0.988594  0
H  H7  1  0.02975591  0.49455247  0.75181767  1  0  0.134778  0  0.932804  0  0  0.147472  0  0.987179  0  0  0.150749  0  0.985989  0  0  0.113421  0.144968  0  0.988613  0
H  H8  1  0.45792772  0.86983532  0.87666350  1  0  0.113912  0  0.954738  0  0  0.125161  0  1.013785  0  0  0.128287  0  1.012505  0  0  0.105508  0.122664  0  1.015304  0
H  H9  1  0.04206881  0.13016623  0.37666330  1  0  0.113916  0  0.95468  0  0  0.12513  0  1.013767  0  0  0.128256  0  1.012487  0  0  0.105478  0.122633  0  1.015283  0
H  H10  1  0.54207722  0.13016308  0.12333834  1  0  0.113979  0  0.954707  0  0  0.125191  0  1.01379  0  0  0.128318  0  1.01251  0  0  0.105526  0.122694  0  1.015306  0
H  H11  1  0.95792245  0.86983214  0.62333553  1  0  0.113962  0  0.954726  0  0  0.125183  0  1.013803  0  0  0.12831  0  1.012521  0  0  0.10555  0.122684  0  1.015321  0
H  H12  1  0.47289102  0.86823004  0.61657240  1  0  0.107448  0  0.947504  0  0  0.121345  0  1.003399  0  0  0.124167  0  1.002511  0  0  0.105712  0.119034  0  1.004661  0
H  H13  1  0.02710786  0.13177294  0.11657223  1  0  0.107425  0  0.947546  0  0  0.121306  0  1.003456  0  0  0.124129  0  1.002569  0  0  0.105682  0.118996  0  1.004717  0
H  H14  1  0.52709891  0.13176935  0.38342763  1  0  0.107464  0  0.947574  0  0  0.121344  0  1.003471  0  0  0.124166  0  1.002584  0  0  0.105706  0.119036  0  1.004732  0
H  H15  1  0.97289729  0.86822954  0.88342720  1  0  0.107427  0  0.947556  0  0  0.121313  0  1.003455  0  0  0.124136  0  1.002565  0  0  0.105704  0.119003  0  1.004718  0
H  H16  1  0.76600464  0.72566611  0.30113381  1  0  0.151584  0  0.952066  0  0  0.166334  0  1.015344  0  0  0.170406  0  1.012143  0  0  0.094589  0.163355  0  1.017733  0
H  H17  1  0.73399523  0.27433667  0.80113565  1  0  0.151532  0  0.952138  0  0  0.166283  0  1.015408  0  0  0.170356  0  1.012208  0  0  0.09458  0.163306  0  1.017794  0
H  H18  1  0.23399926  0.27433841  0.69886563  1  0  0.151552  0  0.952071  0  0  0.166307  0  1.015338  0  0  0.170379  0  1.012136  0  0  0.094552  0.163325  0  1.017727  0
H  H19  1  0.26600571  0.72566376  0.19886438  1  0  0.151557  0  0.952099  0  0  0.166307  0  1.015369  0  0  0.17038  0  1.01217  0  0  0.094586  0.16333  0  1.017755  0
H  H20  1  0.87911600  0.87562021  0.34154630  1  0  0.128782  0  0.966662  0  0  0.148635  0  1.028461  0  0  0.150349  0  1.028581  0  0  0.09665  0.147534  0  1.028189  0
H  H21  1  0.62088626  0.12438267  0.84155060  1  0  0.12884  0  0.966624  0  0  0.148662  0  1.028449  0  0  0.150373  0  1.028575  0  0  0.096683  0.147562  0  1.028177  0
H  H22  1  0.12088631  0.12438022  0.65845374  1  0  0.128806  0  0.966638  0  0  0.148646  0  1.028442  0  0  0.150359  0  1.028563  0  0  0.09667  0.147545  0  1.028171  0
H  H23  1  0.37911468  0.87561776  0.15844883  1  0  0.128838  0  0.966635  0  0  0.148659  0  1.028461  0  0  0.150372  0  1.028581  0  0  0.096678  0.14756  0  1.028188  0
H  H24  1  0.63884297  0.86036039  0.34159394  1  0  0.126799  0  0.971963  0  0  0.147683  0  1.031969  0  0  0.149487  0  1.031795  0  0  0.096838  0.146548  0  1.031835  0
H  H25  1  0.86115923  0.13964147  0.84159664  1  0  0.126832  0  0.971921  0  0  0.147688  0  1.03195  0  0  0.149493  0  1.031774  0  0  0.096831  0.146552  0  1.031817  0
H  H26  1  0.36116476  0.13963904  0.65840370  1  0  0.126906  0  0.971768  0  0  0.147702  0  1.031867  0  0  0.149507  0  1.03169  0  0  0.09684  0.146567  0  1.031733  0
H  H27  1  0.13884029  0.86035794  0.15840339  1  0  0.126831  0  0.9719  0  0  0.147676  0  1.031945  0  0  0.149481  0  1.03177  0  0  0.096822  0.146542  0  1.031811  0
H  H28  1  0.44521279  0.99451050  0.74606826  1  0  0.075207  0  0.972466  0  0  0.088766  0  1.030247  0  0  0.090625  0  1.029452  0  0  0.098717  0.087408  0  1.030768  0
H  H29  1  0.05478486  0.00549075  0.24606793  1  0  0.075126  0  0.972532  0  0  0.088702  0  1.030316  0  0  0.09056  0  1.029522  0  0  0.098698  0.087344  0  1.030836  0
H  H30  1  0.55478662  0.00548687  0.25393358  1  0  0.0752  0  0.972464  0  0  0.088754  0  1.030252  0  0  0.090611  0  1.02946  0  0  0.098709  0.087394  0  1.030774  0
H  H31  1  0.94521334  0.99450968  0.75393031  1  0  0.075101  0  0.972489  0  0  0.088667  0  1.030288  0  0  0.090526  0  1.029493  0  0  0.098686  0.087308  0  1.030808  0
H  H32  1  0.73478708  0.09125400  0.52142162  1  0  0.143802  0  0.938361  0  0  0.159238  0  1.001211  0  0  0.163072  0  0.998171  0  0  0.095635  0.156478  0  1.003431  0
H  H33  1  0.76521100  0.90874608  0.02142054  1  0  0.143807  0  0.938286  0  0  0.159227  0  1.001162  0  0  0.163062  0  0.998123  0  0  0.095628  0.156468  0  1.003381  0
H  H34  1  0.26521950  0.90874950  0.47857841  1  0  0.143809  0  0.938351  0  0  0.159233  0  1.001203  0  0  0.163069  0  0.998161  0  0  0.095633  0.156468  0  1.003422  0
H  H35  1  0.23478857  0.09125435  0.97858069  1  0  0.1438  0  0.938299  0  0  0.159217  0  1.001173  0  0  0.163055  0  0.998129  0  0  0.095621  0.156459  0  1.003391  0
H  H36  1  0.61353127  0.08451723  0.61456443  1  0  0.128985  0  0.966854  0  0  0.150138  0  1.026737  0  0  0.151791  0  1.027033  0  0  0.098532  0.148796  0  1.026974  0
H  H37  1  0.88646716  0.91547899  0.11456435  1  0  0.128998  0  0.966897  0  0  0.150153  0  1.026765  0  0  0.151805  0  1.027064  0  0  0.098532  0.14881  0  1.027003  0
H  H38  1  0.38647773  0.91548016  0.38543441  1  0  0.128954  0  0.966873  0  0  0.150087  0  1.026771  0  0  0.151739  0  1.02707  0  0  0.098498  0.148744  0  1.027008  0
H  H39  1  0.11353110  0.08452246  0.88543449  1  0  0.129006  0  0.966866  0  0  0.150129  0  1.026775  0  0  0.151781  0  1.027074  0  0  0.098533  0.148786  0  1.027013  0
H  H40  1  0.85381811  0.08558848  0.61452218  1  0  0.132274  0  0.961916  0  0  0.154415  0  1.01945  0  0  0.156043  0  1.01969  0  0  0.100306  0.153227  0  1.019461  0
H  H41  1  0.64618580  0.91440775  0.11452372  1  0  0.132283  0  0.961928  0  0  0.154422  0  1.019459  0  0  0.15605  0  1.019698  0  0  0.100303  0.153233  0  1.019473  0
H  H42  1  0.14618710  0.91441502  0.38547605  1  0  0.132288  0  0.961919  0  0  0.154418  0  1.019448  0  0  0.156048  0  1.019686  0  0  0.10031  0.153229  0  1.01946  0
H  H43  1  0.35381777  0.08559065  0.88547632  1  0  0.132261  0  0.961942  0  0  0.154399  0  1.019478  0  0  0.156029  0  1.019714  0  0  0.100309  0.153209  0  1.019491  0
H  H44  1  0.57639278  0.66033496  0.93767091  1  0  0.320781  0  0.901884  0  0  0.305745  0  0.960182  0  0  0.31322  0  0.954461  0  0  0.298084  0.300479  0  0.964215  0
H  H45  1  0.92360848  0.33966508  0.43767205  1  0  0.320756  0  0.901897  0  0  0.305724  0  0.960189  0  0  0.313199  0  0.954468  0  0  0.298056  0.300459  0  0.964222  0
H  H46  1  0.42360668  0.33966343  0.06233092  1  0  0.320806  0  0.901882  0  0  0.305775  0  0.960175  0  0  0.313252  0  0.954455  0  0  0.2981  0.300511  0  0.96421  0
H  H47  1  0.07638956  0.66033228  0.56232738  1  0  0.320782  0  0.901892  0  0  0.305737  0  0.9602  0  0  0.313216  0  0.954475  0  0  0.298075  0.300471  0  0.964233  0
H  H48  1  0.57362616  0.51510388  0.88916766  1  0  0.319718  0  0.90553  0  0  0.303418  0  0.966037  0  0  0.311037  0  0.960135  0  0  0.296984  0.29802  0  0.970232  0
H  H49  1  0.92637289  0.48489809  0.38916952  1  0  0.319804  0  0.905403  0  0  0.303456  0  0.965985  0  0  0.311074  0  0.960088  0  0  0.296977  0.298051  0  0.970186  0
H  H50  1  0.42637330  0.48489451  0.11083358  1  0  0.319748  0  0.905506  0  0  0.30344  0  0.966028  0  0  0.311059  0  0.960127  0  0  0.296992  0.298042  0  0.970226  0
H  H51  1  0.07362115  0.51510132  0.61082931  1  0  0.319826  0  0.905347  0  0  0.303485  0  0.96593  0  0  0.311102  0  0.960032  0  0  0.297018  0.298081  0  0.97013  0
H  H52  1  0.44427636  0.65179504  0.55627092  1  0  0.315145  0  0.912403  0  0  0.299151  0  0.974018  0  0  0.306609  0  0.968203  0  0  0.295256  0.293985  0  0.977957  0
H  H53  1  0.05571884  0.34820576  0.05627210  1  0  0.315186  0  0.91237  0  0  0.299111  0  0.974083  0  0  0.306567  0  0.96827  0  0  0.295219  0.29394  0  0.978022  0
H  H54  1  0.55571910  0.34820539  0.44373091  1  0  0.315216  0  0.912446  0  0  0.299201  0  0.974049  0  0  0.306652  0  0.968243  0  0  0.295276  0.294032  0  0.977987  0
H  H55  1  0.94428221  0.65179671  0.94372794  1  0  0.315156  0  0.912377  0  0  0.299147  0  0.973995  0  0  0.306599  0  0.968187  0  0  0.295237  0.293979  0  0.977934  0
H  H56  1  0.43598681  0.50841739  0.60582375  1  0  0.317028  0  0.908612  0  0  0.301526  0  0.967897  0  0  0.308912  0  0.962351  0  0  0.296261  0.296277  0  0.97191  0
H  H57  1  0.06401211  0.49158456  0.10582384  1  0  0.317029  0  0.908623  0  0  0.301534  0  0.96789  0  0  0.308918  0  0.962346  0  0  0.296254  0.296282  0  0.971899  0
H  H58  1  0.56400991  0.49158100  0.39417629  1  0  0.317067  0  0.908607  0  0  0.301544  0  0.967921  0  0  0.308933  0  0.962368  0  0  0.296275  0.296291  0  0.971936  0
H  H59  1  0.93598741  0.50841486  0.89417560  1  0  0.317051  0  0.908571  0  0  0.301544  0  0.967863  0  0  0.308928  0  0.962318  0  0  0.296248  0.296296  0  0.97187  0
C  C60  1  0.51179688  0.60436338  0.74792480  1  0  -0.264084  0  3.669363  0  0  -0.288196  0  3.915747  0  0  -0.295553  0  3.936221  0  0  -0.101336  -0.283789  0  3.902513  0
C  C61  1  0.98819929  0.39563826  0.24792528  1  0  -0.264057  0  3.66932  0  0  -0.288144  0  3.91573  0  0  -0.295502  0  3.936204  0  0  -0.10132  -0.283739  0  3.902497  0
C  C62  1  0.48819980  0.39563399  0.25207583  1  0  -0.26405  0  3.66923  0  0  -0.288094  0  3.915646  0  0  -0.295452  0  3.936123  0  0  -0.101281  -0.283704  0  3.902405  0
C  C63  1  0.01179891  0.60436217  0.75207355  1  0  -0.263954  0  3.669358  0  0  -0.288022  0  3.915747  0  0  -0.295377  0  3.936221  0  0  -0.101293  -0.283612  0  3.902515  0
C  C64  1  0.49811190  0.67630075  0.81973263  1  0  0.292284  0  3.794748  0  0  0.291149  0  4.04073  0  0  0.298605  0  4.063537  0  0  0.082177  0.28632  0  4.02498  0
C  C65  1  0.00188381  0.32370168  0.31973448  1  0  0.292244  0  3.794591  0  0  0.291117  0  4.040559  0  0  0.298573  0  4.063365  0  0  0.082178  0.286287  0  4.024809  0
C  C66  1  0.50188615  0.32369661  0.18026921  1  0  0.292251  0  3.794803  0  0  0.291114  0  4.040765  0  0  0.29857  0  4.06357  0  0  0.082134  0.286284  0  4.025017  0
C  C67  1  0.99810892  0.67629874  0.68026496  1  0  0.292145  0  3.794633  0  0  0.290966  0  4.040684  0  0  0.298422  0  4.063488  0  0  0.08211  0.286137  0  4.024929  0
C  C68  1  0.76425637  0.74310672  0.43239329  1  0  0.738117  0  3.842735  0  0  0.697424  0  4.136217  0  0  0.729526  0  4.130656  0  0  0.200025  0.675624  0  4.139148  0
C  C69  1  0.73574657  0.25689842  0.93239631  1  0  0.738114  0  3.842671  0  0  0.697373  0  4.136225  0  0  0.729486  0  4.13065  0  0  0.200014  0.675587  0  4.139142  0
C  C70  1  0.23573925  0.25689677  0.56760375  1  0  0.738041  0  3.842809  0  0  0.697391  0  4.136226  0  0  0.729497  0  4.130662  0  0  0.200016  0.675595  0  4.139151  0
C  C71  1  0.26425015  0.74309996  0.06760432  1  0  0.738217  0  3.842516  0  0  0.697485  0  4.136047  0  0  0.729596  0  4.130476  0  0  0.200033  0.6757  0  4.138964  0
C  C72  1  0.47340768  0.81677323  0.81968407  1  0  -0.192733  0  3.741553  0  0  -0.215886  0  3.995897  0  0  -0.222348  0  4.018293  0  0  -0.104654  -0.21179  0  3.981224  0
C  C73  1  0.02658929  0.18322717  0.31968335  1  0  -0.192722  0  3.741407  0  0  -0.215847  0  3.995777  0  0  -0.222307  0  4.018171  0  0  -0.104603  -0.211754  0  3.981103  0
C  C74  1  0.52659463  0.18322721  0.18031716  1  0  -0.192818  0  3.741576  0  0  -0.215933  0  3.99591  0  0  -0.222395  0  4.018305  0  0  -0.104652  -0.211839  0  3.981234  0
C  C75  1  0.97340059  0.81677120  0.68031428  1  0  -0.192758  0  3.741662  0  0  -0.215875  0  3.996049  0  0  -0.222335  0  4.018443  0  0  -0.104648  -0.211781  0  3.981374  0
C  C76  1  0.47914786  0.81524761  0.67404418  1  0  -0.188183  0  3.741051  0  0  -0.213018  0  3.996086  0  0  -0.219217  0  4.018353  0  0  -0.104047  -0.20903  0  3.981553  0
C  C77  1  0.02085459  0.18475450  0.17404407  1  0  -0.18813  0  3.741117  0  0  -0.212919  0  3.996161  0  0  -0.219117  0  4.018428  0  0  -0.103918  -0.208929  0  3.981627  0
C  C78  1  0.52084608  0.18474975  0.32595765  1  0  -0.188215  0  3.741169  0  0  -0.212981  0  3.996244  0  0  -0.219178  0  4.018509  0  0  -0.104029  -0.208994  0  3.981718  0
C  C79  1  0.97914651  0.81524899  0.82595476  1  0  -0.188175  0  3.741053  0  0  -0.212981  0  3.996088  0  0  -0.219181  0  4.018357  0  0  -0.104025  -0.208993  0  3.981567  0
C  C80  1  0.50087732  0.67454000  0.67529256  1  0  0.293329  0  3.785315  0  0  0.293105  0  4.03066  0  0  0.300562  0  4.053156  0  0  0.082241  0.288224  0  4.015103  0
C  C81  1  0.99911816  0.32546248  0.17529296  1  0  0.293398  0  3.785237  0  0  0.293097  0  4.03067  0  0  0.300555  0  4.053163  0  0  0.082154  0.288208  0  4.015114  0
C  C82  1  0.49911672  0.32545940  0.32470867  1  0  0.293392  0  3.785168  0  0  0.292991  0  4.030716  0  0  0.300448  0  4.053212  0  0  0.082109  0.2881  0  4.015169  0
C  C83  1  0.00088283  0.67453898  0.82470408  1  0  0.293316  0  3.785275  0  0  0.293045  0  4.030651  0  0  0.300501  0  4.053149  0  0  0.082209  0.288154  0  4.015108  0
C  C84  1  0.76292029  0.80234652  0.34870865  1  0  -0.455198  0  3.65536  0  0  -0.532393  0  3.885509  0  0  -0.539331  0  3.88779  0  0  -0.248745  -0.527219  0  3.883438  0
C  C85  1  0.73708196  0.19765740  0.84871162  1  0  -0.455216  0  3.655341  0  0  -0.532341  0  3.885542  0  0  -0.539285  0  3.887824  0  0  -0.24872  -0.527164  0  3.883455  0
C  C86  1  0.23708339  0.19765392  0.65128959  1  0  -0.455221  0  3.655223  0  0  -0.532341  0  3.885383  0  0  -0.53929  0  3.887684  0  0  -0.248699  -0.527162  0  3.883304  0
C  C87  1  0.26291762  0.80234304  0.15128902  1  0  -0.455262  0  3.655281  0  0  -0.532394  0  3.885494  0  0  -0.539332  0  3.887766  0  0  -0.248726  -0.527216  0  3.883405  0
C  C88  1  0.46508321  0.88505940  0.74655701  1  0  -0.034876  0  3.825197  0  0  -0.048824  0  4.08087  0  0  -0.048225  0  4.103825  0  0  -0.088981  -0.049021  0  4.06553  0
C  C89  1  0.03491871  0.11494492  0.24655561  1  0  -0.034832  0  3.825389  0  0  -0.048803  0  4.08106  0  0  -0.048205  0  4.104017  0  0  -0.08905  -0.048998  0  4.065717  0
C  C90  1  0.53491225  0.11494103  0.25344663  1  0  -0.034868  0  3.825216  0  0  -0.048821  0  4.080873  0  0  -0.048222  0  4.103829  0  0  -0.088982  -0.049018  0  4.065531  0
C  C91  1  0.96507807  0.88505449  0.75344082  1  0  -0.034736  0  3.82529  0  0  -0.048697  0  4.080949  0  0  -0.048097  0  4.103905  0  0  -0.088989  -0.048892  0  4.065604  0
C  C92  1  0.73566082  0.12680832  0.58367711  1  0  -0.445603  0  3.651694  0  0  -0.523304  0  3.88204  0  0  -0.530166  0  3.885058  0  0  -0.243992  -0.518382  0  3.880209  0
C  C93  1  0.76433656  0.87318885  0.08367720  1  0  -0.445683  0  3.651669  0  0  -0.523369  0  3.882017  0  0  -0.530236  0  3.885044  0  0  -0.244012  -0.518445  0  3.880185  0
C  C94  1  0.26434292  0.87319314  0.41632172  1  0  -0.445625  0  3.65173  0  0  -0.523265  0  3.882056  0  0  -0.530129  0  3.885075  0  0  -0.24399  -0.518337  0  3.880218  0
C  C95  1  0.23566432  0.12681057  0.91632223  1  0  -0.44566  0  3.651664  0  0  -0.523306  0  3.882035  0  0  -0.53017  0  3.885052  0  0  -0.244026  -0.518381  0  3.880199  0
C  C96  1  0.74318169  0.28021321  0.59155166  1  0  0.735019  0  3.842893  0  0  0.695057  0  4.134973  0  0  0.726995  0  4.129829  0  0  0.201027  0.673285  0  4.137591  0
C  C97  1  0.75681694  0.71978296  0.09155283  1  0  0.735038  0  3.842934  0  0  0.69505  0  4.135033  0  0  0.726982  0  4.129891  0  0  0.200987  0.673277  0  4.137655  0
C  C98  1  0.25682457  0.71978417  0.40844778  1  0  0.734886  0  3.843068  0  0  0.69487  0  4.13522  0  0  0.726818  0  4.130072  0  0  0.200965  0.673097  0  4.137837  0
C  C99  1  0.24318964  0.28022055  0.90844601  1  0  0.734996  0  3.842969  0  0  0.694967  0  4.135111  0  0  0.72691  0  4.129961  0  0  0.200995  0.673194  0  4.13773  0
N  N100  1  0.51018179  0.60012266  0.60112173  1  0  -0.673916  0  3.159862  0  0  -0.610124  0  3.417226  0  0  -0.629715  0  3.407767  0  0  -0.611901  -0.596455  0  3.423489  0
N  N101  1  0.98981424  0.39987761  0.10112221  1  0  -0.673991  0  3.159949  0  0  -0.61012  0  3.41739  0  0  -0.629713  0  3.407936  0  0  -0.61182  -0.596416  0  3.423605  0
N  N102  1  0.48981637  0.39987675  0.39888071  1  0  -0.674028  0  3.159967  0  0  -0.610145  0  3.417409  0  0  -0.629739  0  3.407956  0  0  -0.611834  -0.596446  0  3.423638  0
N  N103  1  0.01018813  0.60012384  0.89887662  1  0  -0.673999  0  3.1598  0  0  -0.610177  0  3.417193  0  0  -0.629769  0  3.40774  0  0  -0.611852  -0.596493  0  3.423441  0
N  N104  1  0.50447771  0.60430996  0.89470086  1  0  -0.67428  0  3.168552  0  0  -0.609943  0  3.426661  0  0  -0.629934  0  3.417294  0  0  -0.610231  -0.59607  0  3.432907  0
N  N105  1  0.99552403  0.39569202  0.39470312  1  0  -0.674314  0  3.168478  0  0  -0.609943  0  3.42661  0  0  -0.629934  0  3.417239  0  0  -0.610185  -0.59607  0  3.432861  0
N  N106  1  0.49552450  0.39568843  0.10530038  1  0  -0.674294  0  3.168544  0  0  -0.60995  0  3.42664  0  0  -0.629938  0  3.417263  0  0  -0.610223  -0.596086  0  3.432899  0
N  N107  1  0.00447412  0.60430739  0.60529571  1  0  -0.674338  0  3.16836  0  0  -0.609945  0  3.426505  0  0  -0.629933  0  3.417129  0  0  -0.610228  -0.596071  0  3.432751  0
O  O108  1  0.75802052  0.60895563  0.43723154  1  0  -0.711355  0  2.042436  0  0  -0.620535  0  2.288754  0  0  -0.650794  0  2.276344  0  0  -0.340329  -0.599726  0  2.296925  0
O  O109  1  0.74197696  0.39105053  0.93723047  1  0  -0.711265  0  2.042189  0  0  -0.620467  0  2.288565  0  0  -0.650719  0  2.276139  0  0  -0.340334  -0.599706  0  2.296772  0
O  O110  1  0.24197779  0.39104684  0.56277090  1  0  -0.711294  0  2.042386  0  0  -0.620518  0  2.288709  0  0  -0.650771  0  2.276289  0  0  -0.340347  -0.599718  0  2.296883  0
O  O111  1  0.25802114  0.60894786  0.06277136  1  0  -0.71134  0  2.042138  0  0  -0.620546  0  2.2885  0  0  -0.6508  0  2.276071  0  0  -0.340376  -0.599781  0  2.296702  0
O  O112  1  0.74564778  0.35023249  0.52416306  1  0  -0.706801  0  2.037643  0  0  -0.618447  0  2.284399  0  0  -0.648117  0  2.271745  0  0  -0.339103  -0.597412  0  2.292307  0
O  O113  1  0.75435028  0.64976761  0.02416357  1  0  -0.706783  0  2.037599  0  0  -0.618407  0  2.284349  0  0  -0.648073  0  2.271698  0  0  -0.339086  -0.597369  0  2.29225  0
O  O114  1  0.25434648  0.64977100  0.47583818  1  0  -0.706666  0  2.037512  0  0  -0.618294  0  2.28428  0  0  -0.648012  0  2.271675  0  0  -0.339062  -0.597259  0  2.292184  0
O  O115  1  0.24564787  0.35023180  0.97583887  1  0  -0.706826  0  2.037558  0  0  -0.618404  0  2.2843  0  0  -0.648109  0  2.271685  0  0  -0.339068  -0.597369  0  2.292203  0
O  O116  1  0.76930667  0.81678808  0.49329644  1  0  -0.625504  0  1.855139  0  0  -0.574706  0  2.063042  0  0  -0.598352  0  2.056353  0  0  -0.326021  -0.558056  0  2.067177  0
O  O117  1  0.73069739  0.18322231  0.99330121  1  0  -0.625565  0  1.855236  0  0  -0.574729  0  2.063138  0  0  -0.59838  0  2.056444  0  0  -0.326056  -0.558078  0  2.067259  0
O  O118  1  0.23068738  0.18321132  0.50670000  1  0  -0.625576  0  1.855125  0  0  -0.574763  0  2.062972  0  0  -0.598409  0  2.056283  0  0  -0.32606  -0.558123  0  2.067116  0
O  O119  1  0.26930750  0.81677508  0.00670063  1  0  -0.625576  0  1.855167  0  0  -0.574722  0  2.063045  0  0  -0.598373  0  2.056354  0  0  -0.326035  -0.558082  0  2.06718  0
O  O120  1  0.74689115  0.33804579  0.65826173  1  0  -0.628448  0  1.867989  0  0  -0.576877  0  2.078336  0  0  -0.600841  0  2.071518  0  0  -0.323313  -0.559952  0  2.082478  0
O  O121  1  0.75310295  0.66195359  0.15826105  1  0  -0.628449  0  1.868118  0  0  -0.576866  0  2.07846  0  0  -0.600829  0  2.071642  0  0  -0.323282  -0.559941  0  2.082604  0
O  O122  1  0.25311127  0.66195669  0.34173770  1  0  -0.628379  0  1.868142  0  0  -0.576792  0  2.078512  0  0  -0.600748  0  2.071675  0  0  -0.323273  -0.559873  0  2.082659  0
O  O123  1  0.24690757  0.33804686  0.84173958  1  0  -0.62837  0  1.86814  0  0  -0.576795  0  2.078545  0  0  -0.600753  0  2.071716  0  0  -0.323276  -0.559871  0  2.082685  0
