# generated using pymatgen
data_CuH9C5SNO5
_symmetry_space_group_name_H-M   'P 1'
_cell_length_a   5.46683758
_cell_length_b   8.58414594
_cell_length_c   9.15433188
_cell_angle_alpha   110.51592413
_cell_angle_beta   90.00045391
_cell_angle_gamma   89.99974021
_symmetry_Int_Tables_number   1
_chemical_formula_structural   CuH9C5SNO5
_chemical_formula_sum   'Cu2 H18 C10 S2 N2 O10'
_cell_volume   402.34850760
_cell_formula_units_Z   2
loop_
 _symmetry_equiv_pos_site_id
 _symmetry_equiv_pos_as_xyz
  1  'x, y, z'
loop_
 _atom_site_type_symbol
 _atom_site_label
 _atom_site_symmetry_multiplicity
 _atom_site_fract_x
 _atom_site_fract_y
 _atom_site_fract_z
 _atom_site_occupancy
 _atom_site_hle17_ddec_charge
 _atom_site_hle17_ddec_spin_density
 _atom_site_hle17_ddec_sum_bond_order
 _atom_site_hle17_magmom
 _atom_site_hse06_10hf_ddec_charge
 _atom_site_hse06_10hf_ddec_spin_density
 _atom_site_hse06_10hf_ddec_sum_bond_order
 _atom_site_hse06_10hf_magmom
 _atom_site_hse06_ddec_charge
 _atom_site_hse06_ddec_spin_density
 _atom_site_hse06_ddec_sum_bond_order
 _atom_site_hse06_magmom
 _atom_site_pbe_cm5_charge
 _atom_site_pbe_ddec_charge
 _atom_site_pbe_ddec_spin_density
 _atom_site_pbe_ddec_sum_bond_order
 _atom_site_pbe_magmom
Cu  Cu0  1  0.24965480  0.82890673  0.10774924  1  0.948997  -0.705532  1.677777  -0.509  0.944097  -0.803478  2.059079  -0.637  1.034173  -0.87961  1.993267  -0.725  0.711947  0.884913  -0.738895  2.109585  -0.573
Cu  Cu1  1  0.74966126  0.17108672  0.89224814  1  0.948855  0.705511  1.67776  0.509  0.944025  0.803471  2.059101  0.637  1.034082  0.879595  1.993261  0.725  0.711974  0.88484  0.73889  2.109604  0.573
H  H2  1  0.98939253  0.94785651  0.34573323  1  0.306744  0.000935  0.942416  0.002  0.290457  7.7e-05  1.013582  0.001  0.298802  0.000285  1.00799  0.001  0.283182  0.284269  -0.000103  1.018254  0.0
H  H3  1  0.48940183  0.05213772  0.65426785  1  0.306746  -0.000935  0.942371  -0.002  0.290488  -7.7e-05  1.013505  -0.001  0.29883  -0.000284  1.007915  -0.001  0.283197  0.284308  0.000104  1.018159  0.0
H  H4  1  0.27817595  0.00540897  0.39926088  1  0.301502  0.001283  0.921872  0.002  0.288236  -5.5e-05  0.989158  0.0  0.29614  4.7e-05  0.983663  0.001  0.288234  0.282064  -0.000187  0.994491  0.0
H  H5  1  0.77819869  0.99458200  0.60074241  1  0.301451  -0.001284  0.921932  -0.002  0.288216  5.5e-05  0.989156  0.0  0.29612  -4.7e-05  0.983657  -0.001  0.288207  0.282041  0.000187  0.994492  0.0
H  H6  1  0.94391190  0.52579515  0.93857190  1  0.423653  0.000255  0.878334  0.0  0.399503  0.000322  0.932118  0.0  0.41137  0.000195  0.915031  0.0  0.288544  0.391011  0.000436  0.944457  0.0
H  H7  1  0.44389567  0.47420170  0.06143415  1  0.423882  -0.000256  0.878046  0.0  0.399696  -0.000323  0.931882  0.0  0.411563  -0.000194  0.914801  0.0  0.288626  0.391209  -0.000436  0.944215  0.0
H  H8  1  0.78511982  0.68695417  0.99093528  1  0.41375  0.000132  0.858685  0.0  0.392761  0.000128  0.92463  0.0  0.401872  0.000114  0.912955  0.0  0.299731  0.386402  9.6e-05  0.931599  0.0
H  H9  1  0.28512024  0.31303187  0.00907192  1  0.413637  -0.000134  0.858611  0.0  0.392682  -0.000127  0.924535  0.0  0.401796  -0.000114  0.913022  0.0  0.29971  0.386316  -9.6e-05  0.931511  0.0
H  H10  1  0.95528887  0.22165007  0.37707169  1  0.069242  -0.00253  0.91478  -0.003  0.082081  -0.001734  0.972128  -0.002  0.082807  -0.001268  0.972735  -0.002  0.11014  0.081444  -0.002039  0.97195  -0.002
H  H11  1  0.45529969  0.77834675  0.62293441  1  0.069338  0.00253  0.914768  0.003  0.082122  0.001734  0.972181  0.002  0.082849  0.001268  0.972786  0.002  0.11014  0.081484  0.002039  0.972003  0.002
H  H12  1  0.27920074  0.38550196  0.32159008  1  0.093753  0.000188  0.969358  0.0  0.100169  -3.4e-05  1.045858  0.0  0.101901  -9e-06  1.045304  0.0  0.093474  0.098618  -3.4e-05  1.04685  0.0
H  H13  1  0.77920067  0.61449893  0.67841312  1  0.093791  -0.000192  0.969342  0.0  0.100219  3.3e-05  1.045838  0.0  0.101954  9e-06  1.045286  0.0  0.093481  0.098663  3.4e-05  1.046831  0.0
H  H14  1  0.47505985  0.20942046  0.24531806  1  0.124748  2e-05  0.927343  0.0  0.136591  2.8e-05  0.989827  0.0  0.137694  2.9e-05  0.989671  0.0  0.106904  0.135799  0.000144  0.990215  0.0
H  H15  1  0.97506712  0.79057502  0.75468116  1  0.124808  -1.6e-05  0.927342  0.0  0.13667  -2.9e-05  0.9898  0.0  0.137778  -2.8e-05  0.989643  0.0  0.106954  0.135875  -0.000144  0.990186  0.0
H  H16  1  0.30817958  0.48583818  0.75635485  1  0.152422  -0.000207  0.941283  -0.001  0.161356  1.1e-05  1.003242  0.0  0.164585  1.1e-05  1.00115  0.0  0.109425  0.159089  -1.1e-05  1.004837  0.0
H  H17  1  0.80818221  0.51416752  0.24363913  1  0.152388  0.00021  0.941389  0.001  0.161351  -1.2e-05  1.003314  0.0  0.164581  -1.1e-05  1.001221  0.0  0.109407  0.159085  1.1e-05  1.004912  0.0
H  H18  1  0.09793108  0.44581162  0.60170547  1  0.113275  -0.000351  0.982396  0.0  0.121153  -0.000117  1.05765  0.0  0.123293  -9e-05  1.057693  0.0  0.09822  0.118702  -0.000108  1.059396  0.0
H  H19  1  0.59791703  0.55418218  0.39829450  1  0.113237  0.000351  0.982334  0.0  0.121129  0.000118  1.057595  0.0  0.123275  9e-05  1.057625  0.0  0.098246  0.118678  0.000108  1.059333  0.0
C  C20  1  0.02385886  0.12522295  0.13120663  1  0.639277  0.00117  3.79786  0.001  0.600421  -0.000744  4.094821  -0.001  0.638468  -0.000562  4.08778  -0.001  0.216042  0.574229  -0.000906  4.098758  -0.001
C  C21  1  0.52387985  0.87482567  0.86880512  1  0.639415  -0.001164  3.79786  -0.001  0.600683  0.000745  4.094642  0.001  0.638737  0.000561  4.087582  0.001  0.216183  0.574483  0.000908  4.098597  0.001
C  C22  1  0.10431580  0.15497861  0.29890343  1  0.080327  0.004758  3.615261  0.008  0.068819  0.000838  3.850068  0.004  0.068724  0.000684  3.864913  0.003  0.000192  0.068982  0.000906  3.840115  0.004
C  C23  1  0.60432216  0.84502259  0.70109459  1  0.080182  -0.00476  3.615421  -0.008  0.068653  -0.000833  3.850288  -0.004  0.068554  -0.000675  3.865139  -0.003  0.00017  0.068814  -0.000902  3.840333  -0.004
C  C24  1  0.33214762  0.26655317  0.33216891  1  -0.208078  -0.000425  3.63865  -0.001  -0.243947  -0.000188  3.900719  0.0  -0.244111  -0.000131  3.911331  0.0  -0.151223  -0.244231  -3e-06  3.893739  0.0
C  C25  1  0.83214865  0.73344633  0.66783085  1  -0.20819  0.000428  3.638774  0.001  -0.244094  0.000188  3.900849  0.0  -0.244255  0.000128  3.911442  0.0  -0.151278  -0.244382  3e-06  3.893895  0.0
C  C26  1  0.23256879  0.38658883  0.65464090  1  -0.327916  0.008105  3.636962  0.009  -0.358725  0.004887  3.887472  0.005  -0.364705  0.003241  3.893693  0.004  -0.160186  -0.354107  0.006346  3.882923  0.007
C  C27  1  0.73256480  0.61340090  0.34535301  1  -0.327938  -0.008102  3.636903  -0.009  -0.358734  -0.004887  3.887359  -0.005  -0.364717  -0.003239  3.893573  -0.004  -0.160194  -0.354111  -0.006343  3.882819  -0.007
C  C28  1  0.10521244  0.25952104  0.71122994  1  0.703127  -0.003029  3.836803  -0.006  0.65778  -0.00047  4.142154  -0.003  0.693048  -0.000853  4.136117  -0.003  0.207529  0.633211  -7.2e-05  4.145895  -0.003
C  C29  1  0.60519801  0.74045148  0.28875122  1  0.703344  0.003031  3.835916  0.006  0.657907  0.000474  4.141417  0.003  0.693199  0.000855  4.135361  0.003  0.207537  0.633332  7.4e-05  4.145171  0.003
S  S30  1  0.47959218  0.30462695  0.51870924  1  0.051068  0.010986  2.346197  0.011  0.049827  0.003151  2.698823  0.004  0.046279  0.001469  2.697113  0.002  -0.002899  0.055066  0.004066  2.701183  0.004
S  S31  1  0.97958572  0.69537969  0.48129031  1  0.051101  -0.010954  2.346104  -0.011  0.049891  -0.003146  2.698726  -0.004  0.046345  -0.001468  2.697015  -0.002  -0.002872  0.055126  -0.004058  2.701089  -0.004
N  N32  1  0.14931606  0.99290915  0.31451784  1  -0.637239  -0.104453  3.187155  -0.129  -0.633439  -0.066634  3.468565  -0.087  -0.667528  -0.052587  3.469564  -0.073  -0.646457  -0.611911  -0.072447  3.470167  -0.091
N  N33  1  0.64933371  0.00709200  0.68548476  1  -0.637128  0.10448  3.187159  0.129  -0.633338  0.066649  3.46855  0.087  -0.667423  0.052602  3.469549  0.073  -0.646429  -0.611814  0.072465  3.47015  0.091
O  O34  1  0.05262416  0.98012735  0.03091680  1  -0.578115  -0.07589  2.104009  -0.1  -0.552268  -0.053353  2.386194  -0.076  -0.593336  -0.04218  2.378451  -0.063  -0.308475  -0.524945  -0.059709  2.392951  -0.082
O  O35  1  0.55261764  0.01987505  0.96906385  1  -0.577867  0.075797  2.104977  0.1  -0.552159  0.053312  2.387227  0.076  -0.593202  0.042157  2.379455  0.063  -0.308508  -0.524854  0.059656  2.394004  0.082
O  O36  1  0.93600766  0.64085786  0.01584456  1  -0.824712  0.00171  1.83601  0.001  -0.78143  0.000738  2.020583  0.0  -0.80212  0.000664  1.987476  0.0  -0.593976  -0.766752  0.000625  2.043478  0.0
O  O37  1  0.43601749  0.35914768  0.98416097  1  -0.824813  -0.001703  1.835657  -0.001  -0.781541  -0.000736  2.02019  0.0  -0.802234  -0.000663  1.987225  0.0  -0.59401  -0.766867  -0.000623  2.043084  0.0
O  O38  1  0.93722737  0.24708706  0.09884985  1  -0.599856  0.02944  2.045347  0.04  -0.561406  0.021581  2.30837  0.032  -0.597572  0.018473  2.296363  0.028  -0.313171  -0.53543  0.022274  2.316367  0.032
O  O39  1  0.43723428  0.75292217  0.90115250  1  -0.600146  -0.029484  2.044588  -0.04  -0.561679  -0.021602  2.307525  -0.032  -0.597851  -0.018487  2.295486  -0.028  -0.313264  -0.535685  -0.022296  2.315516  -0.032
O  O40  1  0.16474788  0.10989041  0.66509651  1  -0.608333  -0.001676  1.997802  -0.001  -0.562003  -0.001524  2.231654  -0.001  -0.585822  -0.001707  2.223481  -0.001  -0.30851  -0.545881  -0.000626  2.2391  0.001
O  O41  1  0.66474605  0.89011812  0.33490309  1  -0.608435  0.001676  1.996752  0.001  -0.562062  0.001525  2.230642  0.001  -0.585889  0.001704  2.222459  0.001  -0.308509  -0.545926  0.000625  2.238093  -0.001
O  O42  1  0.93015233  0.32296296  0.81069088  1  -0.637502  0.082937  2.090878  0.111  -0.599993  0.055082  2.365848  0.08  -0.643934  0.042553  2.357126  0.065  -0.328686  -0.57049  0.061118  2.372059  0.085
O  O43  1  0.43012745  0.67702767  0.18930982  1  -0.637792  -0.082857  2.091091  -0.11  -0.600166  -0.055045  2.366067  -0.08  -0.644121  -0.042524  2.357332  -0.065  -0.32875  -0.570668  -0.061075  2.3723  -0.085
