# generated using pymatgen
data_CuH6C7N4O5
_symmetry_space_group_name_H-M   'P 1'
_cell_length_a   7.25392736
_cell_length_b   8.21241214
_cell_length_c   15.90564969
_cell_angle_alpha   90.00024036
_cell_angle_beta   89.99995305
_cell_angle_gamma   105.36360257
_symmetry_Int_Tables_number   1
_chemical_formula_structural   CuH6C7N4O5
_chemical_formula_sum   'Cu4 H24 C28 N16 O20'
_cell_volume   913.67399122
_cell_formula_units_Z   4
loop_
 _symmetry_equiv_pos_site_id
 _symmetry_equiv_pos_as_xyz
  1  'x, y, z'
loop_
 _atom_site_type_symbol
 _atom_site_label
 _atom_site_symmetry_multiplicity
 _atom_site_fract_x
 _atom_site_fract_y
 _atom_site_fract_z
 _atom_site_occupancy
 _atom_site_hle17_bader_spin_density
 _atom_site_hle17_ddec_charge
 _atom_site_hle17_ddec_spin_density
 _atom_site_hle17_ddec_sum_bond_order
 _atom_site_hle17_magmom
 _atom_site_hse06_10hf_bader_spin_density
 _atom_site_hse06_10hf_ddec_charge
 _atom_site_hse06_10hf_ddec_spin_density
 _atom_site_hse06_10hf_ddec_sum_bond_order
 _atom_site_hse06_10hf_magmom
 _atom_site_hse06_bader_spin_density
 _atom_site_hse06_ddec_charge
 _atom_site_hse06_ddec_spin_density
 _atom_site_hse06_ddec_sum_bond_order
 _atom_site_hse06_magmom
 _atom_site_pbe_bader_spin_density
 _atom_site_pbe_cm5_charge
 _atom_site_pbe_ddec_charge
 _atom_site_pbe_ddec_spin_density
 _atom_site_pbe_ddec_sum_bond_order
 _atom_site_pbe_magmom
Cu  Cu0  1  0.29764582  0.19997728  0.92187071  1  0  0.890088  0  1.756472  0  0  0.846498  0  2.151907  0  0  0.883822  0  2.099901  0  0  0.693853  0.825  0  2.187011  0
Cu  Cu1  1  0.79767057  0.19998374  0.57812861  1  0  0.890238  0  1.756089  0  0  0.846497  0  2.151425  0  0  0.884027  0  2.099404  0  0  0.693799  0.825069  0  2.186549  0
Cu  Cu2  1  0.70231024  0.80000473  0.07812895  1  0  0.890324  0  1.755708  0  0  0.846612  0  2.150764  0  0  0.884143  0  2.098708  0  0  0.693709  0.825103  0  2.185997  0
Cu  Cu3  1  0.20232846  0.80001700  0.42187042  1  0  0.890195  0  1.756052  0  0  0.846628  0  2.151222  0  0  0.883973  0  2.099179  0  0  0.693783  0.825048  0  2.186469  0
H  H4  1  0.32629017  0.88327498  0.85256337  1  0  0.379532  0  0.946486  0  0  0.339691  0  1.026321  0  0  0.350746  0  1.010614  0  0  0.270167  0.332092  0  1.03703  0
H  H5  1  0.82628512  0.88327460  0.64743427  1  0  0.379526  0  0.946496  0  0  0.339676  0  1.02634  0  0  0.350738  0  1.010626  0  0  0.270165  0.332079  0  1.037048  0
H  H6  1  0.67371733  0.11672190  0.14743566  1  0  0.379538  0  0.946484  0  0  0.339693  0  1.026323  0  0  0.350751  0  1.010613  0  0  0.270172  0.332099  0  1.037026  0
H  H7  1  0.17372079  0.11672609  0.35256727  1  0  0.37952  0  0.946501  0  0  0.339672  0  1.026345  0  0  0.350726  0  1.010641  0  0  0.270152  0.332075  0  1.037052  0
H  H8  1  0.51433130  0.93682998  0.90929606  1  0  0.422521  0  0.858495  0  0  0.399368  0  0.916653  0  0  0.408866  0  0.902556  0  0  0.293341  0.392939  0  0.926191  0
H  H9  1  0.01433184  0.93683202  0.59070433  1  0  0.422563  0  0.858478  0  0  0.399408  0  0.916601  0  0  0.408908  0  0.902501  0  0  0.293365  0.392981  0  0.926137  0
H  H10  1  0.48567069  0.06316694  0.09070297  1  0  0.422561  0  0.858439  0  0  0.399395  0  0.91662  0  0  0.408891  0  0.902524  0  0  0.293348  0.392977  0  0.926145  0
H  H11  1  0.98567308  0.06316995  0.40929785  1  0  0.422578  0  0.858399  0  0  0.399404  0  0.916614  0  0  0.408899  0  0.902519  0  0  0.293334  0.392981  0  0.926146  0
H  H12  1  0.73841236  0.81894845  0.81101572  1  0  0.070846  0  0.93606  0  0  0.075469  0  1.006057  0  0  0.077768  0  1.003077  0  0  0.122552  0.073908  0  1.008096  0
H  H13  1  0.23841924  0.81895379  0.68898307  1  0  0.070736  0  0.936049  0  0  0.075392  0  1.006022  0  0  0.077689  0  1.003042  0  0  0.122503  0.07383  0  1.008061  0
H  H14  1  0.26159001  0.18104974  0.18898583  1  0  0.070789  0  0.936087  0  0  0.07545  0  1.006045  0  0  0.077747  0  1.003068  0  0  0.122547  0.073894  0  1.008084  0
H  H15  1  0.76159195  0.18105067  0.31101847  1  0  0.07082  0  0.93604  0  0  0.075442  0  1.006039  0  0  0.077739  0  1.003064  0  0  0.122543  0.073887  0  1.008079  0
H  H16  1  0.53048144  0.61214933  0.57879239  1  0  0.117664  0  0.919923  0  0  0.127119  0  0.976699  0  0  0.131027  0  0.972189  0  0  0.126234  0.123887  0  0.980285  0
H  H17  1  0.03048689  0.61216040  0.92120918  1  0  0.117654  0  0.919899  0  0  0.127145  0  0.976642  0  0  0.131052  0  0.972133  0  0  0.126227  0.123911  0  0.980235  0
H  H18  1  0.46952485  0.38785263  0.42120979  1  0  0.11768  0  0.919864  0  0  0.127133  0  0.976669  0  0  0.131041  0  0.972159  0  0  0.126253  0.123912  0  0.980251  0
H  H19  1  0.96951584  0.38784790  0.07879363  1  0  0.117629  0  0.920024  0  0  0.127082  0  0.976806  0  0  0.130986  0  0.972298  0  0  0.126217  0.123862  0  0.980387  0
H  H20  1  0.22595721  0.28737124  0.60969118  1  0  0.331497  0  0.891576  0  0  0.312193  0  0.949179  0  0  0.321557  0  0.942038  0  0  0.322226  0.305423  0  0.954412  0
H  H21  1  0.72595564  0.28737917  0.89030773  1  0  0.33155  0  0.891495  0  0  0.31225  0  0.949095  0  0  0.321613  0  0.941956  0  0  0.322243  0.305476  0  0.954332  0
H  H22  1  0.77404555  0.71262821  0.39030660  1  0  0.331538  0  0.891544  0  0  0.312229  0  0.949153  0  0  0.321589  0  0.942018  0  0  0.322248  0.305463  0  0.954385  0
H  H23  1  0.27404180  0.71262536  0.10969319  1  0  0.331535  0  0.891478  0  0  0.31222  0  0.949098  0  0  0.321582  0  0.941959  0  0  0.322241  0.305456  0  0.954326  0
H  H24  1  0.13460818  0.10050338  0.73788003  1  0  0.111401  0  0.930861  0  0  0.120874  0  0.990802  0  0  0.123794  0  0.986765  0  0  0.144083  0.118517  0  0.993698  0
H  H25  1  0.63462126  0.10050889  0.76211913  1  0  0.111418  0  0.930779  0  0  0.120856  0  0.990777  0  0  0.123704  0  0.986836  0  0  0.144042  0.118497  0  0.99368  0
H  H26  1  0.86538496  0.89949613  0.26211585  1  0  0.111449  0  0.930821  0  0  0.120807  0  0.990913  0  0  0.12375  0  0.986842  0  0  0.144072  0.118456  0  0.993806  0
H  H27  1  0.36538718  0.89949558  0.23788305  1  0  0.111444  0  0.930829  0  0  0.120814  0  0.990899  0  0  0.123752  0  0.986835  0  0  0.144066  0.118464  0  0.993793  0
C  C28  1  0.41125399  0.53507408  0.00504399  1  0  0.538019  0  3.91735  0  0  0.489679  0  4.241713  0  0  0.521193  0  4.232362  0  0  0.201509  0.467674  0  4.247306  0
C  C29  1  0.91128791  0.53507255  0.49495284  1  0  0.538205  0  3.917104  0  0  0.489781  0  4.241639  0  0  0.521289  0  4.23229  0  0  0.20146  0.467784  0  4.24725  0
C  C30  1  0.58867683  0.46492453  0.99494749  1  0  0.538179  0  3.917031  0  0  0.489801  0  4.241467  0  0  0.521272  0  4.232165  0  0  0.201615  0.467828  0  4.247042  0
C  C31  1  0.08871507  0.46492310  0.50504682  1  0  0.538208  0  3.91702  0  0  0.489821  0  4.241528  0  0  0.521314  0  4.232181  0  0  0.201534  0.467823  0  4.247128  0
C  C32  1  0.06047229  0.00203960  0.03959850  1  0  0.519445  0  3.914402  0  0  0.47998  0  4.208093  0  0  0.510828  0  4.199779  0  0  0.208337  0.459312  0  4.214887  0
C  C33  1  0.56045746  0.00203175  0.46039606  1  0  0.519752  0  3.913991  0  0  0.480312  0  4.207642  0  0  0.511163  0  4.199325  0  0  0.208568  0.459644  0  4.214438  0
C  C34  1  0.93956346  0.99796851  0.96039173  1  0  0.51989  0  3.914182  0  0  0.480427  0  4.207835  0  0  0.511279  0  4.199511  0  0  0.208522  0.459755  0  4.21463  0
C  C35  1  0.43955515  0.99796385  0.53960549  1  0  0.519848  0  3.914115  0  0  0.48035  0  4.207824  0  0  0.511201  0  4.19951  0  0  0.208555  0.45968  0  4.214615  0
C  C36  1  0.64606663  0.71261583  0.77719053  1  0  0.265542  0  3.72912  0  0  0.214895  0  4.016899  0  0  0.227986  0  4.030223  0  0  0.163103  0.206377  0  4.007765  0
C  C37  1  0.14607216  0.71262146  0.72280995  1  0  0.265608  0  3.729036  0  0  0.214966  0  4.016799  0  0  0.228059  0  4.030114  0  0  0.163186  0.206447  0  4.007666  0
C  C38  1  0.35393437  0.28738236  0.22281164  1  0  0.265608  0  3.729043  0  0  0.214941  0  4.016803  0  0  0.228031  0  4.030128  0  0  0.163165  0.206423  0  4.007668  0
C  C39  1  0.85393629  0.28738301  0.27719223  1  0  0.265622  0  3.729099  0  0  0.214986  0  4.016861  0  0  0.228075  0  4.030191  0  0  0.163149  0.206465  0  4.00773  0
C  C40  1  0.44069446  0.45521185  0.77865518  1  0  0.308754  0  3.826328  0  0  0.286788  0  4.093631  0  0  0.299086  0  4.112423  0  0  0.219719  0.279143  0  4.081155  0
C  C41  1  0.94070280  0.45521959  0.72134778  1  0  0.308765  0  3.826224  0  0  0.286779  0  4.093539  0  0  0.299057  0  4.112363  0  0  0.219721  0.279127  0  4.081061  0
C  C42  1  0.55930537  0.54478255  0.22134951  1  0  0.308739  0  3.826284  0  0  0.28663  0  4.093721  0  0  0.29893  0  4.112514  0  0  0.219702  0.278987  0  4.081239  0
C  C43  1  0.05930290  0.54478490  0.27865440  1  0  0.308784  0  3.826293  0  0  0.286755  0  4.093645  0  0  0.299055  0  4.112431  0  0  0.219712  0.279112  0  4.081166  0
C  C44  1  0.42403058  0.46061023  0.68991251  1  0  0.068319  0  3.77396  0  0  0.063382  0  4.01903  0  0  0.061282  0  4.041344  0  0  0.104278  0.064239  0  4.004495  0
C  C45  1  0.92403445  0.46061746  0.81009047  1  0  0.068226  0  3.774044  0  0  0.063382  0  4.019025  0  0  0.061292  0  4.041337  0  0  0.104198  0.064237  0  4.004486  0
C  C46  1  0.57597533  0.53939047  0.31009029  1  0  0.068287  0  3.773916  0  0  0.063538  0  4.018831  0  0  0.061443  0  4.041133  0  0  0.104267  0.064393  0  4.004291  0
C  C47  1  0.07597025  0.53938830  0.18991171  1  0  0.068382  0  3.773982  0  0  0.063578  0  4.018892  0  0  0.061478  0  4.041204  0  0  0.104308  0.064434  0  4.004355  0
C  C48  1  0.53222455  0.60103434  0.64705240  1  0  0.124145  0  3.630943  0  0  0.086637  0  3.885418  0  0  0.09648  0  3.897197  0  0  0.071348  0.079985  0  3.878121  0
C  C49  1  0.03222466  0.60104109  0.85294851  1  0  0.124089  0  3.630919  0  0  0.086509  0  3.885408  0  0  0.096353  0  3.897185  0  0  0.071279  0.079856  0  3.87811  0
C  C50  1  0.46778273  0.39896634  0.35294915  1  0  0.124299  0  3.630783  0  0  0.086673  0  3.885322  0  0  0.096515  0  3.897103  0  0  0.071424  0.080025  0  3.878017  0
C  C51  1  0.96777768  0.39896595  0.14705366  1  0  0.124105  0  3.631126  0  0  0.086553  0  3.885571  0  0  0.096397  0  3.897353  0  0  0.071316  0.079903  0  3.878269  0
C  C52  1  0.24072353  0.22191831  0.73864403  1  0  0.30773  0  3.567096  0  0  0.242686  0  3.847755  0  0  0.26125  0  3.855405  0  0  0.179906  0.231181  0  3.842455  0
C  C53  1  0.74073348  0.22192258  0.76135662  1  0  0.307826  0  3.567193  0  0  0.242765  0  3.847885  0  0  0.26138  0  3.855564  0  0  0.179988  0.231251  0  3.842578  0
C  C54  1  0.75927489  0.77808496  0.26135626  1  0  0.307857  0  3.567153  0  0  0.242848  0  3.847852  0  0  0.261397  0  3.855503  0  0  0.179962  0.231339  0  3.842542  0
C  C55  1  0.25927260  0.77808318  0.23864556  1  0  0.307781  0  3.567297  0  0  0.242801  0  3.847977  0  0  0.261356  0  3.85562  0  0  0.179948  0.231294  0  3.842668  0
N  N56  1  0.64419283  0.72673989  0.69246279  1  0  -0.354294  0  3.13332  0  0  -0.292826  0  3.389371  0  0  -0.311133  0  3.4053  0  0  -0.309226  -0.280683  0  3.378653  0
N  N57  1  0.14419979  0.72674621  0.80753709  1  0  -0.354187  0  3.133258  0  0  -0.292724  0  3.389338  0  0  -0.311033  0  3.405271  0  0  -0.309139  -0.28058  0  3.378621  0
N  N58  1  0.35581071  0.27326208  0.30753938  1  0  -0.354378  0  3.133241  0  0  -0.292854  0  3.389316  0  0  -0.311166  0  3.405254  0  0  -0.309277  -0.280708  0  3.378598  0
N  N59  1  0.85580629  0.27325954  0.19246383  1  0  -0.354279  0  3.133293  0  0  -0.292815  0  3.389346  0  0  -0.311124  0  3.405279  0  0  -0.309185  -0.280668  0  3.378629  0
N  N60  1  0.55011713  0.58200156  0.82361165  1  0  -0.371438  0  3.039827  0  0  -0.335207  0  3.314748  0  0  -0.351392  0  3.330282  0  0  -0.305292  -0.324996  0  3.304628  0
N  N61  1  0.05012538  0.58200679  0.67638984  1  0  -0.371424  0  3.039822  0  0  -0.33527  0  3.314839  0  0  -0.351449  0  3.330383  0  0  -0.305343  -0.32506  0  3.304719  0
N  N62  1  0.44988289  0.41799790  0.17639178  1  0  -0.371471  0  3.03963  0  0  -0.335281  0  3.314711  0  0  -0.351464  0  3.33024  0  0  -0.305368  -0.325062  0  3.304588  0
N  N63  1  0.94988169  0.41799769  0.32361233  1  0  -0.371528  0  3.039898  0  0  -0.3353  0  3.314845  0  0  -0.351486  0  3.330378  0  0  -0.305344  -0.325079  0  3.304721  0
N  N64  1  0.29555614  0.31140814  0.66742602  1  0  -0.304797  0  3.375562  0  0  -0.240195  0  3.603874  0  0  -0.258014  0  3.617403  0  0  -0.362165  -0.228422  0  3.594839  0
N  N65  1  0.79556239  0.31141428  0.83257479  1  0  -0.304825  0  3.375606  0  0  -0.240262  0  3.603942  0  0  -0.258066  0  3.617418  0  0  -0.362142  -0.228484  0  3.594913  0
N  N66  1  0.70444388  0.68859133  0.33257364  1  0  -0.304924  0  3.375553  0  0  -0.240334  0  3.60378  0  0  -0.258157  0  3.617319  0  0  -0.362195  -0.228562  0  3.59477  0
N  N67  1  0.20444192  0.68859022  0.16742675  1  0  -0.304957  0  3.375531  0  0  -0.24037  0  3.603771  0  0  -0.258193  0  3.617307  0  0  -0.362209  -0.228603  0  3.594764  0
N  N68  1  0.32622313  0.30241591  0.80722350  1  0  -0.443487  0  3.200771  0  0  -0.399297  0  3.515452  0  0  -0.419542  0  3.522674  0  0  -0.364937  -0.388491  0  3.512445  0
N  N69  1  0.82623084  0.30242595  0.69277854  1  0  -0.443538  0  3.200912  0  0  -0.399305  0  3.515539  0  0  -0.419558  0  3.522774  0  0  -0.364932  -0.388495  0  3.512539  0
N  N70  1  0.67377516  0.69757344  0.19278056  1  0  -0.443581  0  3.201001  0  0  -0.399323  0  3.515626  0  0  -0.419578  0  3.522872  0  0  -0.364936  -0.388519  0  3.512644  0
N  N71  1  0.17377584  0.69757727  0.30722175  1  0  -0.44344  0  3.201054  0  0  -0.399258  0  3.515722  0  0  -0.419493  0  3.522924  0  0  -0.364894  -0.388444  0  3.512726  0
O  O72  1  0.24997230  0.44681833  0.98408599  1  0  -0.553479  0  2.012129  0  0  -0.53946  0  2.273826  0  0  -0.564941  0  2.264254  0  0  -0.300951  -0.517771  0  2.277889  0
O  O73  1  0.75000509  0.44681916  0.51591765  1  0  -0.553632  0  2.012184  0  0  -0.539532  0  2.273857  0  0  -0.565019  0  2.264253  0  0  -0.300956  -0.517854  0  2.277936  0
O  O74  1  0.74996544  0.55317139  0.01591619  1  0  -0.553481  0  2.012209  0  0  -0.539434  0  2.273867  0  0  -0.56491  0  2.26428  0  0  -0.300925  -0.517754  0  2.277937  0
O  O75  1  0.25000103  0.55317774  0.48408515  1  0  -0.553589  0  2.012228  0  0  -0.539518  0  2.273864  0  0  -0.56501  0  2.264325  0  0  -0.300981  -0.517821  0  2.277935  0
O  O76  1  0.44160173  0.68618939  0.03497440  1  0  -0.568648  0  2.118133  0  0  -0.530993  0  2.386314  0  0  -0.560586  0  2.374758  0  0  -0.316403  -0.510237  0  2.393917  0
O  O77  1  0.94164566  0.68618882  0.46502024  1  0  -0.568682  0  2.118248  0  0  -0.531038  0  2.386568  0  0  -0.560619  0  2.374998  0  0  -0.316265  -0.510269  0  2.394171  0
O  O78  1  0.55831279  0.31380552  0.96500829  1  0  -0.568695  0  2.118194  0  0  -0.531073  0  2.386484  0  0  -0.560649  0  2.374939  0  0  -0.316347  -0.510299  0  2.394052  0
O  O79  1  0.05835401  0.31380053  0.53498193  1  0  -0.568643  0  2.118055  0  0  -0.53102  0  2.386336  0  0  -0.560621  0  2.3748  0  0  -0.316291  -0.510255  0  2.393923  0
O  O80  1  0.23511356  0.08283043  0.03530763  1  0  -0.508526  0  2.094378  0  0  -0.463625  0  2.344904  0  0  -0.486006  0  2.333539  0  0  -0.276939  -0.452106  0  2.354609  0
O  O81  1  0.73511074  0.08282128  0.46468704  1  0  -0.508772  0  2.093936  0  0  -0.463912  0  2.344464  0  0  -0.486323  0  2.333124  0  0  -0.277085  -0.452403  0  2.35418  0
O  O82  1  0.76490056  0.91717907  0.96467569  1  0  -0.508921  0  2.093825  0  0  -0.464068  0  2.344288  0  0  -0.486469  0  2.332938  0  0  -0.277084  -0.452549  0  2.354004  0
O  O83  1  0.26489577  0.91717688  0.53531576  1  0  -0.508851  0  2.094072  0  0  -0.463965  0  2.344588  0  0  -0.486352  0  2.333221  0  0  -0.277095  -0.452434  0  2.354297  0
O  O84  1  0.97800355  0.92498485  0.10374698  1  0  -0.50626  0  2.078503  0  0  -0.475894  0  2.345363  0  0  -0.498706  0  2.335555  0  0  -0.285134  -0.46314  0  2.353384  0
O  O85  1  0.47798859  0.92498318  0.39625257  1  0  -0.506282  0  2.0788  0  0  -0.475903  0  2.345655  0  0  -0.498693  0  2.335818  0  0  -0.285191  -0.463141  0  2.35368  0
O  O86  1  0.02203577  0.07501691  0.89625143  1  0  -0.506209  0  2.079118  0  0  -0.475811  0  2.346006  0  0  -0.498618  0  2.336196  0  0  -0.285143  -0.463037  0  2.354006  0
O  O87  1  0.52202716  0.07501366  0.60374709  1  0  -0.506264  0  2.078809  0  0  -0.475871  0  2.345707  0  0  -0.498695  0  2.335908  0  0  -0.285206  -0.463111  0  2.353715  0
O  O88  1  0.43327387  0.98159330  0.87146868  1  0  -0.844823  0  1.871791  0  0  -0.807864  0  2.072118  0  0  -0.825535  0  2.038222  0  0  -0.599696  -0.793976  0  2.094362  0
O  O89  1  0.93326782  0.98159403  0.62852913  1  0  -0.844834  0  1.871873  0  0  -0.807871  0  2.072193  0  0  -0.825568  0  2.03828  0  0  -0.599688  -0.793995  0  2.094443  0
O  O90  1  0.56673638  0.01840357  0.12852720  1  0  -0.844853  0  1.871773  0  0  -0.80789  0  2.072102  0  0  -0.825592  0  2.038214  0  0  -0.599658  -0.794001  0  2.094343  0
O  O91  1  0.06673710  0.01840794  0.37147242  1  0  -0.844858  0  1.871781  0  0  -0.807892  0  2.072125  0  0  -0.825559  0  2.038203  0  0  -0.599641  -0.793992  0  2.094364  0
