# generated using pymatgen
data_LiH4C6NO3
_symmetry_space_group_name_H-M   'P 1'
_cell_length_a   8.70704181
_cell_length_b   9.02210027
_cell_length_c   10.32356858
_cell_angle_alpha   67.26565424
_cell_angle_beta   65.05229990
_cell_angle_gamma   61.15557513
_symmetry_Int_Tables_number   1
_chemical_formula_structural   LiH4C6NO3
_chemical_formula_sum   'Li4 H16 C24 N4 O12'
_cell_volume   626.75306112
_cell_formula_units_Z   4
loop_
 _symmetry_equiv_pos_site_id
 _symmetry_equiv_pos_as_xyz
  1  'x, y, z'
loop_
 _atom_site_type_symbol
 _atom_site_label
 _atom_site_symmetry_multiplicity
 _atom_site_fract_x
 _atom_site_fract_y
 _atom_site_fract_z
 _atom_site_occupancy
 _atom_site_hle17_bader_spin_density
 _atom_site_hle17_ddec_charge
 _atom_site_hle17_ddec_spin_density
 _atom_site_hle17_ddec_sum_bond_order
 _atom_site_hle17_magmom
 _atom_site_hse06_10hf_bader_spin_density
 _atom_site_hse06_10hf_ddec_charge
 _atom_site_hse06_10hf_ddec_spin_density
 _atom_site_hse06_10hf_ddec_sum_bond_order
 _atom_site_hse06_10hf_magmom
 _atom_site_hse06_bader_spin_density
 _atom_site_hse06_ddec_charge
 _atom_site_hse06_ddec_spin_density
 _atom_site_hse06_ddec_sum_bond_order
 _atom_site_hse06_magmom
 _atom_site_pbe_bader_spin_density
 _atom_site_pbe_cm5_charge
 _atom_site_pbe_ddec_charge
 _atom_site_pbe_ddec_spin_density
 _atom_site_pbe_ddec_sum_bond_order
 _atom_site_pbe_magmom
Li  Li0  1  0.11970280  0.84141485  0.55565782  1  0  0.852276  0  0.411261  0  0  0.81013  0  0.523636  0  0  0.820268  0  0.505594  0  0  0.511321  0.802782  0  0.536614  0
Li  Li1  1  0.01678772  0.65860156  0.94434400  1  0  0.852322  0  0.411094  0  0  0.810205  0  0.523258  0  0  0.820327  0  0.505238  0  0  0.510962  0.80279  0  0.536372  0
Li  Li2  1  0.88029973  0.15858467  0.44434013  1  0  0.852268  0  0.411277  0  0  0.810122  0  0.523648  0  0  0.820261  0  0.505604  0  0  0.511312  0.802774  0  0.536626  0
Li  Li3  1  0.98321681  0.34139666  0.05565652  1  0  0.852317  0  0.411094  0  0  0.810166  0  0.523315  0  0  0.82029  0  0.505294  0  0  0.510945  0.802752  0  0.536429  0
H  H4  1  0.31270225  0.34189413  0.11371973  1  0  0.113543  0  0.921068  0  0  0.124884  0  0.978617  0  0  0.128156  0  0.975551  0  0  0.142646  0.122522  0  0.980855  0
H  H5  1  0.26828804  0.15812602  0.38628264  1  0  0.113007  0  0.922675  0  0  0.124428  0  0.980015  0  0  0.127604  0  0.977093  0  0  0.14261  0.122264  0  0.981925  0
H  H6  1  0.68730519  0.65809888  0.88628225  1  0  0.113532  0  0.921107  0  0  0.124918  0  0.978609  0  0  0.128156  0  0.975582  0  0  0.142653  0.122556  0  0.980845  0
H  H7  1  0.73171158  0.84187350  0.61371821  1  0  0.113063  0  0.922618  0  0  0.124468  0  0.979971  0  0  0.127645  0  0.977046  0  0  0.142621  0.122302  0  0.981883  0
H  H8  1  0.71703783  0.35708622  0.60653060  1  0  0.117237  0  0.995892  0  0  0.12399  0  1.059393  0  0  0.12863  0  1.055881  0  0  0.120666  0.120652  0  1.062031  0
H  H9  1  0.18060404  0.14296185  0.89342994  1  0  0.116432  0  0.995758  0  0  0.12322  0  1.059489  0  0  0.12789  0  1.055945  0  0  0.120531  0.120086  0  1.061746  0
H  H10  1  0.28296425  0.64291199  0.39346857  1  0  0.117286  0  0.995879  0  0  0.124027  0  1.059387  0  0  0.128666  0  1.055876  0  0  0.120678  0.120689  0  1.062024  0
H  H11  1  0.81939654  0.85703767  0.10656995  1  0  0.116407  0  0.995752  0  0  0.123191  0  1.059494  0  0  0.127862  0  1.055949  0  0  0.120504  0.120058  0  1.06175  0
H  H12  1  0.45694342  0.62422480  0.68911588  1  0  0.120875  0  0.974366  0  0  0.12586  0  1.041282  0  0  0.130995  0  1.036771  0  0  0.132652  0.122136  0  1.044554  0
H  H13  1  0.27025734  0.87581610  0.81086368  1  0  0.121383  0  0.974273  0  0  0.125969  0  1.041596  0  0  0.13108  0  1.037154  0  0  0.1327  0.122251  0  1.04487  0
H  H14  1  0.54305807  0.37577211  0.31088593  1  0  0.120864  0  0.974357  0  0  0.125829  0  1.041306  0  0  0.130962  0  1.036797  0  0  0.132654  0.122106  0  1.044577  0
H  H15  1  0.72974228  0.12418341  0.18913717  1  0  0.121375  0  0.974292  0  0  0.125955  0  1.041617  0  0  0.131066  0  1.037175  0  0  0.132699  0.122237  0  1.044892  0
H  H16  1  0.56675590  0.06058725  0.04880869  1  0  0.10946  0  0.958606  0  0  0.119005  0  1.019642  0  0  0.121161  0  1.019816  0  0  0.115195  0.117376  0  1.019796  0
H  H17  1  0.17609606  0.43948672  0.45115455  1  0  0.109109  0  0.959219  0  0  0.119134  0  1.019784  0  0  0.121372  0  1.019837  0  0  0.115364  0.117472  0  1.019985  0
H  H18  1  0.43324969  0.93940707  0.95118930  1  0  0.109484  0  0.95859  0  0  0.119012  0  1.019644  0  0  0.121167  0  1.019821  0  0  0.115198  0.117384  0  1.019797  0
H  H19  1  0.82390453  0.56051279  0.54884534  1  0  0.109109  0  0.959223  0  0  0.119146  0  1.019777  0  0  0.121376  0  1.019841  0  0  0.115363  0.117484  0  1.019976  0
C  C20  1  0.41055991  0.33374129  0.00546321  1  0  0.009484  0  3.58762  0  0  -0.036336  0  3.857863  0  0  -0.029976  0  3.86897  0  0  0.050513  -0.040334  0  3.850427  0
C  C21  1  0.24970464  0.16632188  0.49452398  1  0  0.010498  0  3.588234  0  0  -0.035018  0  3.857908  0  0  -0.028596  0  3.869046  0  0  0.051069  -0.038985  0  3.8503  0
C  C22  1  0.58944485  0.66625432  0.99453736  1  0  0.009466  0  3.587716  0  0  -0.036406  0  3.857982  0  0  -0.030023  0  3.869101  0  0  0.050493  -0.040404  0  3.850546  0
C  C23  1  0.75029498  0.83367764  0.50547687  1  0  0.010452  0  3.588213  0  0  -0.035029  0  3.857857  0  0  -0.028608  0  3.868995  0  0  0.051075  -0.038997  0  3.85025  0
C  C24  1  0.66556067  0.18532763  0.82249324  1  0  -0.038227  0  3.705522  0  0  -0.024477  0  3.940212  0  0  -0.02691  0  3.95897  0  0  -0.000934  -0.022658  0  3.927406  0
C  C25  1  0.17331408  0.31474414  0.67748232  1  0  -0.037837  0  3.705566  0  0  -0.02381  0  3.940129  0  0  -0.026292  0  3.958936  0  0  -0.00088  -0.021904  0  3.927265  0
C  C26  1  0.33444149  0.81466799  0.17750740  1  0  -0.038261  0  3.705533  0  0  -0.024512  0  3.940228  0  0  -0.026943  0  3.958984  0  0  -0.000978  -0.022692  0  3.927421  0
C  C27  1  0.82668785  0.68525408  0.32251826  1  0  -0.037812  0  3.705562  0  0  -0.023786  0  3.940116  0  0  -0.026263  0  3.958915  0  0  -0.000868  -0.02188  0  3.927254  0
C  C28  1  0.82031643  0.02171638  0.77959638  1  0  0.703704  0  3.901524  0  0  0.65951  0  4.1959  0  0  0.692132  0  4.184834  0  0  0.233007  0.637471  0  4.20271  0
C  C29  1  0.12173071  0.47829765  0.72039720  1  0  0.702669  0  3.903216  0  0  0.658529  0  4.19754  0  0  0.691157  0  4.186472  0  0  0.232648  0.636432  0  4.204458  0
C  C30  1  0.17968811  0.97828053  0.22040110  1  0  0.703818  0  3.901537  0  0  0.659631  0  4.195893  0  0  0.692252  0  4.184823  0  0  0.233083  0.637591  0  4.202705  0
C  C31  1  0.87826987  0.52170187  0.27960268  1  0  0.702679  0  3.903197  0  0  0.658559  0  4.197495  0  0  0.691185  0  4.186422  0  0  0.232659  0.636462  0  4.204415  0
C  C32  1  0.63296531  0.34596079  0.72084552  1  0  -0.091186  0  3.720089  0  0  -0.109526  0  3.964503  0  0  -0.112203  0  3.981988  0  0  -0.062536  -0.108051  0  3.952904  0
C  C33  1  0.19968338  0.15410786  0.77912475  1  0  -0.090143  0  3.720678  0  0  -0.10889  0  3.965303  0  0  -0.111522  0  3.982713  0  0  -0.062166  -0.107252  0  3.953337  0
C  C34  1  0.36703552  0.65403612  0.27915441  1  0  -0.091333  0  3.72015  0  0  -0.109658  0  3.964584  0  0  -0.112335  0  3.982065  0  0  -0.062603  -0.108183  0  3.952987  0
C  C35  1  0.80031803  0.84589166  0.22087559  1  0  -0.090151  0  3.720744  0  0  -0.108909  0  3.965373  0  0  -0.111541  0  3.98278  0  0  -0.062122  -0.107271  0  3.953407  0
C  C36  1  0.49351228  0.49546220  0.76280307  1  0  -0.006569  0  3.575593  0  0  -0.045598  0  3.832643  0  0  -0.041319  0  3.844804  0  0  0.042892  -0.048107  0  3.824501  0
C  C37  1  0.25171899  0.00458616  0.73717837  1  0  -0.007518  0  3.575645  0  0  -0.046139  0  3.832776  0  0  -0.04185  0  3.844884  0  0  0.043567  -0.048785  0  3.824756  0
C  C38  1  0.50649085  0.50453341  0.23719660  1  0  -0.006415  0  3.575507  0  0  -0.045441  0  3.832565  0  0  -0.041163  0  3.84473  0  0  0.042951  -0.047952  0  3.824425  0
C  C39  1  0.74828063  0.99541336  0.26282249  1  0  -0.007463  0  3.575694  0  0  -0.046068  0  3.832816  0  0  -0.041778  0  3.844922  0  0  0.04357  -0.048714  0  3.824798  0
C  C40  1  0.54929827  0.18263674  0.96644141  1  0  -0.081902  0  3.73534  0  0  -0.103539  0  3.989542  0  0  -0.105907  0  4.008384  0  0  -0.063488  -0.102147  0  3.976992  0
C  C41  1  0.19826647  0.31746122  0.53354100  1  0  -0.082635  0  3.735881  0  0  -0.104828  0  3.989788  0  0  -0.107246  0  4.008588  0  0  -0.064529  -0.103531  0  3.977333  0
C  C42  1  0.45070322  0.81735887  0.03355736  1  0  -0.081905  0  3.735289  0  0  -0.103526  0  3.989514  0  0  -0.105893  0  4.008345  0  0  -0.063465  -0.102134  0  3.976963  0
C  C43  1  0.80173330  0.68253830  0.46645843  1  0  -0.082638  0  3.735921  0  0  -0.104862  0  3.989833  0  0  -0.107272  0  4.008637  0  0  -0.06455  -0.103561  0  3.977375  0
N  N44  1  0.38475942  0.48902936  0.90475201  1  0  0.289374  0  3.753369  0  0  0.343389  0  4.01897  0  0  0.344776  0  4.041058  0  0  -0.108955  0.34189  0  4.004017  0
N  N45  1  0.27848284  0.01102517  0.59523274  1  0  0.289656  0  3.751986  0  0  0.343678  0  4.017179  0  0  0.345088  0  4.0392  0  0  -0.108986  0.342165  0  4.002337  0
N  N46  1  0.61524519  0.51096625  0.09524998  1  0  0.289331  0  3.753326  0  0  0.343352  0  4.018929  0  0  0.344739  0  4.041006  0  0  -0.108942  0.341854  0  4.003977  0
N  N47  1  0.72151731  0.98897304  0.40476837  1  0  0.289636  0  3.752042  0  0  0.343637  0  4.017236  0  0  0.345047  0  4.039259  0  0  -0.108986  0.342123  0  4.002396  0
O  O48  1  0.90466953  0.02839536  0.64329545  1  0  -0.785019  0  2.002842  0  0  -0.743709  0  2.254788  0  0  -0.763243  0  2.239735  0  0  -0.435193  -0.730247  0  2.264584  0
O  O49  1  0.07651009  0.47157772  0.85670228  1  0  -0.78422  0  2.002908  0  0  -0.742762  0  2.25406  0  0  -0.762227  0  2.238967  0  0  -0.434515  -0.729328  0  2.264182  0
O  O50  1  0.09533383  0.97160286  0.35669991  1  0  -0.785092  0  2.002909  0  0  -0.743762  0  2.254804  0  0  -0.763307  0  2.239776  0  0  -0.435214  -0.730312  0  2.264631  0
O  O51  1  0.92349310  0.52842179  0.14329753  1  0  -0.784231  0  2.002931  0  0  -0.742748  0  2.254016  0  0  -0.762239  0  2.23898  0  0  -0.434513  -0.729314  0  2.264139  0
O  O52  1  0.85710481  0.88805677  0.88186461  1  0  -0.71363  0  1.955133  0  0  -0.671324  0  2.195094  0  0  -0.691678  0  2.181075  0  0  -0.386527  -0.657408  0  2.204254  0
O  O53  1  0.12721329  0.61195091  0.61815035  1  0  -0.713671  0  1.955886  0  0  -0.671562  0  2.195797  0  0  -0.691853  0  2.181724  0  0  -0.386825  -0.657366  0  2.205087  0
O  O54  1  0.14290248  0.11194015  0.11813139  1  0  -0.713635  0  1.955154  0  0  -0.671333  0  2.195133  0  0  -0.691684  0  2.18111  0  0  -0.386512  -0.657415  0  2.204296  0
O  O55  1  0.87278961  0.38804731  0.38184927  1  0  -0.713678  0  1.955883  0  0  -0.671584  0  2.195792  0  0  -0.691875  0  2.181721  0  0  -0.386837  -0.657386  0  2.205082  0
O  O56  1  0.25371067  0.63175394  0.94373150  1  0  -0.599487  0  1.732879  0  0  -0.57216  0  1.960729  0  0  -0.594884  0  1.961214  0  0  -0.291043  -0.556075  0  1.960103  0
O  O57  1  0.32916897  0.86827623  0.55626770  1  0  -0.598975  0  1.731793  0  0  -0.572244  0  1.960362  0  0  -0.594904  0  1.960747  0  0  -0.291771  -0.556099  0  1.95973  0
O  O58  1  0.74629349  0.36824038  0.05627171  1  0  -0.599492  0  1.732802  0  0  -0.572147  0  1.96064  0  0  -0.59487  0  1.961122  0  0  -0.291084  -0.556061  0  1.960014  0
O  O59  1  0.67083214  0.13172198  0.44373243  1  0  -0.598993  0  1.731859  0  0  -0.572255  0  1.960433  0  0  -0.594907  0  1.960804  0  0  -0.291784  -0.556109  0  1.9598  0
