# generated using pymatgen
data_ZnH15C20N3O5
_symmetry_space_group_name_H-M   'P 1'
_cell_length_a   8.80336376
_cell_length_b   9.06204897
_cell_length_c   12.63307871
_cell_angle_alpha   102.51462704
_cell_angle_beta   107.16772676
_cell_angle_gamma   89.70056338
_symmetry_Int_Tables_number   1
_chemical_formula_structural   ZnH15C20N3O5
_chemical_formula_sum   'Zn2 H30 C40 N6 O10'
_cell_volume   938.17540676
_cell_formula_units_Z   2
loop_
 _symmetry_equiv_pos_site_id
 _symmetry_equiv_pos_as_xyz
  1  'x, y, z'
loop_
 _atom_site_type_symbol
 _atom_site_label
 _atom_site_symmetry_multiplicity
 _atom_site_fract_x
 _atom_site_fract_y
 _atom_site_fract_z
 _atom_site_occupancy
 _atom_site_pbe_bader_spin_density
 _atom_site_pbe_cm5_charge
 _atom_site_pbe_ddec_charge
 _atom_site_pbe_ddec_spin_density
 _atom_site_pbe_ddec_sum_bond_order
 _atom_site_pbe_magmom
Zn  Zn0  1  0.56871831  0.83472787  0.70816517  1  0  0.691939  0.876502  0  2.316  0
Zn  Zn1  1  0.43128235  0.16526863  0.29183275  1  0  0.691949  0.876508  0  2.316026  0
H  H2  1  0.54489438  0.16119716  0.68818051  1  0  0.127874  0.101855  0  0.972031  0
H  H3  1  0.45510191  0.83880502  0.31181584  1  0  0.127889  0.101871  0  0.972005  0
H  H4  1  0.44199788  0.39551951  0.77985781  1  0  0.114828  0.13025  0  1.003248  0
H  H5  1  0.55800305  0.60448039  0.22014227  1  0  0.114836  0.130288  0  1.00321  0
H  H6  1  0.29405871  0.12937825  0.98307132  1  0  0.11545  0.13161  0  1.020903  0
H  H7  1  0.70594432  0.87061823  0.01692627  1  0  0.115437  0.131583  0  1.020988  0
H  H8  1  0.40006155  0.90547069  0.87997348  1  0  0.117863  0.088672  0  1.021962  0
H  H9  1  0.59994528  0.09452918  0.12002461  1  0  0.117878  0.088669  0  1.021979  0
H  H10  1  0.13490197  0.55980777  0.22479950  1  0  0.106172  0.118006  0  1.009051  0
H  H11  1  0.86509542  0.44019215  0.77520146  1  0  0.106202  0.118059  0  1.009046  0
H  H12  1  0.03695353  0.82093834  0.23240587  1  0  0.097267  0.097996  0  1.024307  0
H  H13  1  0.96304648  0.17906497  0.76759614  1  0  0.097282  0.098  0  1.024314  0
H  H14  1  0.04586193  0.95982138  0.08751706  1  0  0.099243  0.099767  0  1.03884  0
H  H15  1  0.95414168  0.04018304  0.91248268  1  0  0.099256  0.099822  0  1.038818  0
H  H16  1  0.14727704  0.84472730  0.92423897  1  0  0.10701  0.126205  0  1.011114  0
H  H17  1  0.85272238  0.15526808  0.07576012  1  0  0.107007  0.126196  0  1.011102  0
H  H18  1  0.70647698  0.00013626  0.46102329  1  0  0.100409  0.102874  0  1.030511  0
H  H19  1  0.29352877  0.99986475  0.53897714  1  0  0.100404  0.102853  0  1.030545  0
H  H20  1  0.16253977  0.90916254  0.66755526  1  0  0.09661  0.09344  0  1.051649  0
H  H21  1  0.83746473  0.09083734  0.33244553  1  0  0.09661  0.093458  0  1.051645  0
H  H22  1  0.18927305  0.60884872  0.42110151  1  0  0.104636  0.108322  0  1.010846  0
H  H23  1  0.81072182  0.39114895  0.57889939  1  0  0.104649  0.108361  0  1.010874  0
H  H24  1  0.07577865  0.50949453  0.70708124  1  0  0.099651  0.091202  0  1.046198  0
H  H25  1  0.92421738  0.49050313  0.29291831  1  0  0.099634  0.091212  0  1.046129  0
H  H26  1  0.29340768  0.57507059  0.84417129  1  0  0.303188  0.294637  0  1.013895  0
H  H27  1  0.70659078  0.42492819  0.15582733  1  0  0.303199  0.294634  0  1.013885  0
H  H28  1  0.83444772  0.79303296  0.80692264  1  0  0.284505  0.375877  0  0.974098  0
H  H29  1  0.16555311  0.20696580  0.19307566  1  0  0.284507  0.375877  0  0.974096  0
H  H30  1  0.73993588  0.70233958  0.87819984  1  0  0.27887  0.350709  0  1.013558  0
H  H31  1  0.26006496  0.29765919  0.12179926  1  0  0.278881  0.350695  0  1.013573  0
C  C32  1  0.48752313  0.15956571  0.75354431  1  0  0.058985  0.10591  0  3.936811  0
C  C33  1  0.51247778  0.84043418  0.24645419  1  0  0.058962  0.105922  0  3.936845  0
C  C34  1  0.43009442  0.28976558  0.80539751  1  0  -0.071998  -0.150895  0  3.894897  0
C  C35  1  0.56990302  0.71023547  0.19460126  1  0  -0.071979  -0.1509  0  3.894939  0
C  C36  1  0.36010165  0.28251431  0.89097006  1  0  0.019579  0.068116  0  3.986128  0
C  C37  1  0.63990055  0.71748672  0.10903045  1  0  0.019531  0.068065  0  3.98622  0
C  C38  1  0.34933373  0.14146593  0.91860591  1  0  -0.074442  -0.149447  0  3.903726  0
C  C39  1  0.65067067  0.85853283  0.08139389  1  0  -0.074396  -0.149391  0  3.903861  0
C  C40  1  0.40828506  0.01702060  0.86211167  1  0  0.047717  0.085936  0  3.960698  0
C  C41  1  0.59171578  0.98297816  0.13788742  1  0  0.047673  0.085904  0  3.960814  0
C  C42  1  0.29747601  0.41342743  0.95004503  1  0  0.220523  0.280514  0  4.027148  0
C  C43  1  0.70252128  0.58657135  0.04995415  1  0  0.220567  0.280521  0  4.027163  0
C  C44  1  0.19684602  0.55725989  0.07035497  1  0  0.085585  0.132929  0  4.082992  0
C  C45  1  0.80315384  0.44274115  0.92964745  1  0  0.08557  0.132886  0  4.083044  0
C  C46  1  0.13739812  0.62166119  0.16033233  1  0  -0.093095  -0.160207  0  3.980878  0
C  C47  1  0.86260800  0.37834435  0.83967124  1  0  -0.093122  -0.160212  0  3.980729  0
C  C48  1  0.08354053  0.76645626  0.16364639  1  0  -0.098674  -0.093195  0  4.021694  0
C  C49  1  0.91646168  0.23354477  0.83635412  1  0  -0.09867  -0.093173  0  4.021634  0
C  C50  1  0.08798226  0.84610353  0.07986237  1  0  -0.095238  -0.075158  0  3.999745  0
C  C51  1  0.91201893  0.15389977  0.92013908  1  0  -0.095259  -0.075274  0  3.999872  0
C  C52  1  0.14707794  0.78464816  0.99020270  1  0  -0.096837  -0.168219  0  3.960742  0
C  C53  1  0.85292300  0.21535174  0.00979817  1  0  -0.096856  -0.168221  0  3.960778  0
C  C54  1  0.20234209  0.63932698  0.98730088  1  0  0.0982  0.151888  0  4.0276  0
C  C55  1  0.79765877  0.36067180  0.01269981  1  0  0.098222  0.151936  0  4.027566  0
C  C56  1  0.84985421  0.89147112  0.64679762  1  0  0.209715  0.574956  0  4.195881  0
C  C57  1  0.15014783  0.10852764  0.35320251  1  0  0.209736  0.574992  0  4.195831  0
C  C58  1  0.92716753  0.94803721  0.57092715  1  0  -0.016606  -0.032088  0  3.969566  0
C  C59  1  0.07283587  0.05196381  0.42907439  1  0  -0.016628  -0.032074  0  3.96954  0
C  C60  1  0.83474149  0.99950770  0.47660398  1  0  -0.089118  -0.097205  0  3.97405  0
C  C61  1  0.16526310  0.00049332  0.52339780  1  0  -0.089114  -0.097196  0  3.97395  0
C  C62  1  0.09286643  0.94939361  0.59391813  1  0  -0.089009  -0.09812  0  3.989517  0
C  C63  1  0.90713697  0.05060741  0.40608341  1  0  -0.089031  -0.098207  0  3.989573  0
C  C64  1  0.30655517  0.64013045  0.64652399  1  0  0.210307  0.571305  0  4.202527  0
C  C65  1  0.69343866  0.35986949  0.35347706  1  0  0.210289  0.571364  0  4.202492  0
C  C66  1  0.14966354  0.56449702  0.57111088  1  0  -0.013578  -0.026689  0  3.958327  0
C  C67  1  0.85033012  0.43550065  0.42888900  1  0  -0.013564  -0.026661  0  3.958259  0
C  C68  1  0.10523030  0.56009267  0.45428462  1  0  -0.079042  -0.084001  0  3.95036  0
C  C69  1  0.89476243  0.43990841  0.54571639  1  0  -0.07903  -0.084035  0  3.950288  0
C  C70  1  0.04292864  0.50406647  0.61621760  1  0  -0.082314  -0.085505  0  3.969346  0
C  C71  1  0.95706544  0.49593687  0.38378402  1  0  -0.082306  -0.085571  0  3.969344  0
N  N72  1  0.47731729  0.02505483  0.78106764  1  0  -0.330736  -0.252236  0  3.581391  0
N  N73  1  0.52268234  0.97494393  0.21892963  1  0  -0.330751  -0.252282  0  3.581534  0
N  N74  1  0.25658950  0.41776434  0.04469627  1  0  -0.316585  -0.367775  0  3.30726  0
N  N75  1  0.74341143  0.58223556  0.95530381  1  0  -0.316599  -0.367791  0  3.30734  0
N  N76  1  0.26812129  0.54556307  0.91352023  1  0  -0.371142  -0.317876  0  3.582294  0
N  N77  1  0.73187726  0.45443685  0.08647938  1  0  -0.371155  -0.317866  0  3.582265  0
O  O78  1  0.69680557  0.89836066  0.62005072  1  0  -0.335773  -0.562673  0  2.311111  0
O  O79  1  0.30319661  0.10164036  0.37994821  1  0  -0.335799  -0.562712  0  2.311129  0
O  O80  1  0.73917789  0.78689633  0.83546398  1  0  -0.585918  -0.781185  0  2.280232  0
O  O81  1  0.26082285  0.21310130  0.16453334  1  0  -0.585941  -0.781186  0  2.280246  0
O  O82  1  0.93590982  0.84289276  0.72991941  1  0  -0.313855  -0.549096  0  2.192733  0
O  O83  1  0.06409213  0.15710487  0.27007973  1  0  -0.313846  -0.549081  0  2.192723  0
O  O84  1  0.39174957  0.70122910  0.59820160  1  0  -0.322464  -0.538591  0  2.305058  0
O  O85  1  0.60824538  0.29876971  0.40180029  1  0  -0.322395  -0.53858  0  2.305076  0
O  O86  1  0.35031692  0.64739204  0.75262149  1  0  -0.319683  -0.569255  0  2.217576  0
O  O87  1  0.64967803  0.35260676  0.24737961  1  0  -0.319749  -0.569322  0  2.217497  0
