# generated using pymatgen
data_ZnH22C24N2O5
_symmetry_space_group_name_H-M   'P 1'
_cell_length_a   8.91931445
_cell_length_b   10.18471370
_cell_length_c   12.96412428
_cell_angle_alpha   104.00217752
_cell_angle_beta   93.90146938
_cell_angle_gamma   95.89243463
_symmetry_Int_Tables_number   1
_chemical_formula_structural   ZnH22C24N2O5
_chemical_formula_sum   'Zn2 H44 C48 N4 O10'
_cell_volume   1131.36415774
_cell_formula_units_Z   2
loop_
 _symmetry_equiv_pos_site_id
 _symmetry_equiv_pos_as_xyz
  1  'x, y, z'
loop_
 _atom_site_type_symbol
 _atom_site_label
 _atom_site_symmetry_multiplicity
 _atom_site_fract_x
 _atom_site_fract_y
 _atom_site_fract_z
 _atom_site_occupancy
 _atom_site_pbe_bader_spin_density
 _atom_site_pbe_cm5_charge
 _atom_site_pbe_ddec_charge
 _atom_site_pbe_ddec_spin_density
 _atom_site_pbe_ddec_sum_bond_order
 _atom_site_pbe_magmom
Zn  Zn0  1  0.54607867  0.75294557  0.68403115  1  0  0.675302  0.809767  0  2.309835  0
Zn  Zn1  1  0.45392372  0.24706037  0.31596341  1  0  0.675327  0.809821  0  2.309813  0
H  H2  1  0.55371519  0.64889444  0.46189622  1  0  0.289661  0.391052  0  0.949408  0
H  H3  1  0.44626261  0.35111255  0.53809513  1  0  0.289642  0.39102  0  0.949487  0
H  H4  1  0.57390077  0.81180653  0.49919148  1  0  0.314519  0.398975  0  0.893974  0
H  H5  1  0.42607184  0.18820353  0.50079947  1  0  0.314608  0.398999  0  0.894045  0
H  H6  1  0.51624204  0.25842569  0.67327507  1  0  0.10536  0.10145  0  1.049734  0
H  H7  1  0.48374352  0.74157203  0.32672096  1  0  0.105296  0.101392  0  1.049929  0
H  H8  1  0.91844245  0.09462182  0.75184256  1  0  0.100394  0.102587  0  1.045509  0
H  H9  1  0.08154618  0.90538207  0.24815174  1  0  0.10044  0.102658  0  1.045389  0
H  H10  1  0.93314076  0.52558542  0.76971233  1  0  0.100299  0.099737  0  1.039792  0
H  H11  1  0.06685182  0.47441430  0.23028673  1  0  0.100308  0.099763  0  1.039731  0
H  H12  1  0.32377964  0.42632482  0.74674075  1  0  0.086216  0.128569  0  1.014419  0
H  H13  1  0.67622785  0.57365260  0.25324682  1  0  0.08616  0.128559  0  1.01437  0
H  H14  1  0.15805169  0.49315451  0.71110904  1  0  0.08039  0.109701  0  1.040992  0
H  H15  1  0.84194679  0.50683111  0.28887667  1  0  0.080424  0.109701  0  1.041033  0
H  H16  1  0.19308881  0.32794883  0.64093771  1  0  0.086521  0.124305  0  1.0111  0
H  H17  1  0.80689974  0.67202137  0.35905296  1  0  0.086552  0.124259  0  1.011263  0
H  H18  1  0.13776674  0.15483086  0.86243789  1  0  0.078578  0.102889  0  1.036136  0
H  H19  1  0.86221839  0.84517189  0.13756374  1  0  0.078571  0.102913  0  1.036067  0
H  H20  1  0.30757289  0.22557454  0.82142313  1  0  0.086185  0.11782  0  1.030857  0
H  H21  1  0.69241902  0.77441185  0.17857864  1  0  0.086189  0.117934  0  1.030864  0
H  H22  1  0.16461822  0.12789858  0.72426399  1  0  0.08981  0.129446  0  0.995246  0
H  H23  1  0.83537087  0.87209190  0.27573769  1  0  0.089829  0.129462  0  0.995232  0
H  H24  1  0.09602033  0.39206115  0.97229724  1  0  0.082691  0.115633  0  1.019849  0
H  H25  1  0.90397897  0.60794681  0.02769835  1  0  0.082753  0.115701  0  1.019745  0
H  H26  1  0.11247935  0.53345873  0.91441150  1  0  0.082794  0.1146  0  1.029414  0
H  H27  1  0.88751925  0.46654420  0.08557920  1  0  0.082815  0.114646  0  1.029473  0
H  H28  1  0.27458521  0.45283692  0.93655607  1  0  0.08533  0.120236  0  0.998191  0
H  H29  1  0.72541355  0.54716688  0.06344408  1  0  0.085325  0.120204  0  0.998267  0
H  H30  1  0.30387644  0.67372220  0.48629694  1  0  0.115955  0.076364  0  1.051443  0
H  H31  1  0.69610848  0.32624578  0.51370393  1  0  0.115951  0.076375  0  1.051307  0
H  H32  1  0.02815847  0.68740254  0.45423204  1  0  0.107117  0.112074  0  1.035911  0
H  H33  1  0.97182111  0.31256742  0.54577285  1  0  0.107128  0.112121  0  1.035898  0
H  H34  1  0.87982808  0.76776074  0.61133676  1  0  0.114998  0.129373  0  1.00273  0
H  H35  1  0.12017452  0.23222958  0.38867552  1  0  0.115014  0.129347  0  1.002741  0
H  H36  1  0.88152867  0.84576406  0.81118286  1  0  0.111191  0.130904  0  1.020151  0
H  H37  1  0.11847545  0.15423748  0.18883173  1  0  0.111225  0.130946  0  1.020301  0
H  H38  1  0.02066629  0.88854349  0.99211443  1  0  0.102122  0.103416  0  1.024529  0
H  H39  1  0.97935114  0.11148156  0.00790235  1  0  0.102118  0.103451  0  1.024662  0
H  H40  1  0.26771002  0.90357625  0.10543920  1  0  0.107238  0.111096  0  1.044037  0
H  H41  1  0.73232240  0.09646020  0.89456896  1  0  0.107216  0.110958  0  1.044063  0
H  H42  1  0.53939794  0.86610667  0.11280185  1  0  0.108681  0.115327  0  1.021573  0
H  H43  1  0.46063156  0.13390842  0.88719807  1  0  0.108746  0.115348  0  1.021626  0
H  H44  1  0.65746194  0.78831264  0.94013831  1  0  0.120905  0.093521  0  0.976904  0
H  H45  1  0.34255071  0.21169433  0.05985692  1  0  0.120913  0.093456  0  0.976883  0
C  C46  1  0.71866168  0.40412931  0.71860664  1  0  -0.024446  -0.040447  0  4.026372  0
C  C47  1  0.28134297  0.59587653  0.28139417  1  0  -0.02432  -0.040354  0  4.026516  0
C  C48  1  0.63688212  0.27460090  0.69887665  1  0  -0.087428  -0.137936  0  3.994703  0
C  C49  1  0.36311607  0.72539886  0.30112035  1  0  -0.087371  -0.137772  0  3.994802  0
C  C50  1  0.70936174  0.16414551  0.71139324  1  0  -0.021812  -0.025298  0  4.001417  0
C  C51  1  0.29063547  0.83585526  0.28860468  1  0  -0.021834  -0.025382  0  4.001638  0
C  C52  1  0.86493357  0.18372757  0.74446751  1  0  -0.085526  -0.147754  0  3.930095  0
C  C53  1  0.13507219  0.81627838  0.25552720  1  0  -0.085599  -0.147873  0  3.930282  0
C  C54  1  0.94925695  0.31285343  0.76664078  1  0  -0.003367  0.061102  0  3.874216  0
C  C55  1  0.05074308  0.68714326  0.23335646  1  0  -0.003336  0.061101  0  3.8742  0
C  C56  1  0.87285637  0.42302191  0.75436445  1  0  -0.079948  -0.130482  0  3.906788  0
C  C57  1  0.12714772  0.57697992  0.24563168  1  0  -0.080097  -0.130681  0  3.907092  0
C  C58  1  0.64167360  0.51740424  0.69283746  1  0  0.201331  0.558575  0  4.211471  0
C  C59  1  0.35832362  0.48259652  0.30716123  1  0  0.201264  0.558519  0  4.211668  0
C  C60  1  0.61738909  0.02611999  0.68700303  1  0  0.191779  0.558905  0  4.226259  0
C  C61  1  0.38260323  0.97387760  0.31300175  1  0  0.191727  0.558811  0  4.226103  0
C  C62  1  0.11979795  0.33611965  0.80020401  1  0  -0.014358  0.235249  0  3.810816  0
C  C63  1  0.88018438  0.66387901  0.19979746  1  0  -0.014267  0.235466  0  3.810378  0
C  C64  1  0.20261990  0.39961793  0.72016262  1  0  -0.246589  -0.412298  0  3.873299  0
C  C65  1  0.79737384  0.60035732  0.27983161  1  0  -0.246658  -0.412312  0  3.873273  0
C  C66  1  0.18449218  0.20282779  0.80214623  1  0  -0.244351  -0.416315  0  3.90911  0
C  C67  1  0.81549409  0.79716676  0.19785614  1  0  -0.244309  -0.416448  0  3.909173  0
C  C68  1  0.15203662  0.43430796  0.91243945  1  0  -0.242329  -0.409109  0  3.889201  0
C  C69  1  0.84795596  0.56568374  0.08754952  1  0  -0.242435  -0.409226  0  3.888974  0
C  C70  1  0.23718971  0.70639001  0.55288829  1  0  0.067704  0.133942  0  3.903784  0
C  C71  1  0.76280952  0.29359223  0.44711761  1  0  0.067702  0.133959  0  3.903584  0
C  C72  1  0.08173634  0.71515404  0.53573127  1  0  -0.07877  -0.124955  0  3.950859  0
C  C73  1  0.91825826  0.28482711  0.46427883  1  0  -0.078774  -0.124955  0  3.950912  0
C  C74  1  0.00058443  0.75927153  0.62215564  1  0  -0.052335  -0.054479  0  3.867338  0
C  C75  1  0.99941255  0.24071877  0.37785793  1  0  -0.052375  -0.054522  0  3.867122  0
C  C76  1  0.07623465  0.79159295  0.72632994  1  0  0.0035  0.047146  0  3.986714  0
C  C77  1  0.92377354  0.20840567  0.27367576  1  0  0.003548  0.047284  0  3.986208  0
C  C78  1  0.00136197  0.83458459  0.82111731  1  0  -0.079266  -0.114118  0  3.964945  0
C  C79  1  0.99865311  0.16541499  0.17889275  1  0  -0.079253  -0.114182  0  3.965105  0
C  C80  1  0.07829507  0.85845001  0.92005224  1  0  -0.089776  -0.137579  0  4.00291  0
C  C81  1  0.92172714  0.14156898  0.07995969  1  0  -0.089818  -0.137693  0  4.003043  0
C  C82  1  0.23593293  0.84366171  0.93231201  1  0  -0.003328  0.0432  0  4.023904  0
C  C83  1  0.76409081  0.15636043  0.06769446  1  0  -0.003331  0.043383  0  4.023496  0
C  C84  1  0.32082421  0.86759290  0.03229240  1  0  -0.062602  -0.070663  0  3.912864  0
C  C85  1  0.67920049  0.13243649  0.96770861  1  0  -0.062483  -0.070469  0  3.91281  0
C  C86  1  0.47185158  0.84740792  0.03640466  1  0  -0.083967  -0.132089  0  3.980134  0
C  C87  1  0.52817327  0.15261434  0.96359416  1  0  -0.08414  -0.132281  0  3.980461  0
C  C88  1  0.53870951  0.80575827  0.94053653  1  0  0.059036  0.1086  0  3.947359  0
C  C89  1  0.46130918  0.19425171  0.05946265  1  0  0.059116  0.108829  0  3.947414  0
C  C90  1  0.31367200  0.80353100  0.84012337  1  0  0.11994  0.125737  0  3.98187  0
C  C91  1  0.68634473  0.19648094  0.15988151  1  0  0.119858  0.125666  0  3.982155  0
C  C92  1  0.23287871  0.77750327  0.73581994  1  0  0.122171  0.122034  0  3.971483  0
C  C93  1  0.76712104  0.22249947  0.26418312  1  0  0.122129  0.121879  0  3.971301  0
N  N94  1  0.31104315  0.73764341  0.64985642  1  0  -0.314539  -0.256077  0  3.572732  0
N  N95  1  0.68895478  0.26235420  0.35014785  1  0  -0.314527  -0.256081  0  3.572457  0
N  N96  1  0.46201761  0.78608626  0.84528737  1  0  -0.310389  -0.265652  0  3.506227  0
N  N97  1  0.53799518  0.21392168  0.15471114  1  0  -0.310377  -0.265713  0  3.506499  0
O  O98  1  0.60032779  0.73049085  0.52019806  1  0  -0.566471  -0.743268  0  2.101897  0
O  O99  1  0.39964369  0.26951920  0.47979284  1  0  -0.566572  -0.74329  0  2.102074  0
O  O100  1  0.70256414  0.64044021  0.73306426  1  0  -0.318974  -0.538782  0  2.299915  0
O  O101  1  0.29743517  0.35955964  0.26692664  1  0  -0.318932  -0.538775  0  2.299922  0
O  O102  1  0.51965752  0.48975243  0.63098799  1  0  -0.311326  -0.549773  0  2.215391  0
O  O103  1  0.48033688  0.51024429  0.36900746  1  0  -0.311353  -0.549818  0  2.215571  0
O  O104  1  0.48935771  0.00758590  0.63613700  1  0  -0.338339  -0.558238  0  2.082474  0
O  O105  1  0.51061805  0.99241351  0.36388129  1  0  -0.338363  -0.55819  0  2.082338  0
O  O106  1  0.67973878  0.93370219  0.72255404  1  0  -0.337465  -0.568007  0  2.30747  0
O  O107  1  0.32027640  0.06629872  0.27743624  1  0  -0.337388  -0.567926  0  2.30741  0
