# generated using pymatgen
data_ZnH34C36NO6
_symmetry_space_group_name_H-M   'P 1'
_cell_length_a   18.69609649
_cell_length_b   19.51711428
_cell_length_c   19.50844673
_cell_angle_alpha   85.34427699
_cell_angle_beta   89.64645296
_cell_angle_gamma   89.66201557
_symmetry_Int_Tables_number   1
_chemical_formula_structural   ZnH34C36NO6
_chemical_formula_sum   'Zn2 H68 C72 N2 O12'
_cell_volume   7094.78496209
_cell_formula_units_Z   2
loop_
 _symmetry_equiv_pos_site_id
 _symmetry_equiv_pos_as_xyz
  1  'x, y, z'
loop_
 _atom_site_type_symbol
 _atom_site_label
 _atom_site_symmetry_multiplicity
 _atom_site_fract_x
 _atom_site_fract_y
 _atom_site_fract_z
 _atom_site_occupancy
 _atom_site_pbe_bader_charge
 _atom_site_pbe_bader_spin_density
 _atom_site_pbe_cm5_charge
 _atom_site_pbe_ddec_charge
 _atom_site_pbe_ddec_spin_density
 _atom_site_pbe_ddec_sum_bond_order
 _atom_site_pbe_magmom
Zn  Zn0  1  0.41770580  0.50071721  0.50143261  1  1.300353  0  0.682928  0.873631  0  2.292791  0
Zn  Zn1  1  0.58170972  0.50015661  0.50032262  1  1.318052  0  0.683351  0.871806  0  2.294311  0
H  H2  1  0.55351613  0.13873496  0.57819758  1  0.05132  0  0.094971  0.096707  0  1.022405  0
H  H3  1  0.40499787  0.82657961  0.58845548  1  0.008556  0  0.095501  0.097577  0  1.018752  0
H  H4  1  0.54668207  0.86074314  0.41484420  1  0.055515  0  0.094753  0.096526  0  1.023014  0
H  H5  1  0.40059778  0.17562235  0.41568893  1  0.049125  0  0.094595  0.097285  0  1.018902  0
H  H6  1  0.44749186  0.42089590  0.86217707  1  0.036458  0  0.094626  0.095939  0  1.023383  0
H  H7  1  0.59514532  0.41371431  0.17473646  1  0.04006  0  0.095792  0.098512  0  1.018626  0
H  H8  1  0.45067902  0.58490721  0.14014605  1  0.044687  0  0.094731  0.096321  0  1.023746  0
H  H9  1  0.59779128  0.58571562  0.82538737  1  0.051499  0  0.095589  0.098352  0  1.017158  0
H  H10  1  0.46593179  0.05638819  0.60924070  1  0.05626  0  0.098658  0.097476  0  1.004307  0
H  H11  1  0.45833746  0.94462962  0.39005164  1  0.039013  0  0.098706  0.097693  0  1.00557  0
H  H12  1  0.46620269  0.92956486  0.61119192  1  0.030237  0  0.099286  0.098827  0  1.004413  0
H  H13  1  0.45975459  0.07146109  0.38802033  1  0.060581  0  0.098666  0.098127  0  1.004815  0
H  H14  1  0.53570033  0.39137373  0.94489948  1  0.063675  0  0.09857  0.097363  0  1.006305  0
H  H15  1  0.53892667  0.61097553  0.05615025  1  0.070739  0  0.098382  0.097584  0  1.00613  0
H  H16  1  0.53505863  0.38976641  0.07176221  1  0.079942  0  0.098655  0.097938  0  1.005355  0
H  H17  1  0.53788365  0.61255351  0.92931483  1  0.055181  0  0.098764  0.098033  0  1.004891  0
H  H18  1  0.06909684  0.52606934  0.59347795  1  0.091021  0  0.109267  0.114008  0  0.977349  0
H  H19  1  0.93087223  0.46174954  0.39191152  1  0.089856  0  0.107288  0.112646  0  0.989326  0
H  H20  1  0.06350740  0.45835128  0.38901225  1  0.018552  0  0.101912  0.099166  0  1.002733  0
H  H21  1  0.93634257  0.52702686  0.59742719  1  0.086906  0  0.109071  0.113583  0  0.986758  0
H  H22  1  0.27250168  0.36627869  0.61350458  1  0.060429  0  0.097803  0.142726  0  0.997059  0
H  H23  1  0.32760595  0.34996637  0.54187084  1  0.064144  0  0.10032  0.150252  0  0.997354  0
H  H24  1  0.35480877  0.41146778  0.59736284  1  0.100043  0  0.101743  0.155801  0  1.043539  0
H  H25  1  0.72453105  0.61252211  0.36348505  1  0.052917  0  0.096178  0.138167  0  1.008482  0
H  H26  1  0.67294804  0.53846543  0.35229031  1  0.060995  0  0.10377  0.158987  0  0.980464  0
H  H27  1  0.64261047  0.59709310  0.41029739  1  0.107656  0  0.099593  0.151785  0  1.053459  0
H  H28  1  0.27398987  0.64453640  0.39804176  1  0.040523  0  0.096052  0.138215  0  1.014058  0
H  H29  1  0.32851584  0.64221852  0.47228070  1  0.080996  0  0.104366  0.161337  0  0.988991  0
H  H30  1  0.35498411  0.59491248  0.40357145  1  0.093611  0  0.100725  0.153765  0  1.043961  0
H  H31  1  0.72491655  0.38573601  0.63454549  1  0.052513  0  0.096644  0.138703  0  1.007524  0
H  H32  1  0.67545358  0.46161836  0.64627188  1  0.071005  0  0.103733  0.157935  0  0.982506  0
H  H33  1  0.64238265  0.40323732  0.59007537  1  0.103428  0  0.099719  0.151626  0  1.052067  0
H  H34  1  0.19802576  0.30956293  0.50526335  1  0.051824  0  0.098391  0.095877  0  0.993444  0
H  H35  1  0.11208990  0.34376741  0.47849098  1  0.031465  0  0.09177  0.085539  0  1.012849  0
H  H36  1  0.12022070  0.29064645  0.55766431  1  0.049721  0  0.110092  0.116693  0  0.968791  0
H  H37  1  0.82343778  0.66954381  0.42621580  1  0.054498  0  0.097699  0.093593  0  0.990467  0
H  H38  1  0.89384287  0.66084169  0.36426475  1  0.054132  0  0.109864  0.116573  0  0.969581  0
H  H39  1  0.90688453  0.62945671  0.45236741  1  0.057717  0  0.095713  0.09478  0  1.009891  0
H  H40  1  0.19993180  0.58971955  0.32715889  1  0.072782  0  0.098321  0.094616  0  1.000577  0
H  H41  1  0.12879156  0.65139620  0.33221434  1  0.086295  0  0.109969  0.117044  0  0.967818  0
H  H42  1  0.10934566  0.56119263  0.34079990  1  0.050347  0  0.091873  0.085848  0  1.021638  0
H  H43  1  0.82073907  0.32457557  0.57105695  1  0.060528  0  0.097368  0.092975  0  0.99207  0
H  H44  1  0.89284982  0.33261067  0.63041749  1  0.067367  0  0.110643  0.11827  0  0.967447  0
H  H45  1  0.90451306  0.36134827  0.54129938  1  0.052289  0  0.093864  0.091164  0  1.013684  0
H  H46  1  0.57135538  0.30994625  0.62202447  1  0.036538  0  0.094246  0.135882  0  0.990447  0
H  H47  1  0.60894282  0.22568408  0.62836436  1  0.002765  0  0.086775  0.118359  0  1.006029  0
H  H48  1  0.63906930  0.28918611  0.56402524  1  0.05248  0  0.092593  0.134453  0  1.001857  0
H  H49  1  0.36830026  0.66218014  0.58166394  1  0.061558  0  0.092381  0.13483  0  1.00175  0
H  H50  1  0.44731051  0.64872440  0.62863254  1  0.038275  0  0.091077  0.132461  0  1.019546  0
H  H51  1  0.39061939  0.71902230  0.64501306  1  0.016665  0  0.087765  0.120604  0  1.001073  0
H  H52  1  0.56351466  0.68676139  0.37460989  1  0.041375  0  0.094011  0.135343  0  0.992691  0
H  H53  1  0.59783289  0.77169417  0.36122536  1  0.034179  0  0.086982  0.118705  0  1.00484  0
H  H54  1  0.63478249  0.71190414  0.42537178  1  0.051417  0  0.092716  0.133554  0  1.001719  0
H  H55  1  0.36148777  0.33754251  0.42767298  1  0.044753  0  0.089601  0.129502  0  1.008532  0
H  H56  1  0.43786343  0.35524645  0.37729339  1  0.064158  0  0.091453  0.133999  0  1.017807  0
H  H57  1  0.38360348  0.28382732  0.36102304  1  0.031105  0  0.086692  0.118995  0  1.003636  0
H  H58  1  0.43011909  0.37823865  0.68986086  1  0.054017  0  0.093599  0.134626  0  0.99218  0
H  H59  1  0.39382325  0.36937272  0.77465662  1  0.000869  0  0.087239  0.118599  0  1.005191  0
H  H60  1  0.36103475  0.43389162  0.71273744  1  0.074869  0  0.094531  0.138014  0  0.994259  0
H  H61  1  0.63200792  0.42203425  0.33896951  1  0.042449  0  0.092506  0.135837  0  1.00037  0
H  H62  1  0.55403206  0.37354134  0.35280867  1  0.057164  0  0.090786  0.132342  0  1.018669  0
H  H63  1  0.61092309  0.35804016  0.28232088  1  0.000905  0  0.087211  0.119864  0  1.002676  0
H  H64  1  0.43370911  0.62618552  0.31346572  1  0.053166  0  0.093432  0.134313  0  0.993271  0
H  H65  1  0.39803818  0.63761333  0.22891451  1  0.003923  0  0.087034  0.118957  0  1.005113  0
H  H66  1  0.36322208  0.57344137  0.29019108  1  0.058438  0  0.091222  0.130633  0  1.005638  0
H  H67  1  0.63789646  0.57438322  0.66452148  1  0.023795  0  0.091914  0.133495  0  1.001552  0
H  H68  1  0.56086786  0.62327375  0.64512457  1  0.048801  0  0.09082  0.132422  0  1.02292  0
H  H69  1  0.61347952  0.64116599  0.71713007  1  0.013203  0  0.087169  0.119796  0  1.002102  0
C  C70  1  0.49121756  0.50173150  0.36771257  1  1.565388  0  0.21808  0.609501  0  4.164335  0
C  C71  1  0.49180434  0.49995373  0.63383944  1  1.5777  0  0.218719  0.609791  0  4.163368  0
C  C72  1  0.50807293  0.63358831  0.49992295  1  1.579765  0  0.218396  0.610804  0  4.16673  0
C  C73  1  0.50733273  0.36717188  0.50075496  1  1.572035  0  0.218339  0.60966  0  4.161255  0
C  C74  1  0.46466432  0.03187976  0.56094613  1  -0.061534  0  -0.096215  -0.132282  0  4.007497  0
C  C75  1  0.46041852  0.96913130  0.43831304  1  -0.0394  0  -0.096307  -0.132979  0  4.009422  0
C  C76  1  0.46398363  0.96052364  0.56206874  1  0.029141  0  -0.094895  -0.130674  0  4.004655  0
C  C77  1  0.46040585  0.04051732  0.43721244  1  -0.065204  0  -0.096064  -0.131646  0  4.007539  0
C  C78  1  0.53593666  0.43974392  0.96929025  1  -0.066685  0  -0.095987  -0.133106  0  4.009623  0
C  C79  1  0.53778272  0.56259404  0.03180993  1  -0.09024  0  -0.0961  -0.133364  0  4.010517  0
C  C80  1  0.53643777  0.43884068  0.04068823  1  -0.121132  0  -0.095025  -0.129834  0  4.005966  0
C  C81  1  0.53801506  0.56347337  0.96040925  1  0.0196  0  -0.094847  -0.129937  0  4.004978  0
C  C82  1  0.46435981  0.92767117  0.50059480  1  -0.052911  0  -0.011618  0.066605  0  4.008619  0
C  C83  1  0.46503159  0.07331721  0.49851114  1  -0.041059  0  -0.012063  0.065172  0  4.011357  0
C  C84  1  0.53475984  0.50036262  0.07342198  1  0.011883  0  -0.01177  0.065372  0  4.009179  0
C  C85  1  0.53448592  0.50205398  0.92770065  1  -0.021528  0  -0.010971  0.067261  0  4.007009  0
C  C86  1  0.92469537  0.49491781  0.49470415  1  0.023254  0  -0.00894  0.081716  0  4.026407  0
C  C87  1  0.07513507  0.49312637  0.49072945  1  0.04355  0  -0.002365  0.10126  0  4.009718  0
C  C88  1  0.26826674  0.44524610  0.53155450  1  0.493562  0  0.117576  0.225942  0  3.95229  0
C  C89  1  0.73108423  0.53461846  0.44693485  1  0.452501  0  0.117408  0.225751  0  3.951399  0
C  C90  1  0.26786875  0.55069462  0.46323070  1  0.489812  0  0.117658  0.226008  0  3.949787  0
C  C91  1  0.73146958  0.46257737  0.54998783  1  0.461685  0  0.117565  0.225918  0  3.950978  0
C  C92  1  0.19343339  0.44164303  0.52712984  1  0.502616  0  0.078263  0.097609  0  4.035283  0
C  C93  1  0.80616695  0.53450876  0.44545874  1  0.548257  0  0.078193  0.098909  0  4.026351  0
C  C94  1  0.19300767  0.54846006  0.45768674  1  0.505774  0  0.079526  0.100311  0  4.028325  0
C  C95  1  0.80654278  0.46022366  0.54905791  1  0.536513  0  0.078382  0.099317  0  4.024458  0
C  C96  1  0.53686539  0.24480233  0.54334819  1  0.033307  0  -0.00763  0.163187  0  3.977818  0
C  C97  1  0.45137496  0.73557963  0.55110632  1  0.025326  0  -0.00687  0.16073  0  3.97578  0
C  C98  1  0.53309672  0.75514747  0.45263711  1  0.019941  0  -0.008079  0.162105  0  3.981749  0
C  C99  1  0.44856791  0.26596142  0.45143368  1  0.03728  0  -0.007112  0.160486  0  3.973492  0
C  C100  1  0.46333524  0.45643054  0.75610571  1  0.027791  0  -0.007281  0.163236  0  3.980901  0
C  C101  1  0.54829126  0.45071440  0.26571213  1  0.061347  0  -0.007179  0.160756  0  3.973974  0
C  C102  1  0.46491145  0.54774043  0.24591673  1  0.023852  0  -0.008581  0.161187  0  3.980864  0
C  C103  1  0.55017229  0.54967036  0.73501090  1  -0.038542  0  -0.006338  0.161645  0  3.972857  0
C  C104  1  0.52350883  0.17452176  0.54320316  1  -0.090088  0  -0.102755  -0.214706  0  3.973839  0
C  C105  1  0.44093257  0.80662740  0.55037682  1  0.023362  0  -0.10263  -0.215001  0  3.973752  0
C  C106  1  0.51927482  0.82552758  0.45248721  1  -0.087123  0  -0.103789  -0.216223  0  3.976053  0
C  C107  1  0.43875557  0.19495785  0.45154003  1  -0.081888  0  -0.104123  -0.21882  0  3.976766  0
C  C108  1  0.47677838  0.45654643  0.82640497  1  -0.010941  0  -0.10247  -0.214068  0  3.973982  0
C  C109  1  0.55859037  0.45129880  0.19461963  1  -0.096316  0  -0.103404  -0.217225  0  3.976322  0
C  C110  1  0.47866431  0.54783632  0.17548580  1  -0.075581  0  -0.103174  -0.215031  0  3.975528  0
C  C111  1  0.56004679  0.54949009  0.80603972  1  -0.014667  0  -0.103283  -0.217052  0  3.97317  0
C  C112  1  0.47479978  0.14833081  0.49777161  1  -0.021884  0  -0.013182  0.080525  0  4.066281  0
C  C113  1  0.47373791  0.85250832  0.50104265  1  -0.048575  0  -0.01352  0.078629  0  4.064849  0
C  C114  1  0.52474217  0.50264834  0.85263583  1  -0.092869  0  -0.013417  0.079791  0  4.064286  0
C  C115  1  0.52505798  0.49997037  0.14858776  1  0.000899  0  -0.013635  0.080049  0  4.06419  0
C  C116  1  0.03861144  0.51182057  0.54939965  1  0.003903  0  -0.083938  -0.119601  0  3.968225  0
C  C117  1  0.96120057  0.47576349  0.43614607  1  -0.024675  0  -0.0869  -0.124909  0  3.985688  0
C  C118  1  0.03573655  0.47440891  0.43443049  1  -0.028883  0  -0.092194  -0.139873  0  4.006158  0
C  C119  1  0.96423243  0.51253185  0.55154282  1  -0.046092  0  -0.08294  -0.119892  0  3.978332  0
C  C120  1  0.15446984  0.49372008  0.49038506  1  -0.026048  0  -0.001617  -0.080212  0  4.027388  0
C  C121  1  0.84564804  0.49647816  0.49643729  1  -0.029085  0  -0.002942  -0.086075  0  4.035552  0
C  C122  1  0.49819233  0.29092724  0.49778754  1  -0.027413  0  -0.021774  -0.161106  0  3.875465  0
C  C123  1  0.49815426  0.70992764  0.50189327  1  -0.058659  0  -0.021018  -0.160371  0  3.881793  0
C  C124  1  0.50112750  0.50280136  0.71006247  1  -0.049302  0  -0.020944  -0.161716  0  3.880922  0
C  C125  1  0.50078345  0.49934414  0.29133266  1  -0.043262  0  -0.020755  -0.159818  0  3.878666  0
C  C126  1  0.30795884  0.39020304  0.57364742  1  -0.061778  0  -0.244633  -0.459207  0  3.947395  0
C  C127  1  0.69062391  0.57332801  0.39028758  1  -0.06902  0  -0.244559  -0.456749  0  3.947084  0
C  C128  1  0.30816451  0.61144825  0.43198344  1  -0.037571  0  -0.24458  -0.460068  0  3.945289  0
C  C129  1  0.69142829  0.42571828  0.60825770  1  -0.06286  0  -0.24396  -0.455561  0  3.946493  0
C  C130  1  0.14664003  0.32985307  0.52310760  1  0.41051  0  -0.133658  -0.166123  0  3.92009  0
C  C131  1  0.86772951  0.63665655  0.41042120  1  0.380634  0  -0.134814  -0.170956  0  3.913978  0
C  C132  1  0.14849117  0.60065177  0.35203131  1  0.332123  0  -0.135114  -0.171316  0  3.925328  0
C  C133  1  0.86624705  0.35645982  0.58454665  1  0.365748  0  -0.134789  -0.170897  0  3.917699  0
C  C134  1  0.59181871  0.26856246  0.59219537  1  -0.038572  0  -0.239956  -0.409984  0  3.977328  0
C  C135  1  0.41260185  0.68915283  0.60440084  1  -0.049945  0  -0.2397  -0.406728  0  3.9655  0
C  C136  1  0.58481491  0.73014087  0.40055241  1  -0.063708  0  -0.239459  -0.408422  0  3.975596  0
C  C137  1  0.40593316  0.31291218  0.40166946  1  -0.081834  0  -0.241799  -0.407369  0  3.970885  0
C  C138  1  0.40936910  0.40672288  0.73214348  1  -0.076785  0  -0.240133  -0.409504  0  3.975402  0
C  C139  1  0.58819299  0.39829163  0.31219080  1  -0.047242  0  -0.240951  -0.408263  0  3.967642  0
C  C140  1  0.41235258  0.59912907  0.27082636  1  -0.056952  0  -0.23982  -0.408076  0  3.977868  0
C  C141  1  0.59244122  0.59984174  0.68813894  1  -0.023269  0  -0.24126  -0.407913  0  3.971339  0
N  N142  1  0.30393864  0.49930732  0.49959649  1  -1.214798  0  -0.306881  -0.296445  0  3.399636  0
N  N143  1  0.69518773  0.49905645  0.49896226  1  -1.230107  0  -0.308191  -0.297236  0  3.401277  0
O  O144  1  0.42836779  0.50005649  0.39312129  1  -1.162561  0  -0.312226  -0.549952  0  2.296641  0
O  O145  1  0.54971488  0.49460211  0.59992421  1  -1.179879  0  -0.312043  -0.558901  0  2.415837  0
O  O146  1  0.42899545  0.50214773  0.60895697  1  -1.162991  0  -0.311332  -0.548065  0  2.299442  0
O  O147  1  0.54910004  0.50611120  0.40110655  1  -1.182853  0  -0.311748  -0.558884  0  2.412596  0
O  O148  1  0.57098330  0.60842229  0.50190185  1  -1.162359  0  -0.310222  -0.547011  0  2.296137  0
O  O149  1  0.44932427  0.40093119  0.50611636  1  -1.177001  0  -0.312156  -0.558669  0  2.413048  0
O  O150  1  0.57004875  0.39216859  0.49849681  1  -1.169046  0  -0.310804  -0.548667  0  2.301925  0
O  O151  1  0.45037654  0.59991935  0.49556896  1  -1.183745  0  -0.312092  -0.561468  0  2.417786  0
O  O152  1  0.15746766  0.38805226  0.56251387  1  -1.076562  0  -0.210168  -0.188164  0  2.544226  0
O  O153  1  0.84091307  0.57162049  0.39196405  1  -1.073336  0  -0.208986  -0.186408  0  2.541076  0
O  O154  1  0.15652972  0.60344439  0.42501679  1  -1.073511  0  -0.211606  -0.184795  0  2.537082  0
O  O155  1  0.84163715  0.42291005  0.60204103  1  -1.07087  0  -0.207853  -0.184866  0  2.54311  0
