# generated using pymatgen
data_PH20AuC22SO3
_symmetry_space_group_name_H-M   'P 1'
_cell_length_a   8.49733939
_cell_length_b   15.93682118
_cell_length_c   19.84096781
_cell_angle_alpha   105.54118500
_cell_angle_beta   89.99986294
_cell_angle_gamma   90.00011769
_symmetry_Int_Tables_number   1
_chemical_formula_structural   PH20AuC22SO3
_chemical_formula_sum   'P4 H80 Au4 C88 S4 O12'
_cell_volume   2588.63809390
_cell_formula_units_Z   4
loop_
 _symmetry_equiv_pos_site_id
 _symmetry_equiv_pos_as_xyz
  1  'x, y, z'
loop_
 _atom_site_type_symbol
 _atom_site_label
 _atom_site_symmetry_multiplicity
 _atom_site_fract_x
 _atom_site_fract_y
 _atom_site_fract_z
 _atom_site_occupancy
 _atom_site_pbe_bader_charge
 _atom_site_pbe_bader_spin_density
 _atom_site_pbe_cm5_charge
 _atom_site_pbe_ddec_charge
 _atom_site_pbe_ddec_spin_density
 _atom_site_pbe_ddec_sum_bond_order
 _atom_site_pbe_magmom
P  P0  1  0.35805810  0.12256642  0.03487538  1  1.598673  0  0.002609  0.41422  0  4.406193  0
P  P1  1  0.64194417  0.62256375  0.53487477  1  1.598672  0  0.002655  0.414255  0  4.40618  0
P  P2  1  0.64194698  0.87743625  0.96512492  1  1.598813  0  0.00259  0.414188  0  4.406168  0
P  P3  1  0.35805738  0.37743370  0.46512540  1  1.59868  0  0.002623  0.414245  0  4.406179  0
H  H4  1  0.51409053  0.27861795  0.12111740  1  0.09042  0  0.084165  0.083843  0  1.077294  0
H  H5  1  0.48590715  0.77861710  0.62112037  1  0.090385  0  0.084193  0.083958  0  1.077285  0
H  H6  1  0.48590985  0.72138277  0.87887945  1  0.090439  0  0.084195  0.083949  0  1.077272  0
H  H7  1  0.51408852  0.22138491  0.37888079  1  0.090407  0  0.0842  0.083976  0  1.077271  0
H  H8  1  0.48996022  0.02606162  0.93013570  1  0.157783  0  0.105553  0.137318  0  1.045758  0
H  H9  1  0.51004181  0.52606283  0.43013626  1  0.157789  0  0.105542  0.137311  0  1.045751  0
H  H10  1  0.51004486  0.97393844  0.06986252  1  0.157774  0  0.105517  0.137263  0  1.045756  0
H  H11  1  0.48995856  0.47393853  0.56986375  1  0.157813  0  0.105561  0.137329  0  1.045735  0
H  H12  1  0.41624573  0.16491307  0.90166431  1  0.135365  0  0.10459  0.116411  0  1.029056  0
H  H13  1  0.58375700  0.66491434  0.40166732  1  0.135051  0  0.104608  0.116485  0  1.028934  0
H  H14  1  0.58376288  0.83508699  0.09833291  1  0.134985  0  0.104601  0.116468  0  1.028943  0
H  H15  1  0.41624926  0.33508636  0.59833457  1  0.135423  0  0.104593  0.116471  0  1.029005  0
H  H16  1  0.21680716  0.97977706  0.92286142  1  0.07484  0  0.099449  0.099508  0  1.01659  0
H  H17  1  0.78319665  0.47977420  0.42286140  1  0.074925  0  0.099468  0.09952  0  1.016541  0
H  H18  1  0.78319556  0.02022430  0.07714011  1  0.074941  0  0.099431  0.099473  0  1.016574  0
H  H19  1  0.21680607  0.52022586  0.57713732  1  0.074873  0  0.099462  0.099493  0  1.016582  0
H  H20  1  0.24028669  0.09052683  0.58506480  1  0.077548  0  0.097704  0.102724  0  1.024716  0
H  H21  1  0.75970811  0.59052304  0.08506150  1  0.077328  0  0.097745  0.102803  0  1.024657  0
H  H22  1  0.75971015  0.90946802  0.41493431  1  0.077587  0  0.097749  0.102842  0  1.02456  0
H  H23  1  0.24028638  0.40946856  0.91493237  1  0.077424  0  0.097752  0.102875  0  1.024613  0
H  H24  1  0.65244827  0.40129139  0.09112297  1  0.077013  0  0.100196  0.100233  0  1.049035  0
H  H25  1  0.34754769  0.90128847  0.59112564  1  0.077211  0  0.100159  0.100165  0  1.049075  0
H  H26  1  0.34754975  0.59871258  0.90887761  1  0.077052  0  0.100173  0.100236  0  1.049098  0
H  H27  1  0.65245151  0.09871028  0.40887180  1  0.077166  0  0.100173  0.100153  0  1.049052  0
H  H28  1  0.35385579  0.03201172  0.32835336  1  0.082247  0  0.105247  0.143507  0  0.977071  0
H  H29  1  0.64613625  0.53201231  0.82835345  1  0.082238  0  0.105261  0.143504  0  0.97704  0
H  H30  1  0.64614812  0.96798965  0.67164565  1  0.082202  0  0.105246  0.143473  0  0.977087  0
H  H31  1  0.35385824  0.46798970  0.17164872  1  0.082397  0  0.105276  0.143556  0  0.976991  0
H  H32  1  0.26066867  0.98283745  0.24599798  1  0.085375  0  0.100445  0.132216  0  0.976762  0
H  H33  1  0.73932438  0.48283644  0.74599872  1  0.08535  0  0.100431  0.132211  0  0.97676  0
H  H34  1  0.73933405  0.01716260  0.75400276  1  0.085337  0  0.100449  0.132192  0  0.976754  0
H  H35  1  0.26067129  0.51716361  0.25400505  1  0.085436  0  0.100422  0.132187  0  0.976796  0
H  H36  1  0.20123388  0.05349858  0.77119486  1  0.06707  0  0.113897  0.092465  0  0.958767  0
H  H37  1  0.79876915  0.55349612  0.27119584  1  0.067131  0  0.113887  0.092453  0  0.958731  0
H  H38  1  0.79876650  0.94650212  0.22880653  1  0.067087  0  0.113902  0.092514  0  0.958739  0
H  H39  1  0.20122769  0.44650198  0.72880448  1  0.067083  0  0.113862  0.092407  0  0.958739  0
H  H40  1  0.20701618  0.95166890  0.79237455  1  0.092459  0  0.112312  0.088786  0  0.978102  0
H  H41  1  0.79299180  0.45166606  0.29237503  1  0.092391  0  0.112321  0.088777  0  0.978071  0
H  H42  1  0.79298773  0.04833050  0.20762605  1  0.092475  0  0.112304  0.088777  0  0.978118  0
H  H43  1  0.20700505  0.54833139  0.70762464  1  0.092198  0  0.112315  0.088772  0  0.978097  0
H  H44  1  0.75730763  0.08335065  0.90066830  1  0.101263  0  0.094566  0.093836  0  1.034217  0
H  H45  1  0.24269479  0.58335101  0.40066491  1  0.100785  0  0.094543  0.093813  0  1.034246  0
H  H46  1  0.24269745  0.91665136  0.09933287  1  0.101182  0  0.094543  0.093756  0  1.034269  0
H  H47  1  0.75730558  0.41665231  0.59933351  1  0.100855  0  0.094547  0.093797  0  1.034225  0
H  H48  1  0.95296360  0.96387124  0.86681394  1  0.074717  0  0.084305  0.078875  0  1.059022  0
H  H49  1  0.04703929  0.46387170  0.36681287  1  0.074695  0  0.084285  0.078835  0  1.059081  0
H  H50  1  0.04703913  0.03613011  0.13318860  1  0.07466  0  0.084269  0.078801  0  1.059074  0
H  H51  1  0.95296461  0.53613031  0.63318628  1  0.074673  0  0.084273  0.078823  0  1.059062  0
H  H52  1  0.55819989  0.28586697  0.87233801  1  0.058635  0  0.104745  0.100595  0  0.984426  0
H  H53  1  0.44180346  0.78586812  0.37234216  1  0.058662  0  0.104804  0.100698  0  0.984428  0
H  H54  1  0.44180519  0.71413635  0.12766091  1  0.058737  0  0.104789  0.100649  0  0.984363  0
H  H55  1  0.55820397  0.21413259  0.62765873  1  0.058645  0  0.104786  0.100685  0  0.984453  0
H  H56  1  0.28948249  0.16008778  0.48974499  1  0.083845  0  0.087942  0.084447  0  1.087752  0
H  H57  1  0.71051149  0.66008582  0.98974397  1  0.083876  0  0.088017  0.084573  0  1.087666  0
H  H58  1  0.71051082  0.83991293  0.51025689  1  0.083833  0  0.088024  0.08461  0  1.087602  0
H  H59  1  0.28948300  0.33991098  0.01025456  1  0.083846  0  0.087995  0.084559  0  1.08763  0
H  H60  1  0.67718534  0.40496651  0.96730258  1  0.074303  0  0.102708  0.10175  0  1.008778  0
H  H61  1  0.32281559  0.90496626  0.46730603  1  0.074471  0  0.1027  0.101743  0  1.008805  0
H  H62  1  0.32281739  0.59503811  0.03269714  1  0.074425  0  0.10272  0.101747  0  1.008812  0
H  H63  1  0.67718713  0.09503314  0.53269305  1  0.074491  0  0.102703  0.101759  0  1.008782  0
H  H64  1  0.08452559  0.23442521  0.05068409  1  0.057806  0  0.09706  0.096828  0  1.034584  0
H  H65  1  0.91547819  0.73442473  0.55068115  1  0.057884  0  0.097057  0.096835  0  1.034622  0
H  H66  1  0.91548067  0.76557615  0.94931694  1  0.057875  0  0.097087  0.09692  0  1.034544  0
H  H67  1  0.08452453  0.26557402  0.44932031  1  0.057871  0  0.097039  0.0968  0  1.034614  0
H  H68  1  0.12989865  0.12334194  0.38177633  1  0.088858  0  0.091002  0.104549  0  1.072158  0
H  H69  1  0.87009461  0.62334402  0.88177551  1  0.088799  0  0.091005  0.104538  0  1.072173  0
H  H70  1  0.87008995  0.87665680  0.61822665  1  0.088744  0  0.091002  0.10455  0  1.072145  0
H  H71  1  0.12990341  0.37665603  0.11822472  1  0.088827  0  0.091017  0.104581  0  1.072139  0
H  H72  1  0.87691262  0.12344400  0.33186997  1  0.052855  0  0.108139  0.081134  0  0.964111  0
H  H73  1  0.12308446  0.62344613  0.83186892  1  0.052817  0  0.108151  0.081148  0  0.964116  0
H  H74  1  0.12308776  0.87655475  0.66813200  1  0.052774  0  0.108117  0.081129  0  0.964054  0
H  H75  1  0.87691356  0.37655263  0.16813154  1  0.052798  0  0.108143  0.081153  0  0.964093  0
H  H76  1  0.01976314  0.05012744  0.28294775  1  0.063094  0  0.09814  0.071861  0  1.029294  0
H  H77  1  0.98023158  0.55013026  0.78294799  1  0.063265  0  0.098155  0.071869  0  1.029324  0
H  H78  1  0.98024194  0.94987066  0.71705408  1  0.06312  0  0.098178  0.07191  0  1.029306  0
H  H79  1  0.01976409  0.44987110  0.21705253  1  0.063078  0  0.098165  0.071899  0  1.029269  0
H  H80  1  0.82363427  0.21887171  0.99339770  1  0.098883  0  0.094497  0.093452  0  1.045837  0
H  H81  1  0.17636932  0.71887201  0.49339437  1  0.099243  0  0.094472  0.093482  0  1.045829  0
H  H82  1  0.17637198  0.78113095  0.00660310  1  0.09925  0  0.094492  0.093489  0  1.045774  0
H  H83  1  0.82363105  0.28113066  0.50660593  1  0.099285  0  0.094439  0.093478  0  1.04579  0
Au  Au84  1  0.66672916  0.86594157  0.84905449  1  -0.045538  0  0.246489  -0.075116  0  2.710208  0
Au  Au85  1  0.33326875  0.36594030  0.34905427  1  -0.045587  0  0.246498  -0.075111  0  2.710241  0
Au  Au86  1  0.33327710  0.13405784  0.15094510  1  -0.045588  0  0.246519  -0.075059  0  2.710193  0
Au  Au87  1  0.66672809  0.63405780  0.65094504  1  -0.045574  0  0.246506  -0.075089  0  2.710193  0
C  C88  1  0.52595439  0.27962052  0.06650784  1  0.003395  0  -0.086885  -0.090287  0  3.972808  0
C  C89  1  0.47404477  0.77961902  0.56651119  1  0.002737  0  -0.0869  -0.090503  0  3.972926  0
C  C90  1  0.47404716  0.72038345  0.93348921  1  0.003248  0  -0.086858  -0.090392  0  3.972832  0
C  C91  1  0.52595561  0.22038104  0.43348905  1  0.002699  0  -0.086945  -0.090575  0  3.972954  0
C  C92  1  0.16981883  0.10919602  0.98921210  1  -0.538379  0  -0.027732  -0.07048  0  3.978109  0
C  C93  1  0.83018201  0.60919555  0.48920995  1  -0.538348  0  -0.027736  -0.070404  0  3.978006  0
C  C94  1  0.83018507  0.89080599  0.01078957  1  -0.538947  0  -0.027696  -0.070427  0  3.978032  0
C  C95  1  0.16982071  0.39080451  0.51078928  1  -0.538409  0  -0.027718  -0.070415  0  3.978069  0
C  C96  1  0.49400030  0.99743707  0.76149092  1  1.47905  0  0.224802  0.571987  0  4.095568  0
C  C97  1  0.50599979  0.49743334  0.26149251  1  1.47888  0  0.22478  0.572151  0  4.095377  0
C  C98  1  0.50600125  0.00256494  0.23850974  1  1.479049  0  0.224782  0.572108  0  4.095416  0
C  C99  1  0.49399470  0.50256476  0.73850781  1  1.479053  0  0.224832  0.572183  0  4.095451  0
C  C100  1  0.45802374  0.21322679  0.01327725  1  -0.551688  0  -0.027987  -0.075834  0  3.970097  0
C  C101  1  0.54197782  0.71322599  0.51328068  1  -0.551168  0  -0.028031  -0.075777  0  3.969834  0
C  C102  1  0.54198134  0.78677522  0.98671989  1  -0.55129  0  -0.028041  -0.075805  0  3.969856  0
C  C103  1  0.45802491  0.28677471  0.48672071  1  -0.551307  0  -0.027978  -0.075742  0  3.969908  0
C  C104  1  0.47074465  0.03005953  0.98556032  1  -0.53745  0  -0.086413  -0.195469  0  3.907622  0
C  C105  1  0.52925709  0.53005945  0.48556008  1  -0.537509  0  -0.086447  -0.19553  0  3.907544  0
C  C106  1  0.52925690  0.96994119  0.01443804  1  -0.650065  0  -0.086363  -0.195362  0  3.907604  0
C  C107  1  0.47074446  0.46994126  0.51443879  1  -0.650051  0  -0.08638  -0.195389  0  3.907509  0
C  C108  1  0.46905519  0.21605995  0.94325998  1  -0.0914  0  -0.080279  -0.083649  0  3.944911  0
C  C109  1  0.53094398  0.71606117  0.44326354  1  -0.092105  0  -0.080322  -0.083788  0  3.94469  0
C  C110  1  0.53094754  0.78394141  0.05673752  1  -0.091608  0  -0.080332  -0.083819  0  3.944711  0
C  C111  1  0.46906111  0.28394018  0.55673698  1  -0.092253  0  -0.080361  -0.083845  0  3.94467  0
C  C112  1  0.04693911  0.01153376  0.53109439  1  0.002784  0  -0.017843  -0.01033  0  4.00589  0
C  C113  1  0.95304980  0.51153339  0.03109264  1  0.002792  0  -0.017857  -0.010296  0  4.005849  0
C  C114  1  0.95305655  0.98845913  0.46890530  1  0.053213  0  -0.017881  -0.010418  0  4.005981  0
C  C115  1  0.04693174  0.48845821  0.96890375  1  0.053213  0  -0.017852  -0.010472  0  4.005953  0
C  C116  1  0.01411759  0.96969966  0.58494307  1  0.388993  0  0.080906  0.206179  0  4.04561  0
C  C117  1  0.98587396  0.46969893  0.08494230  1  0.388897  0  0.080928  0.206301  0  4.0455  0
C  C118  1  0.98587808  0.03029518  0.41505654  1  0.389678  0  0.08088  0.206218  0  4.045553  0
C  C119  1  0.01411464  0.53029462  0.91505552  1  0.389235  0  0.080842  0.206182  0  4.04555  0
C  C120  1  0.13187048  0.03282133  0.93768570  1  -0.016958  0  -0.085513  -0.083997  0  3.972138  0
C  C121  1  0.86813036  0.53281959  0.43768373  1  -0.017031  0  -0.085526  -0.084043  0  3.972127  0
C  C122  1  0.86813342  0.96718132  0.06231662  1  -0.016418  0  -0.085521  -0.083955  0  3.972112  0
C  C123  1  0.13187237  0.46718047  0.56231449  1  -0.016988  0  -0.085531  -0.084089  0  3.972177  0
C  C124  1  0.16901625  0.07376382  0.53778039  1  -0.048559  0  -0.110207  -0.15714  0  4.036449  0
C  C125  1  0.83097522  0.57376010  0.03777552  1  -0.048293  0  -0.11019  -0.15717  0  4.036447  0
C  C126  1  0.83097236  0.92623688  0.46222201  1  -0.048757  0  -0.110224  -0.157282  0  4.036506  0
C  C127  1  0.16902280  0.42623541  0.96221920  1  -0.048479  0  -0.110254  -0.1573  0  4.036465  0
C  C128  1  0.60346707  0.34866662  0.04958799  1  -0.039298  0  -0.090731  -0.083754  0  3.974655  0
C  C129  1  0.39653480  0.84866505  0.54959190  1  -0.03886  0  -0.090606  -0.083558  0  3.9747  0
C  C130  1  0.39653330  0.65133670  0.95041044  1  -0.039147  0  -0.090686  -0.08377  0  3.974682  0
C  C131  1  0.60346557  0.15133436  0.45040719  1  -0.038857  0  -0.090665  -0.083565  0  3.974694  0
C  C132  1  0.64997858  0.97016769  0.72740722  1  -0.082951  0  -0.161776  -0.306731  0  3.953883  0
C  C133  1  0.35002277  0.47016643  0.22741102  1  -0.083126  0  -0.161778  -0.306867  0  3.953838  0
C  C134  1  0.35002297  0.02983367  0.27259128  1  -0.082968  0  -0.161794  -0.306857  0  3.953904  0
C  C135  1  0.64997172  0.52983427  0.77259188  1  -0.082861  0  -0.161754  -0.306794  0  3.953883  0
C  C136  1  0.21720660  0.98299737  0.74955351  1  0.387096  0  -0.064412  0.00051  0  3.891306  0
C  C137  1  0.78279584  0.48299386  0.24955386  1  0.387179  0  -0.064379  0.000562  0  3.891243  0
C  C138  1  0.78279495  0.01700334  0.25044686  1  0.387101  0  -0.064405  0.000454  0  3.89132  0
C  C139  1  0.21719982  0.51700489  0.75044609  1  0.387388  0  -0.064345  0.000618  0  3.891216  0
C  C140  1  0.87284727  0.09073756  0.92560800  1  -0.108357  0  -0.091762  -0.077337  0  3.983437  0
C  C141  1  0.12715504  0.59073912  0.42560499  1  -0.107934  0  -0.091804  -0.077348  0  3.983447  0
C  C142  1  0.12715781  0.90926315  0.07439288  1  -0.10831  0  -0.09177  -0.077201  0  3.983287  0
C  C143  1  0.87284651  0.40926355  0.57439430  1  -0.10801  0  -0.091742  -0.077194  0  3.983311  0
C  C144  1  0.98369601  0.02394036  0.90614877  1  -0.033361  0  -0.096899  -0.085118  0  4.018169  0
C  C145  1  0.01630615  0.52394118  0.40614723  1  -0.0334  0  -0.096881  -0.085079  0  4.018157  0
C  C146  1  0.01630789  0.97606099  0.09385276  1  -0.033449  0  -0.096876  -0.08511  0  4.018135  0
C  C147  1  0.98369658  0.47606214  0.59385220  1  -0.033374  0  -0.096896  -0.085058  0  4.018036  0
C  C148  1  0.54898627  0.28445537  0.92686560  1  -0.062635  0  -0.084425  -0.07681  0  3.993138  0
C  C149  1  0.45101560  0.78445783  0.42686851  1  -0.061877  0  -0.084521  -0.076987  0  3.993256  0
C  C150  1  0.45101764  0.71554664  0.07313405  1  -0.062766  0  -0.084436  -0.076803  0  3.993101  0
C  C151  1  0.54899183  0.21554222  0.57313173  1  -0.061993  0  -0.084447  -0.076883  0  3.993093  0
C  C152  1  0.19614143  0.11228710  0.48453461  1  -0.047811  0  -0.104112  -0.065987  0  4.073815  0
C  C153  1  0.80385592  0.61228848  0.98453321  1  -0.047949  0  -0.104221  -0.066144  0  4.07379  0
C  C154  1  0.80385306  0.88771035  0.51546556  1  -0.047842  0  -0.104195  -0.066066  0  4.07385  0
C  C155  1  0.19614210  0.38771223  0.01546566  1  -0.047801  0  -0.104186  -0.066089  0  4.073829  0
C  C156  1  0.61586012  0.35097327  0.97991038  1  -0.014024  0  -0.079241  -0.06482  0  3.974678  0
C  C157  1  0.38414171  0.85097307  0.47991480  1  -0.01438  0  -0.079258  -0.064791  0  3.974779  0
C  C158  1  0.38414379  0.64903004  0.02008905  1  -0.014032  0  -0.079267  -0.064776  0  3.974585  0
C  C159  1  0.61586102  0.14902634  0.52008379  1  -0.014296  0  -0.079213  -0.064761  0  3.974746  0
C  C160  1  0.05708759  0.17555216  0.00964910  1  -0.064752  0  -0.086475  -0.090367  0  3.972657  0
C  C161  1  0.94291502  0.67555236  0.50964528  1  -0.064888  0  -0.086456  -0.090366  0  3.972705  0
C  C162  1  0.94291749  0.82444919  0.99035192  1  -0.064881  0  -0.086473  -0.090454  0  3.972632  0
C  C163  1  0.05708771  0.32444705  0.49035482  1  -0.064864  0  -0.086484  -0.090299  0  3.972564  0
C  C164  1  0.10472942  0.09146379  0.42285350  1  -0.060306  0  -0.123766  -0.242524  0  4.037852  0
C  C165  1  0.89526702  0.59146460  0.92285086  1  -0.059901  0  -0.123792  -0.242513  0  4.037829  0
C  C166  1  0.89526624  0.90853365  0.57714819  1  -0.059671  0  -0.123818  -0.242591  0  4.037832  0
C  C167  1  0.10472747  0.40853416  0.07714708  1  -0.059659  0  -0.123786  -0.242602  0  4.037901  0
C  C168  1  0.09835537  0.94580965  0.69344842  1  0.438562  0  -0.066189  -0.006042  0  3.921108  0
C  C169  1  0.90164607  0.44580755  0.19344744  1  0.438535  0  -0.066216  -0.006055  0  3.921064  0
C  C170  1  0.90164618  0.05418975  0.30655369  1  0.438498  0  -0.066191  -0.005957  0  3.921219  0
C  C171  1  0.09835077  0.55419251  0.80655229  1  0.438294  0  -0.066174  -0.005921  0  3.921066  0
C  C172  1  0.90972587  0.16658086  0.97763177  1  -0.033636  0  -0.091328  -0.071211  0  3.980812  0
C  C173  1  0.09027408  0.66658174  0.47762664  1  -0.033892  0  -0.091275  -0.071268  0  3.980882  0
C  C174  1  0.09027803  0.83342049  0.02237026  1  -0.033886  0  -0.091306  -0.071291  0  3.98077  0
C  C175  1  0.90972629  0.33342027  0.52237351  1  -0.033851  0  -0.091219  -0.071349  0  3.980745  0
S  S176  1  0.69898545  0.85925857  0.73178253  1  -0.29237  0  -0.243985  -0.259491  0  2.730982  0
S  S177  1  0.30100485  0.35925793  0.23178349  1  -0.292774  0  -0.243975  -0.259497  0  2.731036  0
S  S178  1  0.30101492  0.14074279  0.26821748  1  -0.292398  0  -0.243977  -0.259501  0  2.730958  0
S  S179  1  0.69898493  0.64074212  0.76821775  1  -0.292736  0  -0.244  -0.259546  0  2.730977  0
O  O180  1  0.37219282  0.96577896  0.71847661  1  -1.044115  0  -0.165077  -0.226053  0  2.508484  0
O  O181  1  0.62780738  0.46577598  0.21847874  1  -1.044176  0  -0.165105  -0.2261  0  2.508469  0
O  O182  1  0.62780873  0.03422109  0.28152363  1  -1.044144  0  -0.165073  -0.226106  0  2.508502  0
O  O183  1  0.37218593  0.53422407  0.78152200  1  -1.044209  0  -0.165126  -0.226145  0  2.508415  0
O  O184  1  0.10794449  0.99512460  0.64295293  1  -1.074472  0  -0.182658  -0.199474  0  2.570787  0
O  O185  1  0.89205154  0.49512444  0.14295288  1  -1.074467  0  -0.182706  -0.199577  0  2.570765  0
O  O186  1  0.89205235  0.00487155  0.35704646  1  -1.074525  0  -0.182632  -0.1995  0  2.570927  0
O  O187  1  0.10794177  0.50487366  0.85704542  1  -1.074479  0  -0.182683  -0.199602  0  2.570779  0
O  O188  1  0.52357582  0.95774456  0.17815099  1  -1.173939  0  -0.285762  -0.499239  0  2.212986  0
O  O189  1  0.47641987  0.45774659  0.67815266  1  -1.173994  0  -0.28575  -0.499259  0  2.213204  0
O  O190  1  0.47642456  0.04225484  0.82184759  1  -1.173945  0  -0.285746  -0.499163  0  2.213131  0
O  O191  1  0.52357815  0.54225150  0.32185018  1  -1.173804  0  -0.285727  -0.499234  0  2.213066  0
