# generated using pymatgen
data_AlH24C27N19O6
_symmetry_space_group_name_H-M   'P 1'
_cell_length_a   3.79942553
_cell_length_b   18.39389637
_cell_length_c   18.36868224
_cell_angle_alpha   121.58096618
_cell_angle_beta   97.83175433
_cell_angle_gamma   95.17077533
_symmetry_Int_Tables_number   1
_chemical_formula_structural   AlH24C27N19O6
_chemical_formula_sum   'Al1 H24 C27 N19 O6'
_cell_volume   1063.38189024
_cell_formula_units_Z   1
loop_
 _symmetry_equiv_pos_site_id
 _symmetry_equiv_pos_as_xyz
  1  'x, y, z'
loop_
 _atom_site_type_symbol
 _atom_site_label
 _atom_site_symmetry_multiplicity
 _atom_site_fract_x
 _atom_site_fract_y
 _atom_site_fract_z
 _atom_site_occupancy
 _atom_site_pbe_bader_charge
 _atom_site_pbe_bader_spin_density
 _atom_site_pbe_cm5_charge
 _atom_site_pbe_ddec_charge
 _atom_site_pbe_ddec_spin_density
 _atom_site_pbe_ddec_sum_bond_order
 _atom_site_pbe_magmom
Al  Al0  1  0.00368199  0.00220756  0.49575326  1  2.496589  0  0.416343  1.56645  0  2.579714  0
H  H1  1  0.44069218  0.94853894  0.27837678  1  0.409334  0  0.286794  0.278984  0  0.987291  0
H  H2  1  0.73577729  0.96311161  0.22652804  1  0.426157  0  0.286245  0.281664  0  0.967836  0
H  H3  1  0.52638055  0.09095338  0.13008090  1  0.489197  0  0.293056  0.291092  0  1.026014  0
H  H4  1  0.45534052  0.99606601  0.13445820  1  0.45092  0  0.298207  0.28927  0  0.97145  0
H  H5  1  0.53777266  0.21860606  0.54862628  1  0.414096  0  0.28705  0.278509  0  0.988293  0
H  H6  1  0.23360211  0.26983013  0.53120860  1  0.420887  0  0.286333  0.282232  0  0.967538  0
H  H7  1  0.47211535  0.36734249  0.40607357  1  0.516265  0  0.293175  0.291472  0  1.025527  0
H  H8  1  0.52463925  0.36127232  0.50087006  1  0.483707  0  0.297471  0.288811  0  0.973367  0
H  H9  1  0.25340365  0.53337489  0.39037694  1  0.49803  0  0.285264  0.282312  0  1.032915  0
H  H10  1  0.05892537  0.62012875  0.45762272  1  0.430675  0  0.293447  0.287348  0  0.969861  0
H  H11  1  0.21880912  0.82933832  0.53014538  1  0.436597  0  0.291842  0.293724  0  0.987175  0
H  H12  1  0.36510266  0.75051913  0.54214258  1  0.419514  0  0.289272  0.273702  0  0.974548  0
H  H13  1  0.60136410  0.53853815  0.14269928  1  0.515813  0  0.29044  0.289878  0  1.027249  0
H  H14  1  0.76525402  0.64236576  0.16815962  1  0.436141  0  0.291987  0.280904  0  0.978708  0
H  H15  1  0.56484151  0.83134516  0.28490078  1  0.46232  0  0.293128  0.294372  0  0.994483  0
H  H16  1  0.44050213  0.73290491  0.18837601  1  0.419123  0  0.290541  0.27378  0  0.973833  0
H  H17  1  0.78541530  0.10659669  0.96742433  1  0.487913  0  0.286455  0.283258  0  1.028799  0
H  H18  1  0.97114402  0.03656492  0.88033783  1  0.437133  0  0.293937  0.287938  0  0.969172  0
H  H19  1  0.81176470  0.96695157  0.67057235  1  0.482098  0  0.290847  0.291679  0  0.987154  0
H  H20  1  0.65469415  0.95508103  0.74673820  1  0.41605  0  0.28792  0.272349  0  0.975691  0
H  H21  1  0.47012416  0.36041685  0.96250214  1  0.513978  0  0.291857  0.291487  0  1.02569  0
H  H22  1  0.32757500  0.33864570  0.85697926  1  0.431353  0  0.29301  0.281127  0  0.980865  0
H  H23  1  0.46665452  0.21336645  0.66723461  1  0.434279  0  0.291447  0.291936  0  0.996621  0
H  H24  1  0.64725969  0.30828876  0.76305051  1  0.423641  0  0.289154  0.273007  0  0.971414  0
C  C25  1  0.48992760  0.06792724  0.42954144  1  1.531055  0  0.273945  0.664648  0  4.051988  0
C  C26  1  0.61305188  0.07153496  0.63331101  1  1.480776  0  0.270959  0.663438  0  4.021379  0
C  C27  1  0.41022024  0.86581285  0.42617336  1  1.485628  0  0.268209  0.661515  0  4.021406  0
C  C28  1  0.47677018  0.24748701  0.38592731  1  0.472543  0  0.108839  0.218705  0  4.037236  0
C  C29  1  0.49515443  0.20230702  0.29437672  1  0.039814  0  -0.021662  -0.204763  0  3.865111  0
C  C30  1  0.71468994  0.12035005  0.86399733  1  0.409787  0  0.093703  0.18099  0  4.02169  0
C  C31  1  0.63256098  0.20625229  0.91034498  1  0.0221  0  -0.020942  -0.191299  0  3.885299  0
C  C32  1  0.41719413  0.59035040  0.29314752  1  0.049205  0  -0.0197  -0.185834  0  3.885503  0
C  C33  1  0.49294515  0.63788474  0.25298644  1  0.485742  0  0.091806  0.174172  0  4.023861  0
C  C34  1  0.56567489  0.24788511  0.86287547  1  0.486172  0  0.096835  0.186569  0  4.026529  0
C  C35  1  0.56367731  0.20336319  0.77267747  1  0.404239  0  0.071053  0.151813  0  4.043818  0
C  C36  1  0.64308173  0.11865439  0.72832741  1  0.013639  0  -0.025361  -0.220263  0  3.956557  0
C  C37  1  0.72613045  0.07805093  0.77443319  1  0.462919  0  0.077112  0.162183  0  4.044375  0
C  C38  1  0.48595331  0.72752696  0.29673109  1  0.363842  0  0.07606  0.160055  0  4.048754  0
C  C39  1  0.39453864  0.77183073  0.37997005  1  0.035192  0  -0.027112  -0.224282  0  3.947803  0
C  C40  1  0.31055044  0.72579238  0.41964258  1  0.428342  0  0.080585  0.167043  0  4.046008  0
C  C41  1  0.32629017  0.63650846  0.37761558  1  0.440302  0  0.090193  0.173926  0  4.02749  0
C  C42  1  0.50716059  0.11046328  0.24922636  1  0.484044  0  0.108621  0.218431  0  4.036038  0
C  C43  1  0.49523110  0.06700931  0.29364787  1  0.332741  0  0.053301  0.109481  0  4.07122  0
C  C44  1  0.48621020  0.11380391  0.38251537  1  0.128092  0  -0.022269  -0.196497  0  4.021306  0
C  C45  1  0.47963796  0.20274965  0.42915910  1  0.35852  0  0.052407  0.106883  0  4.072147  0
C  C46  1  0.46078664  0.37447319  0.25293620  1  1.557667  0  0.353  0.497983  0  4.127861  0
C  C47  1  0.56410810  0.24498411  0.12423170  1  1.573181  0  0.352662  0.496767  0  4.129658  0
C  C48  1  0.50178313  0.24742676  0.24970340  1  1.028191  0  0.242448  0.406917  0  4.00362  0
C  C49  1  0.44095448  0.49869846  0.24941754  1  1.034869  0  0.245453  0.404584  0  4.004868  0
C  C50  1  0.52536134  0.37569843  0.12434833  1  1.615014  0  0.357878  0.501039  0  4.144859  0
C  C51  1  0.60661175  0.24984058  0.00165137  1  0.971025  0  0.244681  0.403587  0  4.011242  0
N  N52  1  0.51625612  0.33169055  0.16713809  1  -1.24277  0  -0.207884  -0.252155  0  3.619122  0
N  N53  1  0.55824388  0.20458604  0.16630142  1  -1.246454  0  -0.322361  -0.45155  0  3.294918  0
N  N54  1  0.45148919  0.33159043  0.29242616  1  -1.236115  0  -0.324036  -0.453337  0  3.296897  0
N  N55  1  0.41940161  0.45727395  0.29258740  1  -1.243838  0  -0.327723  -0.463474  0  3.273672  0
N  N56  1  0.48728584  0.45802155  0.16581248  1  -1.255052  0  -0.323275  -0.445892  0  3.310502  0
N  N57  1  0.61308883  0.20551028  0.04225718  1  -1.208123  0  -0.32795  -0.463521  0  3.274316  0
N  N58  1  0.57206671  0.33453578  0.04289169  1  -1.242721  0  -0.323057  -0.445803  0  3.312422  0
N  N59  1  0.49314987  0.97593968  0.24417685  1  -1.197188  0  -0.620163  -0.637629  0  3.282131  0
N  N60  1  0.53366642  0.06123322  0.16405382  1  -1.26105  0  -0.586148  -0.577571  0  3.392841  0
N  N61  1  0.47899442  0.25229439  0.52029680  1  -1.195745  0  -0.620843  -0.637724  0  3.283256  0
N  N62  1  0.45426901  0.33296947  0.43510225  1  -1.324209  0  -0.587477  -0.579036  0  3.393563  0
N  N63  1  0.25924119  0.59893747  0.42415890  1  -1.241208  0  -0.603791  -0.607416  0  3.351035  0
N  N64  1  0.22112468  0.76485753  0.50173819  1  -1.191396  0  -0.607474  -0.610899  0  3.341362  0
N  N65  1  0.57387546  0.60210079  0.17116681  1  -1.262665  0  -0.605132  -0.604632  0  3.348681  0
N  N66  1  0.57418910  0.76711975  0.25232475  1  -1.222058  0  -0.613378  -0.617059  0  3.350479  0
N  N67  1  0.77755325  0.07312459  0.90169947  1  -1.227635  0  -0.601467  -0.603691  0  3.351833  0
N  N68  1  0.80953609  0.99463691  0.73506553  1  -1.229632  0  -0.610076  -0.615376  0  3.335194  0
N  N69  1  0.49924315  0.33108641  0.89912506  1  -1.242737  0  -0.601649  -0.597712  0  3.36059  0
N  N70  1  0.48008182  0.24909371  0.73266279  1  -1.210224  0  -0.616044  -0.623813  0  3.334614  0
O  O71  1  0.21448462  0.90399076  0.48223239  1  -1.252703  0  -0.234793  -0.589534  0  2.36555  0
O  O72  1  0.21331846  0.01078650  0.40913118  1  -1.248109  0  -0.235403  -0.58033  0  2.359843  0
O  O73  1  0.37506858  0.08755220  0.58886424  1  -1.270726  0  -0.247312  -0.626427  0  2.445738  0
O  O74  1  0.63232178  0.91029600  0.40989326  1  -1.289159  0  -0.249277  -0.630805  0  2.453537  0
O  O75  1  0.81147105  0.01562566  0.59499091  1  -1.25508  0  -0.23434  -0.585393  0  2.35784  0
O  O76  1  0.77182807  0.08830001  0.48802352  1  -1.249853  0  -0.236873  -0.5843  0  2.361885  0
