# generated using pymatgen
data_Hf3H15C23NO16
_symmetry_space_group_name_H-M   'P 1'
_cell_length_a   7.79037969
_cell_length_b   18.18900285
_cell_length_c   23.02793369
_cell_angle_alpha   89.40804346
_cell_angle_beta   97.23946135
_cell_angle_gamma   90.22879248
_symmetry_Int_Tables_number   1
_chemical_formula_structural   Hf3H15C23NO16
_chemical_formula_sum   'Hf6 H30 C46 N2 O32'
_cell_volume   3236.84350622
_cell_formula_units_Z   2
loop_
 _symmetry_equiv_pos_site_id
 _symmetry_equiv_pos_as_xyz
  1  'x, y, z'
loop_
 _atom_site_type_symbol
 _atom_site_label
 _atom_site_symmetry_multiplicity
 _atom_site_fract_x
 _atom_site_fract_y
 _atom_site_fract_z
 _atom_site_occupancy
 _atom_site_pbe_bader_charge
 _atom_site_pbe_bader_spin_density
 _atom_site_pbe_cm5_charge
 _atom_site_pbe_ddec_charge
 _atom_site_pbe_ddec_spin_density
 _atom_site_pbe_ddec_sum_bond_order
 _atom_site_pbe_magmom
Hf  Hf0  1  0.98552912  0.10047742  0.92595228  1  2.615395  0  1.460766  2.124657  0  3.374993  0
Hf  Hf1  1  0.03734381  0.88962178  0.06911194  1  2.601117  0  1.462702  2.118729  0  3.399172  0
Hf  Hf2  1  0.76401370  0.93425593  0.94002218  1  2.614531  0  1.447026  2.153714  0  3.318096  0
Hf  Hf3  1  0.25196743  0.05684981  0.05644429  1  2.60784  0  1.441996  2.131671  0  3.3277  0
Hf  Hf4  1  0.80472718  0.05829445  0.05892820  1  2.603234  0  1.429991  2.165861  0  3.327987  0
Hf  Hf5  1  0.21663659  0.92897233  0.93738565  1  2.619015  0  1.427882  2.179348  0  3.268379  0
H  H6  1  0.02911933  0.17493407  0.04654998  1  0.588648  0  0.334178  0.415593  0  0.867321  0
H  H7  1  0.67762568  0.90712505  0.05396078  1  0.609313  0  0.338055  0.422104  0  0.847304  0
H  H8  1  0.39034523  0.91344677  0.05486317  1  0.596653  0  0.334002  0.415565  0  0.86457  0
H  H9  1  0.96240146  0.97032116  0.84863295  1  0.619225  0  0.33846  0.430326  0  0.846225  0
H  H10  1  0.66300824  0.18247102  0.13504044  1  0.651079  0  0.281921  0.390953  0  0.944176  0
H  H11  1  0.58496907  0.83495350  0.85746063  1  0.654747  0  0.292476  0.408913  0  0.926214  0
H  H12  1  0.08249177  0.81340327  0.87959052  1  0.59239  0  0.305447  0.391433  0  0.907577  0
H  H13  1  0.93740483  0.15952528  0.13943974  1  0.574344  0  0.300579  0.394445  0  0.90891  0
H  H14  1  0.39516560  0.17184951  0.13120702  1  0.657876  0  0.288902  0.402871  0  0.934944  0
H  H15  1  0.51430709  0.10380816  0.01712260  1  0.631111  0  0.306931  0.385105  0  0.955497  0
H  H16  1  0.33074813  0.81155295  0.85874480  1  0.645393  0  0.284786  0.39148  0  0.944425  0
H  H17  1  0.75982173  0.03024751  0.16851829  1  0.641049  0  0.324579  0.410651  0  0.871508  0
H  H18  1  0.97514513  0.87597139  0.17751593  1  0.601346  0  0.292083  0.373141  0  0.958548  0
H  H19  1  0.05343136  0.11422280  0.81641798  1  0.611605  0  0.288935  0.370058  0  0.9672  0
H  H20  1  0.40443984  0.99535798  0.85597737  1  0.640506  0  0.29723  0.387106  0  0.956448  0
H  H21  1  0.30418048  0.10728155  0.16546754  1  0.633879  0  0.326086  0.410877  0  0.878729  0
H  H22  1  0.80219415  0.94705654  0.14352823  1  0.643076  0  0.288  0.398242  0  0.952095  0
H  H23  1  0.50282126  0.98734304  0.98017605  1  0.594601  0  0.296735  0.372246  0  0.985602  0
H  H24  1  0.54582398  0.22698241  0.08840535  1  0.637644  0  0.301605  0.383367  0  0.936508  0
H  H25  1  0.46824928  0.76717806  0.89995430  1  0.632684  0  0.307136  0.383307  0  0.929204  0
H  H26  1  0.64878971  0.91128335  0.82742751  1  0.6365  0  0.325944  0.410395  0  0.884847  0
H  H27  1  0.21884342  0.03879940  0.85323508  1  0.659638  0  0.287891  0.400951  0  0.949339  0
H  H28  1  0.19789308  0.49673576  0.00719227  1  0.097017  0  0.117102  0.128477  0  0.981923  0
H  H29  1  0.82531639  0.49570341  0.98190371  1  0.103282  0  0.117335  0.128562  0  0.981196  0
H  H30  1  0.12830673  0.22612728  0.78586500  1  0.151788  0  0.129968  0.160184  0  0.963485  0
H  H31  1  0.82201738  0.19913807  0.71889573  1  0.100733  0  0.120284  0.148124  0  0.982764  0
H  H32  1  0.84966508  0.79488695  0.22360172  1  0.170091  0  0.126495  0.157003  0  0.973608  0
H  H33  1  0.15718608  0.81785094  0.29169413  1  0.113261  0  0.120878  0.14797  0  0.98064  0
H  H34  1  0.80514619  0.02027730  0.49755792  1  0.107146  0  0.111694  0.121982  0  0.988892  0
H  H35  1  0.17994788  0.99846603  0.51205326  1  0.081207  0  0.11194  0.12202  0  0.988823  0
C  C36  1  0.74759249  0.21726463  0.97998011  1  1.670721  0  0.238969  0.684867  0  4.204392  0
C  C37  1  0.25652212  0.21806981  0.98495650  1  1.673866  0  0.242795  0.685104  0  4.201112  0
C  C38  1  0.65031163  0.07574274  0.83160700  1  1.666187  0  0.245324  0.690839  0  4.193841  0
C  C39  1  0.77741149  0.77273951  0.00052769  1  1.714361  0  0.245389  0.691232  0  4.190874  0
C  C40  1  0.27110411  0.77382886  0.01546904  1  1.69015  0  0.243345  0.689132  0  4.195986  0
C  C41  1  0.34430168  0.93986739  0.16770207  1  1.650306  0  0.243005  0.695364  0  4.184469  0
C  C42  1  0.41809931  0.42952804  0.99538114  1  0.091077  0  0.016473  0.097044  0  4.05874  0
C  C43  1  0.59905770  0.42923564  0.98889977  1  0.043625  0  0.016285  0.096557  0  4.062699  0
C  C44  1  0.68867979  0.49589619  0.98752423  1  -0.00178  0  -0.063655  -0.155089  0  3.901929  0
C  C45  1  0.60472889  0.56278143  0.99323746  1  0.123416  0  0.017128  0.098637  0  4.059829  0
C  C46  1  0.42479666  0.56305916  0.00093343  1  0.122777  0  0.017823  0.098834  0  4.057287  0
C  C47  1  0.33459740  0.49639474  0.00163685  1  0.05547  0  -0.063847  -0.155978  0  3.900328  0
C  C48  1  0.23377350  0.14900818  0.72685584  1  0.355126  0  0.095084  0.152042  0  4.056153  0
C  C49  1  0.10680483  0.19215685  0.74722454  1  -0.048117  0  -0.087475  -0.179958  0  3.988087  0
C  C50  1  0.94814710  0.17765853  0.71275104  1  0.068813  0  -0.091649  -0.187193  0  3.971089  0
C  C51  1  0.97619051  0.12750637  0.66937227  1  0.412377  0  0.093016  0.169645  0  4.077775  0
C  C52  1  0.75047908  0.87569584  0.28089284  1  0.444562  0  0.091696  0.144769  0  4.062063  0
C  C53  1  0.87398351  0.82963029  0.26173954  1  -0.04472  0  -0.088761  -0.175571  0  3.985429  0
C  C54  1  0.03273994  0.84187416  0.29679508  1  -0.00562  0  -0.093944  -0.192474  0  3.977686  0
C  C55  1  0.00759821  0.89334246  0.33954695  1  0.411175  0  0.0933  0.168033  0  4.07449  0
C  C56  1  0.60655593  0.04009837  0.55208820  1  0.124966  0  0.007193  0.089678  0  4.069366  0
C  C57  1  0.42469982  0.03415622  0.55609579  1  0.118633  0  0.009356  0.110776  0  4.068343  0
C  C58  1  0.31771047  0.00359968  0.50878149  1  -0.030991  0  -0.071176  -0.155434  0  3.882093  0
C  C59  1  0.37857946  0.97879946  0.45748210  1  0.135313  0  0.007314  0.088755  0  4.070009  0
C  C60  1  0.56023427  0.98517882  0.45334797  1  0.141624  0  0.008291  0.109321  0  4.073408  0
C  C61  1  0.66737671  0.01525352  0.50080240  1  -0.011344  0  -0.069899  -0.154402  0  3.883079  0
C  C62  1  0.64319243  0.96195165  0.40545285  1  0.339878  0  -0.035827  -0.137942  0  4.120458  0
C  C63  1  0.73805847  0.94312207  0.37004286  1  -0.042913  0  0.077523  0.011251  0  4.146452  0
C  C64  1  0.25420279  0.94893676  0.41407140  1  0.002011  0  -0.029679  -0.058059  0  4.080417  0
C  C65  1  0.13120011  0.92403813  0.38160324  1  -0.3064  0  -0.044637  -0.13473  0  4.139997  0
C  C66  1  0.34167788  0.05876573  0.60357851  1  0.226006  0  -0.035047  -0.138745  0  4.114696  0
C  C67  1  0.24722546  0.07962674  0.63846710  1  0.06678  0  0.081039  0.024156  0  4.150128  0
C  C68  1  0.85361333  0.09567084  0.62759641  1  -0.387253  0  -0.043867  -0.13042  0  4.133686  0
C  C69  1  0.73074398  0.07019074  0.59539131  1  0.080962  0  -0.030053  -0.060598  0  4.079804  0
C  C70  1  0.33488078  0.36033994  0.99394228  1  -0.57337  0  -0.017585  -0.022419  0  4.067644  0
C  C71  1  0.29462977  0.29556993  0.99056866  1  0.313831  0  -0.029719  -0.174572  0  3.922471  0
C  C72  1  0.73663989  0.69550454  0.99401338  1  0.011126  0  -0.025918  -0.169619  0  3.916379  0
C  C73  1  0.68876787  0.63165140  0.99277320  1  -0.295178  0  -0.018039  -0.025059  0  4.075297  0
C  C74  1  0.30851138  0.69645975  0.01212557  1  -0.000512  0  -0.02698  -0.166367  0  3.917743  0
C  C75  1  0.34804785  0.63219961  0.00765233  1  -0.265283  0  -0.019211  -0.029833  0  4.07398  0
C  C76  1  0.67663494  0.35993727  0.98406153  1  -0.39221  0  -0.01953  -0.027464  0  4.075882  0
C  C77  1  0.71300108  0.29498064  0.98209517  1  0.170392  0  -0.029824  -0.172301  0  3.925987  0
C  C78  1  0.46630356  0.91827045  0.21737846  1  0.190313  0  -0.038314  -0.179586  0  3.919315  0
C  C79  1  0.59095008  0.89690274  0.25079006  1  -0.439517  0  -0.019477  -0.042749  0  4.111219  0
C  C80  1  0.52505231  0.10713190  0.78648881  1  0.245849  0  -0.035934  -0.181759  0  3.906601  0
C  C81  1  0.39631341  0.12930663  0.75556498  1  -0.467676  0  -0.014688  -0.032637  0  4.102931  0
N  N82  1  0.15550106  0.11134888  0.67700113  1  -1.19191  0  -0.194628  0.022603  0  3.777444  0
N  N83  1  0.82992600  0.91257266  0.33094465  1  -1.211605  0  -0.196311  0.040469  0  3.745635  0
O  O84  1  0.11978876  0.10473147  0.85433697  1  -1.240047  0  -0.647293  -0.877517  0  2.057428  0
O  O85  1  0.82473291  0.19585521  0.93789529  1  -1.15237  0  -0.332997  -0.554072  0  2.331216  0
O  O86  1  0.78477674  0.11302036  0.84859834  1  -1.162124  0  -0.326222  -0.567181  0  2.321758  0
O  O87  1  0.33026658  0.17546591  0.02487008  1  -1.176223  0  -0.316655  -0.58569  0  2.329548  0
O  O88  1  0.61504753  0.01271254  0.85219897  1  -1.186459  0  -0.291428  -0.582735  0  2.282649  0
O  O89  1  0.15146798  0.19883248  0.94136902  1  -1.147672  0  -0.322205  -0.541082  0  2.311388  0
O  O90  1  0.70042716  0.17715777  0.02082058  1  -1.180287  0  -0.306371  -0.585949  0  2.311287  0
O  O91  1  0.80597287  0.04049362  0.96806803  1  -1.240129  0  -0.74466  -1.088228  0  2.121094  0
O  O92  1  0.02066963  0.12490483  0.03225186  1  -1.234354  0  -0.649242  -0.9846  0  2.341005  0
O  O93  1  0.96303078  0.97962512  0.89015142  1  -1.26201  0  -0.643773  -0.969785  0  2.260839  0
O  O94  1  0.18629231  0.04001982  0.96821880  1  -1.233309  0  -0.740266  -1.061609  0  2.094467  0
O  O95  1  0.52219058  0.05779387  0.04033994  1  -1.26776  0  -0.645488  -0.91409  0  2.083815  0
O  O96  1  0.55594130  0.21433451  0.13013706  1  -1.268297  0  -0.584238  -0.740829  0  1.95969  0
O  O97  1  0.03716856  0.00273878  0.07873970  1  -1.219324  0  -0.758  -1.072012  0  2.183193  0
O  O98  1  0.76568094  0.93550124  0.03747241  1  -1.245924  0  -0.642382  -0.93386  0  2.255931  0
O  O99  1  0.00354711  0.89791249  0.97820539  1  -1.220347  0  -0.752974  -1.098084  0  2.191306  0
O  O100  1  0.28576379  0.93884833  0.03871380  1  -1.241563  0  -0.645853  -0.971053  0  2.311855  0
O  O101  1  0.49601297  0.94543716  0.95272391  1  -1.255189  0  -0.668612  -0.944009  0  2.098059  0
O  O102  1  0.71143075  0.81564352  0.95957715  1  -1.170426  0  -0.324885  -0.572091  0  2.298869  0
O  O103  1  0.87102308  0.79095443  0.04714120  1  -1.153776  0  -0.321409  -0.552395  0  2.294615  0
O  O104  1  0.27957962  0.98717363  0.85863383  1  -1.290529  0  -0.625905  -0.807727  0  2.114306  0
O  O105  1  0.20263230  0.79492700  0.05990903  1  -1.16369  0  -0.341185  -0.56875  0  2.291824  0
O  O106  1  0.68646108  0.87530427  0.85813446  1  -1.264879  0  -0.602931  -0.797494  0  2.084677  0
O  O107  1  0.15473858  0.85474009  0.87083443  1  -1.226432  0  -0.652774  -0.902702  0  1.937521  0
O  O108  1  0.44523497  0.78439645  0.85935160  1  -1.251953  0  -0.576451  -0.729825  0  1.972556  0
O  O109  1  0.31100159  0.81423900  0.97384078  1  -1.16616  0  -0.310325  -0.581625  0  2.306091  0
O  O110  1  0.89897290  0.88046395  0.14082741  1  -1.238743  0  -0.644247  -0.884299  0  2.023728  0
O  O111  1  0.28240269  0.13856507  0.13053900  1  -1.277995  0  -0.596072  -0.797211  0  2.069955  0
O  O112  1  0.23628146  0.89062288  0.14780515  1  -1.169375  0  -0.330248  -0.575831  0  2.292714  0
O  O113  1  0.35851006  0.00414458  0.14601368  1  -1.174741  0  -0.322649  -0.59129  0  2.28459  0
O  O114  1  0.83553000  0.12885009  0.13042108  1  -1.235929  0  -0.650699  -0.935225  0  1.927549  0
O  O115  1  0.73123822  0.99665108  0.13597517  1  -1.266235  0  -0.604255  -0.786733  0  2.1517  0
