# generated using pymatgen
data_CoH20(C8O5)2
_symmetry_space_group_name_H-M   'P 1'
_cell_length_a   4.79503856
_cell_length_b   5.59832337
_cell_length_c   15.44891784
_cell_angle_alpha   87.82107807
_cell_angle_beta   83.08790675
_cell_angle_gamma   84.28102008
_symmetry_Int_Tables_number   1
_chemical_formula_structural   CoH20(C8O5)2
_chemical_formula_sum   'Co1 H20 C16 O10'
_cell_volume   409.50790365
_cell_formula_units_Z   1
loop_
 _symmetry_equiv_pos_site_id
 _symmetry_equiv_pos_as_xyz
  1  'x, y, z'
loop_
 _atom_site_type_symbol
 _atom_site_label
 _atom_site_symmetry_multiplicity
 _atom_site_fract_x
 _atom_site_fract_y
 _atom_site_fract_z
 _atom_site_occupancy
 _atom_site_pbe_cm5_charge
 _atom_site_pbe_ddec_charge
 _atom_site_pbe_ddec_spin_density
 _atom_site_pbe_ddec_sum_bond_order
 _atom_site_pbe_magmom
Co  Co0  1  0.00001377  0.49999102  0.99999901  1  0.637722  1.074053  -2.830595  2.206628  -2.641
H  H1  1  0.07470858  0.80505889  0.30153968  1  0.105364  0.089577  -0.000167  1.039122  0.0
H  H2  1  0.92528869  0.19495429  0.69845608  1  0.105374  0.089628  -0.000167  1.039175  0.0
H  H3  1  0.34613267  0.94988937  0.23530444  1  0.112432  0.109377  0.000111  0.97057  0.0
H  H4  1  0.65386039  0.05012378  0.76469212  1  0.112391  0.109329  0.000111  0.970367  0.0
H  H5  1  0.42584900  0.91398062  0.37741905  1  0.097611  0.099752  -3.9e-05  1.060491  0.0
H  H6  1  0.57414574  0.08601811  0.62258476  1  0.097663  0.099838  -3.9e-05  1.060444  0.0
H  H7  1  0.70984216  0.86668305  0.49760098  1  0.096921  0.094446  3e-06  1.040327  0.0
H  H8  1  0.29015007  0.13331929  0.50239963  1  0.096908  0.094398  3e-06  1.040261  0.0
H  H9  1  0.06529261  0.17148264  0.40494705  1  0.094553  0.087374  -9e-06  1.047  0.0
H  H10  1  0.93469773  0.82851788  0.59505495  1  0.094544  0.08741  -9e-06  1.047032  0.0
H  H11  1  0.77733485  0.21930915  0.28389726  1  0.100351  0.112664  1.6e-05  1.032654  0.0
H  H12  1  0.22264030  0.78071283  0.71610698  1  0.100382  0.112692  1.6e-05  1.03252  0.0
H  H13  1  0.47699572  0.56604686  0.88669807  1  0.303026  0.393778  -0.000808  0.941755  -0.002
H  H14  1  0.52302364  0.43393945  0.11330046  1  0.302888  0.393634  -0.000808  0.941979  -0.002
H  H15  1  0.23942881  0.79193340  0.87809518  1  0.308841  0.405934  0.000106  0.918257  0.0
H  H16  1  0.76058766  0.20804214  0.12190100  1  0.308887  0.405981  0.000106  0.918189  0.0
H  H17  1  0.74891451  0.86882806  0.06127829  1  0.293536  0.375154  -0.000456  0.973628  -0.001
H  H18  1  0.25110088  0.13115645  0.93871846  1  0.293497  0.375194  -0.000456  0.973599  -0.001
H  H19  1  0.55139819  0.79061087  0.98893520  1  0.299912  0.393992  -9e-06  0.937442  0.0
H  H20  1  0.44862351  0.20937370  0.01105873  1  0.299863  0.393961  -1e-05  0.937484  0.0
C  C21  1  0.08204556  0.76473504  0.16400320  1  0.221663  0.625199  0.002803  4.130877  0.001
C  C22  1  0.91796093  0.23527094  0.83599879  1  0.221672  0.625254  0.002802  4.130886  0.001
C  C23  1  0.23327073  0.78640243  0.24387789  1  -0.06792  -0.132267  -0.00251  3.893315  -0.004
C  C24  1  0.76672211  0.21361252  0.75611867  1  -0.06797  -0.132417  -0.002512  3.893342  -0.004
C  C25  1  0.57840757  0.56803700  0.32262319  1  0.078718  0.254076  5.4e-05  4.061467  0.0
C  C26  1  0.42158193  0.43197074  0.67737488  1  0.078783  0.254223  5.5e-05  4.061403  0.0
C  C27  1  0.56366598  0.74940494  0.38327687  1  -0.111886  -0.220573  -8.3e-05  4.037122  0.0
C  C28  1  0.43632728  0.25060638  0.61672360  1  -0.111908  -0.220716  -8.4e-05  4.037284  0.0
C  C29  1  0.72877174  0.72104703  0.45193421  1  -0.092959  -0.107726  5e-06  3.993271  0.0
C  C30  1  0.27120303  0.27896057  0.54807216  1  -0.092971  -0.107645  5e-06  3.993477  0.0
C  C31  1  0.91374343  0.51432128  0.46319001  1  -0.021447  0.040008  -2.4e-05  4.013989  0.0
C  C32  1  0.08626450  0.48569008  0.53681509  1  -0.021469  0.039876  -2.4e-05  4.014306  0.0
C  C33  1  0.92526043  0.33581149  0.40048347  1  -0.092461  -0.102965  6e-06  3.980928  0.0
C  C34  1  0.07473490  0.66419980  0.59952210  1  -0.092408  -0.102958  6e-06  3.981024  0.0
C  C35  1  0.76234483  0.36011371  0.33166986  1  -0.105711  -0.190217  4.4e-05  3.973026  0.0
C  C36  1  0.23764108  0.63988855  0.66833552  1  -0.105764  -0.190283  4.3e-05  3.972989  0.0
O  O37  1  0.31687404  0.66762721  0.91820730  1  -0.559961  -0.778813  -0.026212  2.225102  -0.04
O  O38  1  0.68314156  0.33235550  0.08179012  1  -0.559894  -0.778761  -0.026212  2.22516  -0.04
O  O39  1  0.74507641  0.81418260  0.00030923  1  -0.580306  -0.756431  -0.033104  2.203112  -0.052
O  O40  1  0.25494548  0.18580014  0.99968925  1  -0.580227  -0.756469  -0.033105  2.203232  -0.052
O  O41  1  0.18301163  0.60296537  0.10995180  1  -0.305675  -0.574713  -0.024929  2.363498  -0.044
O  O42  1  0.81699594  0.39703165  0.89004832  1  -0.305634  -0.57471  -0.024928  2.363659  -0.044
O  O43  1  0.86516602  0.91071051  0.15737043  1  -0.313179  -0.567266  0.00067  2.224757  0.0
O  O44  1  0.13482689  0.08928650  0.84262246  1  -0.313165  -0.567252  0.00067  2.224673  0.0
O  O45  1  0.42581166  0.57835989  0.25309557  1  -0.180279  -0.187315  -0.000169  2.611075  0.0
O  O46  1  0.57419087  0.42164433  0.74690141  1  -0.18031  -0.187303  -0.000169  2.611038  0.0
