# generated using pymatgen
data_Cu2H2C2N3Cl2
_symmetry_space_group_name_H-M   'P 1'
_cell_length_a   6.82720699
_cell_length_b   7.01361130
_cell_length_c   12.11135219
_cell_angle_alpha   90.00130380
_cell_angle_beta   90.00139006
_cell_angle_gamma   89.99891801
_symmetry_Int_Tables_number   1
_chemical_formula_structural   Cu2H2C2N3Cl2
_chemical_formula_sum   'Cu8 H8 C8 N12 Cl8'
_cell_volume   579.93243137
_cell_formula_units_Z   4
loop_
 _symmetry_equiv_pos_site_id
 _symmetry_equiv_pos_as_xyz
  1  'x, y, z'
loop_
 _atom_site_type_symbol
 _atom_site_label
 _atom_site_symmetry_multiplicity
 _atom_site_fract_x
 _atom_site_fract_y
 _atom_site_fract_z
 _atom_site_occupancy
 _atom_site_hle17_ddec_charge
 _atom_site_hle17_ddec_spin_density
 _atom_site_hle17_ddec_sum_bond_order
 _atom_site_hle17_magmom
 _atom_site_hse06_10hf_bader_charge
 _atom_site_hse06_10hf_bader_spin_density
 _atom_site_hse06_10hf_ddec_charge
 _atom_site_hse06_10hf_ddec_spin_density
 _atom_site_hse06_10hf_ddec_sum_bond_order
 _atom_site_hse06_10hf_magmom
 _atom_site_hse06_ddec_charge
 _atom_site_hse06_ddec_spin_density
 _atom_site_hse06_ddec_sum_bond_order
 _atom_site_hse06_magmom
 _atom_site_pbe_cm5_charge
 _atom_site_pbe_ddec_charge
 _atom_site_pbe_ddec_spin_density
 _atom_site_pbe_ddec_sum_bond_order
 _atom_site_pbe_magmom
Cu  Cu0  1  0.99999700  0.99999772  0.50000465  1  0.684802  0.526528  1.946751  0.389  0.962304  0.51342  0.674738  0.649029  2.334416  0.513  0.799306  0.793616  2.248676  0.652  0.586455  0.614753  0.548709  2.383148  0.428
Cu  Cu1  1  0.50000588  0.00000101  0.49999713  1  0.684671  -0.526417  1.946759  -0.389  0.962263  -0.513333  0.674619  -0.648929  2.334423  -0.513  0.799188  -0.793615  2.248721  -0.652  0.586391  0.614619  -0.54861  2.383206  -0.428
Cu  Cu2  1  0.49999857  0.49999719  0.99999332  1  0.684715  0.526449  1.94668  0.389  0.962312  0.513395  0.674688  0.649009  2.334284  0.513  0.799272  0.79368  2.248592  0.652  0.586338  0.614673  0.548673  2.383091  0.428
Cu  Cu3  1  0.99999220  0.50000121  0.99999425  1  0.684869  -0.526598  1.946977  -0.389  0.962246  -0.51347  0.674772  -0.649095  2.334683  -0.513  0.799307  -0.793648  2.24898  -0.652  0.586494  0.614756  -0.548731  2.383502  -0.428
Cu  Cu4  1  0.24997552  0.50002446  0.53068150  1  0.563088  -0.000119  1.85566  0.0  0.662455  -8.9e-05  0.416161  -0.000107  2.38483  0.0  0.396499  -3.1e-05  2.340611  0.0  0.414788  0.432882  -0.00011  2.412401  0.0
Cu  Cu5  1  0.25000057  0.99998807  0.96931955  1  0.563165  0.000175  1.855407  0.0  0.662577  7.6e-05  0.416195  9.2e-05  2.3846  0.0  0.396567  1.9e-05  2.340376  0.0  0.414758  0.432927  8.4e-05  2.412098  0.0
Cu  Cu6  1  0.75002495  0.49997880  0.46935733  1  0.562928  -0.000153  1.855976  0.0  0.662043  -7.1e-05  0.416011  -8.6e-05  2.385142  0.0  0.396372  -2.5e-05  2.340942  0.0  0.414626  0.43272  -9.2e-05  2.412707  0.0
Cu  Cu7  1  0.74999843  0.00001662  0.03065570  1  0.562895  9.7e-05  1.855678  0.0  0.662188  6.5e-05  0.415884  8e-05  2.384889  0.0  0.396257  1.6e-05  2.340664  0.0  0.414577  0.432615  7.5e-05  2.41236  0.0
H  H8  1  0.94282207  0.02409540  0.76743040  1  0.098023  9.3e-05  0.948421  0.0  0.158928  6e-05  0.110915  0.00019  1.00696  0.0  0.114127  0.000182  1.001934  0.0  0.119881  0.108775  0.000221  1.010131  0.0
H  H9  1  0.55712497  0.97592239  0.76742248  1  0.097935  -7.4e-05  0.94827  0.0  0.159364  -6e-05  0.110831  -0.00019  1.006823  0.0  0.114038  -0.000181  1.001801  0.0  0.119941  0.108695  -0.00022  1.009993  0.0
H  H10  1  0.55711255  0.52411309  0.73258359  1  0.097986  7.6e-05  0.948192  0.0  0.159623  6e-05  0.110868  0.00019  1.006775  0.0  0.114077  0.000181  1.001745  0.0  0.119939  0.108736  0.00022  1.009944  0.0
H  H11  1  0.94280369  0.47592186  0.73257847  1  0.098151  -8.1e-05  0.948576  0.0  0.158664  -6.1e-05  0.111089  -0.00019  1.007007  0.0  0.1143  -0.000182  1.001978  0.0  0.119918  0.108927  -0.00022  1.010207  0.0
H  H12  1  0.05716961  0.97591071  0.23258201  1  0.098042  7.3e-05  0.948487  0.0  0.159043  6e-05  0.110914  0.00019  1.007044  0.0  0.114127  0.000181  1.00201  0.0  0.119878  0.108729  0.00022  1.010273  0.0
H  H13  1  0.44287256  0.02407232  0.23258415  1  0.098015  -9.6e-05  0.948261  0.0  0.159399  -6e-05  0.110895  -0.00019  1.006829  0.0  0.114103  -0.000181  1.001804  0.0  0.119967  0.108758  -0.00022  1.01  0.0
H  H14  1  0.44289230  0.47588447  0.26741808  1  0.097946  8.2e-05  0.948161  0.0  0.159604  6e-05  0.110829  0.00019  1.00675  0.0  0.114036  0.000181  1.001724  0.0  0.11993  0.108698  0.00022  1.009919  0.0
H  H15  1  0.05718359  0.52407997  0.26742485  1  0.097993  -8.2e-05  0.948502  0.0  0.158779  -6e-05  0.110898  -0.00019  1.007023  0.0  0.114108  -0.000181  1.001994  0.0  0.119834  0.108764  -0.00022  1.010193  0.0
C  C16  1  0.09369546  0.01213156  0.74076524  1  0.223288  -0.003219  3.658669  -0.003  1.029066  -0.001613  0.174696  -0.000817  3.918419  0.0  0.193307  -0.001184  3.928071  -0.001  0.136923  0.163875  -0.000614  3.910971  0.0
C  C17  1  0.40626171  0.98785717  0.74076390  1  0.223327  0.003123  3.658979  0.002  1.029233  0.00161  0.17472  0.000815  3.91881  0.0  0.193328  0.001184  3.928465  0.001  0.136822  0.163903  0.000614  3.911367  0.0
C  C18  1  0.40625067  0.51214254  0.75922443  1  0.223301  -0.003113  3.658557  -0.002  1.027879  -0.001613  0.174653  -0.000816  3.918434  0.0  0.193263  -0.001185  3.92809  -0.001  0.136734  0.163844  -0.000615  3.910975  0.0
C  C19  1  0.09366628  0.48787828  0.75922874  1  0.222841  0.003166  3.659259  0.003  1.029375  0.001613  0.174231  0.000818  3.91901  0.0  0.192837  0.001184  3.928667  0.001  0.136716  0.163447  0.000615  3.911566  0.0
C  C20  1  0.90631233  0.98786884  0.25922735  1  0.223292  -0.003118  3.658503  -0.002  1.028794  -0.001613  0.174677  -0.000817  3.918278  0.0  0.193291  -0.001184  3.927927  -0.001  0.136878  0.16389  -0.000614  3.910852  0.0
C  C21  1  0.59374022  0.01214181  0.25922704  1  0.22324  0.00322  3.658787  0.003  1.029179  0.001611  0.174603  0.000815  3.918637  0.0  0.193213  0.001183  3.92829  0.001  0.136735  0.16378  0.000614  3.911192  0.0
C  C22  1  0.59374979  0.48785929  0.24077559  1  0.223303  -0.003149  3.65833  -0.002  1.027433  -0.001613  0.174646  -0.000815  3.918224  0.0  0.193257  -0.001185  3.927882  -0.001  0.136726  0.163833  -0.000615  3.910756  0.0
C  C23  1  0.90632540  0.51211785  0.24077211  1  0.223045  0.003162  3.659069  0.003  1.029489  0.001612  0.174429  0.000817  3.918842  0.0  0.193037  0.001183  3.928501  0.001  0.136788  0.163618  0.000614  3.911386  0.0
N  N24  1  0.15015410  0.00741672  0.63565181  1  -0.259524  0.044778  3.347646  0.057  -0.799215  0.052706  -0.209204  0.03595  3.648788  0.047  -0.244059  0.03576  3.68295  0.05  -0.297548  -0.191999  0.032618  3.631823  0.042
N  N25  1  0.34986005  0.99259782  0.63565307  1  -0.259164  -0.044694  3.347703  -0.057  -0.742896  -0.052673  -0.20892  -0.035931  3.648819  -0.047  -0.243765  -0.035749  3.682986  -0.05  -0.297409  -0.191739  -0.032599  3.631863  -0.042
N  N26  1  0.34981703  0.50741004  0.86433862  1  -0.259486  0.044717  3.347865  0.057  -0.798725  0.052704  -0.209143  0.035949  3.648925  0.047  -0.243999  0.035762  3.683112  0.05  -0.297423  -0.191939  0.032614  3.63196  0.042
N  N27  1  0.15011911  0.49259922  0.86434211  1  -0.259213  -0.044755  3.347941  -0.057  -0.742635  -0.052708  -0.208944  -0.035954  3.649067  -0.047  -0.243796  -0.035763  3.683245  -0.05  -0.297463  -0.191751  -0.032621  3.632092  -0.042
N  N28  1  0.84985515  0.99257941  0.36434821  1  -0.259421  0.044741  3.347402  0.057  -0.742417  0.052698  -0.209112  0.035947  3.648514  0.047  -0.243971  0.035756  3.682686  0.05  -0.297482  -0.191919  0.032616  3.631538  0.042
N  N29  1  0.65014920  0.00740686  0.36434448  1  -0.259382  -0.044749  3.347607  -0.057  -0.799215  -0.052677  -0.20909  -0.035932  3.648727  -0.047  -0.243935  -0.03575  3.682899  -0.05  -0.297475  -0.191899  -0.032601  3.631768  -0.042
N  N30  1  0.65017758  0.49259037  0.13565728  1  -0.259445  0.044732  3.347605  0.057  -0.798653  0.052696  -0.209139  0.035943  3.648684  0.047  -0.243994  0.035757  3.682866  0.05  -0.297403  -0.191933  0.032611  3.63171  0.042
N  N31  1  0.84987989  0.50740118  0.13565543  1  -0.259243  -0.04475  3.347776  -0.057  -0.742849  -0.052703  -0.208927  -0.035951  3.648848  -0.047  -0.243779  -0.03576  3.683025  -0.05  -0.297439  -0.191736  -0.03262  3.631879  -0.042
N  N32  1  0.24999273  0.99999491  0.80959750  1  -0.379324  3.2e-05  3.30712  0.0  -1.28189  5e-06  -0.300052  4e-06  3.628567  0.0  -0.312279  0.0  3.628573  0.0  -0.392391  -0.291491  5e-06  3.625719  0.0
N  N33  1  0.24995113  0.50001761  0.69039695  1  -0.378962  -2.1e-05  3.307238  0.0  -1.281881  -2e-06  -0.299727  -2e-06  3.628714  0.0  -0.311946  1e-06  3.62872  0.0  -0.392191  -0.291167  -2e-06  3.625865  0.0
N  N34  1  0.75001799  0.00000692  0.19039096  1  -0.379103  -1.7e-05  3.306678  0.0  -1.281875  4e-06  -0.299781  3e-06  3.628023  0.0  -0.312006  1e-06  3.62803  0.0  -0.392159  -0.291215  4e-06  3.625148  0.0
N  N35  1  0.75004640  0.49998707  0.30961546  1  -0.378905  -1.5e-05  3.306433  0.0  -1.281043  -3e-06  -0.299618  -3e-06  3.627774  0.0  -0.311848  0.0  3.627803  0.0  -0.391984  -0.291053  -2e-06  3.624921  0.0
Cl  Cl36  1  0.20387328  0.25148741  0.42062413  1  -0.496201  0.065361  1.363626  0.078  -0.589094  0.089584  -0.471926  0.05949  1.76697  0.075  -0.505241  0.052301  1.72909  0.069  -0.263706  -0.458806  0.056062  1.794591  0.069
Cl  Cl37  1  0.29613306  0.74849017  0.42062390  1  -0.496261  -0.065348  1.363888  -0.078  -0.588098  -0.08957  -0.471951  -0.05948  1.767235  -0.075  -0.505251  -0.052292  1.729348  -0.069  -0.263742  -0.458839  -0.05605  1.794865  -0.069
Cl  Cl38  1  0.29613739  0.75149618  0.07938127  1  -0.496233  0.065361  1.363789  0.078  -0.58867  0.089577  -0.471901  0.059486  1.767129  0.075  -0.505217  0.052295  1.729262  0.069  -0.263746  -0.458788  0.056056  1.794744  0.069
Cl  Cl39  1  0.20388206  0.24853786  0.07937567  1  -0.496236  -0.06537  1.363722  -0.078  -0.588614  -0.089602  -0.471955  -0.0595  1.767114  -0.075  -0.505276  -0.05231  1.729243  -0.069  -0.263674  -0.458834  -0.056074  1.79472  -0.069
Cl  Cl40  1  0.79612572  0.74850016  0.57938663  1  -0.496182  0.065336  1.364033  0.078  -0.588456  0.089568  -0.471909  0.059481  1.767479  0.075  -0.505237  0.052292  1.72961  0.069  -0.263713  -0.458785  0.056053  1.795092  0.069
Cl  Cl41  1  0.70386887  0.25151309  0.57938933  1  -0.496221  -0.06534  1.364166  -0.078  -0.588141  -0.08956  -0.471923  -0.059474  1.76761  -0.075  -0.50524  -0.052289  1.729741  -0.069  -0.263726  -0.458807  -0.056045  1.795234  -0.069
Cl  Cl42  1  0.70389237  0.24850422  0.92060307  1  -0.496157  0.065332  1.363932  0.078  -0.588703  0.089547  -0.471847  0.059468  1.767377  0.075  -0.505162  0.052277  1.729505  0.069  -0.263688  -0.458739  0.056042  1.794996  0.069
Cl  Cl43  1  0.79609204  0.75146824  0.92061114  1  -0.496197  -0.065354  1.363911  -0.078  -0.589165  -0.089579  -0.471895  -0.059487  1.767318  -0.075  -0.505215  -0.052298  1.729441  -0.069  -0.263674  -0.458776  -0.056064  1.794919  -0.069
