# generated using pymatgen
data_KTbH10(C2O3)5
_symmetry_space_group_name_H-M   'P 1'
_cell_length_a   8.29606214
_cell_length_b   10.06698475
_cell_length_c   10.06707114
_cell_angle_alpha   105.65922947
_cell_angle_beta   89.99973542
_cell_angle_gamma   89.99986360
_symmetry_Int_Tables_number   1
_chemical_formula_structural   KTbH10(C2O3)5
_chemical_formula_sum   'K2 Tb2 H20 C20 O30'
_cell_volume   809.55906584
_cell_formula_units_Z   2
loop_
 _symmetry_equiv_pos_site_id
 _symmetry_equiv_pos_as_xyz
  1  'x, y, z'
loop_
 _atom_site_type_symbol
 _atom_site_label
 _atom_site_symmetry_multiplicity
 _atom_site_fract_x
 _atom_site_fract_y
 _atom_site_fract_z
 _atom_site_occupancy
 _atom_site_hle17_bader_spin_density
 _atom_site_hle17_ddec_charge
 _atom_site_hle17_ddec_spin_density
 _atom_site_hle17_ddec_sum_bond_order
 _atom_site_hle17_magmom
 _atom_site_hse06_10hf_bader_spin_density
 _atom_site_hse06_10hf_ddec_charge
 _atom_site_hse06_10hf_ddec_spin_density
 _atom_site_hse06_10hf_ddec_sum_bond_order
 _atom_site_hse06_10hf_magmom
 _atom_site_hse06_bader_spin_density
 _atom_site_hse06_ddec_charge
 _atom_site_hse06_ddec_spin_density
 _atom_site_hse06_ddec_sum_bond_order
 _atom_site_hse06_magmom
 _atom_site_pbe_bader_spin_density
 _atom_site_pbe_cm5_charge
 _atom_site_pbe_ddec_charge
 _atom_site_pbe_ddec_spin_density
 _atom_site_pbe_ddec_sum_bond_order
 _atom_site_pbe_magmom
K  K0  1  0.53565958  0.98971286  0.98970851  1  0  0.926563  0  0.458381  0  0  0.869585  0  0.649357  0  0  0.8866  0  0.625463  0  0  0.763458  0.856957  0  0.667678  0
K  K1  1  0.03566386  0.01029116  0.01029021  1  0  0.926524  0  0.458389  0  0  0.869544  0  0.649353  0  0  0.88657  0  0.62545  0  0  0.763423  0.856922  0  0.667669  0
Tb  Tb2  1  0.65698265  0.31546776  0.31546917  1  0  2.23218  0  1.550021  0  0  2.07266  0  2.022643  0  0  2.205507  0  1.820408  0  0  1.434005  2.038282  0  2.052846  0
Tb  Tb3  1  0.15697760  0.68453077  0.68453164  1  0  2.232163  0  1.550086  0  0  2.072609  0  2.022768  0  0  2.205485  0  1.820483  0  0  1.43402  2.03824  0  2.052962  0
H  H4  1  0.35792803  0.25706360  0.16021226  1  0  0.434853  0  0.86794  0  0  0.40756  0  0.925605  0  0  0.417369  0  0.911561  0  0  0.308216  0.400621  0  0.935747  0
H  H5  1  0.85792530  0.74293843  0.83979066  1  0  0.434803  0  0.868021  0  0  0.40751  0  0.925689  0  0  0.417323  0  0.911639  0  0  0.308207  0.400569  0  0.935832  0
H  H6  1  0.35792790  0.16021228  0.25706465  1  0  0.434806  0  0.868025  0  0  0.407544  0  0.925629  0  0  0.417349  0  0.911592  0  0  0.308225  0.400604  0  0.93577  0
H  H7  1  0.85792543  0.83979079  0.74293855  1  0  0.434804  0  0.868014  0  0  0.407512  0  0.925681  0  0  0.417325  0  0.911628  0  0  0.308204  0.400572  0  0.935823  0
H  H8  1  0.99936572  0.21674484  0.31411266  1  0  0.446939  0  0.809886  0  0  0.421879  0  0.874581  0  0  0.431711  0  0.863765  0  0  0.327758  0.414928  0  0.882815  0
H  H9  1  0.49936279  0.78325986  0.68589240  1  0  0.44692  0  0.809889  0  0  0.42187  0  0.874571  0  0  0.431701  0  0.863757  0  0  0.327759  0.41492  0  0.882806  0
H  H10  1  0.99936465  0.31410785  0.21674292  1  0  0.446947  0  0.809829  0  0  0.42189  0  0.874526  0  0  0.431723  0  0.863707  0  0  0.327766  0.41494  0  0.882759  0
H  H11  1  0.49936506  0.68589163  0.78325682  1  0  0.44693  0  0.809845  0  0  0.421872  0  0.874547  0  0  0.431703  0  0.863731  0  0  0.32776  0.414921  0  0.882782  0
H  H12  1  0.61244677  0.29310326  0.00073029  1  0  0.428302  0  0.879908  0  0  0.394083  0  0.949637  0  0  0.40643  0  0.932061  0  0  0.292876  0.38557  0  0.961848  0
H  H13  1  0.11243507  0.70690153  0.99926733  1  0  0.428231  0  0.88  0  0  0.394031  0  0.949697  0  0  0.406378  0  0.932123  0  0  0.292841  0.385518  0  0.961909  0
H  H14  1  0.61244396  0.00072913  0.29310110  1  0  0.428325  0  0.879878  0  0  0.394115  0  0.949606  0  0  0.406462  0  0.93203  0  0  0.292889  0.385601  0  0.961818  0
H  H15  1  0.11243909  0.99927164  0.70690244  1  0  0.428325  0  0.879878  0  0  0.394111  0  0.949612  0  0  0.406459  0  0.932035  0  0  0.292869  0.385597  0  0.961824  0
H  H16  1  0.79240682  0.26513650  0.02779216  1  0  0.445417  0  0.851253  0  0  0.417569  0  0.910304  0  0  0.427672  0  0.895757  0  0  0.309321  0.410499  0  0.920678  0
H  H17  1  0.29239759  0.73486463  0.97220483  1  0  0.445367  0  0.851349  0  0  0.417519  0  0.910394  0  0  0.427624  0  0.895846  0  0  0.309293  0.410448  0  0.920768  0
H  H18  1  0.79240287  0.02779142  0.26513579  1  0  0.44539  0  0.851288  0  0  0.417581  0  0.910289  0  0  0.427685  0  0.895742  0  0  0.309339  0.41051  0  0.920664  0
H  H19  1  0.29240033  0.97220774  0.73486764  1  0  0.445364  0  0.851338  0  0  0.417522  0  0.910371  0  0  0.427628  0  0.895822  0  0  0.309312  0.410452  0  0.920744  0
H  H20  1  0.50439966  0.47696352  0.57456305  1  0  0.450638  0  0.8343  0  0  0.42053  0  0.895515  0  0  0.431222  0  0.880085  0  0  0.312037  0.412909  0  0.90681  0
H  H21  1  0.00439894  0.52303653  0.42543874  1  0  0.450588  0  0.834367  0  0  0.420495  0  0.895552  0  0  0.431188  0  0.880123  0  0  0.312034  0.41288  0  0.906838  0
H  H22  1  0.50439859  0.57456485  0.47696639  1  0  0.450633  0  0.834307  0  0  0.420535  0  0.895506  0  0  0.431227  0  0.880077  0  0  0.312036  0.412916  0  0.906801  0
H  H23  1  0.00439760  0.42543627  0.52303766  1  0  0.450581  0  0.834356  0  0  0.420483  0  0.895558  0  0  0.431176  0  0.880127  0  0  0.312005  0.412862  0  0.906854  0
C  C24  1  0.62292072  0.56868226  0.18118292  1  0  0.214674  0  3.87  0  0  0.192762  0  4.144531  0  0  0.204838  0  4.162409  0  0  0.113358  0.184144  0  4.136167  0
C  C25  1  0.12291926  0.43130806  0.81881095  1  0  0.214396  0  3.870354  0  0  0.192582  0  4.144781  0  0  0.204685  0  4.162613  0  0  0.113212  0.183967  0  4.136412  0
C  C26  1  0.62291898  0.18118466  0.56867803  1  0  0.214391  0  3.870523  0  0  0.192613  0  4.144845  0  0  0.204708  0  4.162713  0  0  0.113258  0.184  0  4.136474  0
C  C27  1  0.12291376  0.81881502  0.43132420  1  0  0.21461  0  3.870422  0  0  0.192737  0  4.144878  0  0  0.20481  0  4.162776  0  0  0.113324  0.184126  0  4.136494  0
C  C28  1  0.79454304  0.56393532  0.21050108  1  0  0.224055  0  3.84253  0  0  0.200615  0  4.117218  0  0  0.210547  0  4.13734  0  0  0.112211  0.193259  0  4.107638  0
C  C29  1  0.29454413  0.43606374  0.78949537  1  0  0.224126  0  3.842295  0  0  0.200639  0  4.116996  0  0  0.21056  0  4.137124  0  0  0.112222  0.193282  0  4.107414  0
C  C30  1  0.79454737  0.21050964  0.56393488  1  0  0.224132  0  3.842465  0  0  0.200667  0  4.1171  0  0  0.210594  0  4.137224  0  0  0.112278  0.193297  0  4.107536  0
C  C31  1  0.29454582  0.78948841  0.43606330  1  0  0.223973  0  3.842438  0  0  0.200516  0  4.117168  0  0  0.210452  0  4.137296  0  0  0.112215  0.193144  0  4.107604  0
C  C32  1  0.88468109  0.64168749  0.13236140  1  0  0.227018  0  3.837385  0  0  0.201598  0  4.120073  0  0  0.214186  0  4.132227  0  0  0.116041  0.193412  0  4.111015  0
C  C33  1  0.38469402  0.35831648  0.86763894  1  0  0.226981  0  3.837252  0  0  0.201508  0  4.119989  0  0  0.214087  0  4.132149  0  0  0.11596  0.193324  0  4.110927  0
C  C34  1  0.88469485  0.13236837  0.64169020  1  0  0.22707  0  3.837388  0  0  0.201693  0  4.120131  0  0  0.214275  0  4.132287  0  0  0.116065  0.193514  0  4.111074  0
C  C35  1  0.38469955  0.86763462  0.35831387  1  0  0.22708  0  3.83734  0  0  0.201662  0  4.120105  0  0  0.214238  0  4.132261  0  0  0.116064  0.193481  0  4.111047  0
C  C36  1  0.76225682  0.71229752  0.06940814  1  0  0.239867  0  3.800109  0  0  0.218695  0  4.073382  0  0  0.232709  0  4.081082  0  0  0.127086  0.20937  0  4.067567  0
C  C37  1  0.26226478  0.28768720  0.93058475  1  0  0.24003  0  3.800106  0  0  0.218882  0  4.073367  0  0  0.232912  0  4.081032  0  0  0.127177  0.209556  0  4.067554  0
C  C38  1  0.76225714  0.06942070  0.71231324  1  0  0.240035  0  3.799912  0  0  0.218721  0  4.073398  0  0  0.23275  0  4.081096  0  0  0.127196  0.209392  0  4.06758  0
C  C39  1  0.26225843  0.93058160  0.28768714  1  0  0.239882  0  3.800038  0  0  0.218672  0  4.073382  0  0  0.232715  0  4.081055  0  0  0.127176  0.209339  0  4.067558  0
C  C40  1  0.59902636  0.66393891  0.09450325  1  0  0.241919  0  3.838444  0  0  0.219645  0  4.118334  0  0  0.23413  0  4.126106  0  0  0.123156  0.210029  0  4.112502  0
C  C41  1  0.09903794  0.33605467  0.90549851  1  0  0.242064  0  3.838352  0  0  0.219743  0  4.118238  0  0  0.234227  0  4.125984  0  0  0.123235  0.210127  0  4.112406  0
C  C42  1  0.59902437  0.09450330  0.66393699  1  0  0.24199  0  3.838604  0  0  0.219744  0  4.118468  0  0  0.234194  0  4.126281  0  0  0.123223  0.210144  0  4.112614  0
C  C43  1  0.09902788  0.90549747  0.33606362  1  0  0.241795  0  3.838903  0  0  0.219588  0  4.118696  0  0  0.234038  0  4.126515  0  0  0.123143  0.210002  0  4.112813  0
O  O44  1  0.52185830  0.49612481  0.22376808  1  0  -0.519227  0  2.023065  0  0  -0.469886  0  2.247694  0  0  -0.498248  0  2.244474  0  0  -0.323075  -0.455896  0  2.249083  0
O  O45  1  0.02186289  0.50386805  0.77623776  1  0  -0.519156  0  2.023537  0  0  -0.469834  0  2.248107  0  0  -0.498212  0  2.244877  0  0  -0.323005  -0.455841  0  2.249492  0
O  O46  1  0.52186877  0.22375814  0.49611439  1  0  -0.519174  0  2.023565  0  0  -0.46987  0  2.248127  0  0  -0.498239  0  2.244901  0  0  -0.323029  -0.455877  0  2.249511  0
O  O47  1  0.02186930  0.77624071  0.50387908  1  0  -0.51921  0  2.023696  0  0  -0.469857  0  2.248296  0  0  -0.498217  0  2.245078  0  0  -0.323057  -0.455872  0  2.24968  0
O  O48  1  0.84782242  0.49150661  0.28731983  1  0  -0.605316  0  2.119791  0  0  -0.542963  0  2.351557  0  0  -0.574752  0  2.346043  0  0  -0.342151  -0.527255  0  2.35434  0
O  O49  1  0.34782253  0.50850057  0.71268148  1  0  -0.605321  0  2.119699  0  0  -0.542938  0  2.351468  0  0  -0.574732  0  2.34596  0  0  -0.342152  -0.527228  0  2.354255  0
O  O50  1  0.84782334  0.28732124  0.49150447  1  0  -0.605334  0  2.11998  0  0  -0.542982  0  2.351765  0  0  -0.574769  0  2.346251  0  0  -0.342199  -0.527274  0  2.354575  0
O  O51  1  0.34782281  0.71268183  0.50849677  1  0  -0.605271  0  2.120004  0  0  -0.542951  0  2.351842  0  0  -0.574742  0  2.34633  0  0  -0.342178  -0.527233  0  2.354628  0
O  O52  1  0.03472365  0.64553388  0.11845792  1  0  -0.456649  0  2.011665  0  0  -0.413071  0  2.228844  0  0  -0.433804  0  2.227731  0  0  -0.273243  -0.398411  0  2.228967  0
O  O53  1  0.53473264  0.35447208  0.88153235  1  0  -0.456695  0  2.01164  0  0  -0.413041  0  2.2288  0  0  -0.433774  0  2.227692  0  0  -0.27319  -0.398382  0  2.228919  0
O  O54  1  0.03472051  0.11847008  0.64553697  1  0  -0.456662  0  2.011904  0  0  -0.413145  0  2.229163  0  0  -0.433871  0  2.228047  0  0  -0.27329  -0.398485  0  2.229288  0
O  O55  1  0.53472734  0.88152890  0.35446840  1  0  -0.456594  0  2.011861  0  0  -0.413081  0  2.22917  0  0  -0.433811  0  2.228061  0  0  -0.273279  -0.398421  0  2.229292  0
O  O56  1  0.79010745  0.79799035  0.00162305  1  0  -0.549147  0  2.077349  0  0  -0.500871  0  2.303575  0  0  -0.517926  0  2.29739  0  0  -0.357326  -0.488468  0  2.307517  0
O  O57  1  0.29012853  0.20200971  0.99837070  1  0  -0.549204  0  2.077473  0  0  -0.500946  0  2.30372  0  0  -0.518006  0  2.29752  0  0  -0.357356  -0.488545  0  2.307663  0
O  O58  1  0.79010997  0.00163384  0.79799593  1  0  -0.549261  0  2.077497  0  0  -0.500964  0  2.303857  0  0  -0.51802  0  2.297662  0  0  -0.357431  -0.488561  0  2.307803  0
O  O59  1  0.29011396  0.99837050  0.20200984  1  0  -0.549161  0  2.077538  0  0  -0.500917  0  2.303854  0  0  -0.517977  0  2.297657  0  0  -0.357421  -0.488515  0  2.307798  0
O  O60  1  0.47128271  0.69781757  0.04723855  1  0  -0.475152  0  2.022669  0  0  -0.435681  0  2.246948  0  0  -0.452291  0  2.24287  0  0  -0.285518  -0.423705  0  2.249279  0
O  O61  1  0.97129747  0.30217176  0.95276366  1  0  -0.475262  0  2.022688  0  0  -0.435784  0  2.246997  0  0  -0.452401  0  2.242916  0  0  -0.285607  -0.423807  0  2.249329  0
O  O62  1  0.47129266  0.04723531  0.69781280  1  0  -0.475152  0  2.022921  0  0  -0.435689  0  2.247183  0  0  -0.452289  0  2.243119  0  0  -0.285587  -0.42372  0  2.249508  0
O  O63  1  0.97130078  0.95276526  0.30218435  1  0  -0.475037  0  2.023072  0  0  -0.43559  0  2.247316  0  0  -0.452192  0  2.243256  0  0  -0.285524  -0.423625  0  2.24963  0
O  O64  1  0.39428599  0.25312445  0.25312589  1  0  -0.907385  0  1.887071  0  0  -0.855764  0  2.070583  0  0  -0.886818  0  2.03388  0  0  -0.665259  -0.842206  0  2.091748  0
O  O65  1  0.89428377  0.74687644  0.74687660  1  0  -0.907348  0  1.887058  0  0  -0.855741  0  2.07061  0  0  -0.886807  0  2.033899  0  0  -0.665268  -0.842184  0  2.09178  0
O  O66  1  0.95035473  0.23033087  0.23033448  1  0  -0.889287  0  1.896602  0  0  -0.842659  0  2.107599  0  0  -0.869208  0  2.080554  0  0  -0.642907  -0.829047  0  2.124732  0
O  O67  1  0.45035378  0.76966986  0.76966975  1  0  -0.889257  0  1.896636  0  0  -0.842635  0  2.10761  0  0  -0.869181  0  2.080571  0  0  -0.64291  -0.829021  0  2.124747  0
O  O68  1  0.68371058  0.25551990  0.06417776  1  0  -0.973093  0  1.901934  0  0  -0.921728  0  2.103027  0  0  -0.95394  0  2.067889  0  0  -0.685289  -0.906744  0  2.124089  0
O  O69  1  0.18370395  0.74448261  0.93582000  1  0  -0.972983  0  1.902085  0  0  -0.921617  0  2.1032  0  0  -0.953828  0  2.068039  0  0  -0.685211  -0.906634  0  2.124262  0
O  O70  1  0.68370791  0.06417534  0.25551552  1  0  -0.973098  0  1.90197  0  0  -0.921763  0  2.102972  0  0  -0.953972  0  2.067822  0  0  -0.685293  -0.906777  0  2.124042  0
O  O71  1  0.18370541  0.93582412  0.74448443  1  0  -0.97307  0  1.902003  0  0  -0.921678  0  2.103068  0  0  -0.953898  0  2.067918  0  0  -0.685258  -0.906693  0  2.124136  0
O  O72  1  0.56678727  0.50049526  0.50049549  1  0  -0.912136  0  1.846999  0  0  -0.865174  0  2.031625  0  0  -0.895673  0  1.991639  0  0  -0.640137  -0.85241  0  2.054972  0
O  O73  1  0.06678861  0.49950560  0.49950428  1  0  -0.912038  0  1.847073  0  0  -0.865073  0  2.031675  0  0  -0.895575  0  1.991684  0  0  -0.640103  -0.852312  0  2.055022  0
