# generated using pymatgen
data_ZnH7C16N3O4F3
_symmetry_space_group_name_H-M   'P 1'
_cell_length_a   9.75121406
_cell_length_b   11.04052881
_cell_length_c   19.17242345
_cell_angle_alpha   89.65082449
_cell_angle_beta   90.54683480
_cell_angle_gamma   90.10468394
_symmetry_Int_Tables_number   1
_chemical_formula_structural   ZnH7C16N3O4F3
_chemical_formula_sum   'Zn2 H14 C32 N6 O8 F6'
_cell_volume   2063.93993095
_cell_formula_units_Z   2
loop_
 _symmetry_equiv_pos_site_id
 _symmetry_equiv_pos_as_xyz
  1  'x, y, z'
loop_
 _atom_site_type_symbol
 _atom_site_label
 _atom_site_symmetry_multiplicity
 _atom_site_fract_x
 _atom_site_fract_y
 _atom_site_fract_z
 _atom_site_occupancy
 _atom_site_pbe_bader_charge
 _atom_site_pbe_bader_spin_density
 _atom_site_pbe_cm5_charge
 _atom_site_pbe_ddec_charge
 _atom_site_pbe_ddec_spin_density
 _atom_site_pbe_ddec_sum_bond_order
 _atom_site_pbe_magmom
Zn  Zn0  1  0.63451246  0.50844021  0.50867034  1  1.290484  0  0.670677  0.834479  0  2.427316  0
Zn  Zn1  1  0.35345639  0.51028096  0.49716136  1  1.290137  0  0.667538  0.814616  0  2.419381  0
H  H2  1  0.29175641  0.11754356  0.46189685  1  0.110977  0  0.108307  0.115966  0  0.991522  0
H  H3  1  0.84566698  0.90816271  0.50137857  1  0.069423  0  0.101395  0.136274  0  0.980297  0
H  H4  1  0.78644365  0.89370480  0.58954675  1  0.069868  0  0.107579  0.14729  0  0.960065  0
H  H5  1  0.13844247  0.40281551  0.58923760  1  0.176376  0  0.145216  0.153062  0  0.964132  0
H  H6  1  0.83949485  0.59574902  0.35056513  1  0.122097  0  0.112627  0.154807  0  0.986667  0
H  H7  1  0.84646040  0.72945854  0.40346496  1  0.12499  0  0.119902  0.161522  0  0.958091  0
H  H8  1  0.10049812  0.60441572  0.34184361  1  0.100863  0  0.118221  0.082806  0  0.954212  0
H  H9  1  0.29847184  0.46684848  0.14344808  1  0.112308  0  0.112753  0.118319  0  1.000341  0
H  H10  1  0.29424090  0.51105066  0.27102422  1  0.097638  0  0.107099  0.11343  0  1.006494  0
H  H11  1  0.70739984  0.44179603  0.85015473  1  0.132017  0  0.108981  0.108805  0  1.006999  0
H  H12  1  0.69860123  0.49144118  0.72237259  1  0.100081  0  0.105618  0.112102  0  1.001048  0
H  H13  1  0.25920162  0.47057748  0.72487579  1  0.092339  0  0.104264  0.10622  0  0.99877  0
H  H14  1  0.26640299  0.42191615  0.85265971  1  0.104298  0  0.108594  0.108323  0  1.007652  0
H  H15  1  0.29993269  0.89227875  0.45912554  1  0.130946  0  0.104158  0.112118  0  1.012386  0
C  C16  1  0.51183628  0.74387355  0.49550060  1  1.55204  0  0.217602  0.601346  0  4.172085  0
C  C17  1  0.50605700  0.47104709  0.28853590  1  0.017223  0  -0.01737  -0.114239  0  3.961639  0
C  C18  1  0.49364957  0.39846684  0.93340334  1  0.943521  0  0.243014  0.249689  0  3.996785  0
C  C19  1  0.50809750  0.39407226  0.06762809  1  0.983509  0  0.238859  0.258756  0  3.989467  0
C  C20  1  0.60972392  0.44897973  0.82241641  1  -0.108567  0  -0.077872  -0.103048  0  3.958567  0
C  C21  1  0.60497782  0.47638313  0.75169700  1  0.016088  0  -0.078022  -0.080374  0  3.957626  0
C  C22  1  0.47880237  0.48319004  0.71611832  1  -0.064308  0  -0.00849  -0.016958  0  3.938037  0
C  C23  1  0.35672607  0.46455818  0.75285484  1  -0.046325  0  -0.080444  -0.08666  0  3.970492  0
C  C24  1  0.36051458  0.43767983  0.82378308  1  -0.029655  0  -0.07888  -0.105166  0  3.957299  0
C  C25  1  0.48742225  0.42836644  0.85897559  1  0.059285  0  -0.002925  0.018334  0  4.001617  0
C  C26  1  0.62315849  0.94840847  0.51322738  1  -0.038089  0  0.002401  0.102871  0  3.910624  0
C  C27  1  0.49573245  0.49397096  0.36560821  1  1.61545  0  0.216606  0.608898  0  4.167122  0
C  C28  1  0.50970151  0.87888409  0.49386692  1  -0.043141  0  -0.009117  -0.065678  0  3.947631  0
C  C29  1  0.39041020  0.94363932  0.47514654  1  -0.069598  0  -0.073419  -0.079004  0  3.942188  0
C  C30  1  0.38546677  0.07011257  0.47700455  1  0.005731  0  -0.077269  -0.095831  0  3.948062  0
C  C31  1  0.49886185  0.13963882  0.49890293  1  0.021857  0  -0.002773  -0.01444  0  3.945294  0
C  C32  1  0.61672748  0.07437263  0.51633792  1  0.030967  0  -0.019031  -0.112528  0  3.897014  0
C  C33  1  0.76246825  0.08159049  0.54458618  1  1.11871  0  0.201828  0.511062  0  3.899595  0
C  C34  1  0.77059806  0.94014558  0.53935471  1  -0.028132  0  -0.157265  -0.354655  0  3.855174  0
C  C35  1  0.05841434  0.56852720  0.45432717  1  0.572196  0  0.130427  0.079451  0  3.860943  0
C  C36  1  0.07598256  0.44966675  0.55020972  1  0.585729  0  0.072194  -0.05953  0  3.815723  0
C  C37  1  0.93195563  0.44728997  0.55279262  1  1.131649  0  0.267697  0.413572  0  4.01463  0
C  C38  1  0.49319802  0.27442759  0.50311024  1  1.565928  0  0.21716  0.594931  0  4.176246  0
C  C39  1  0.91664102  0.56399533  0.45768734  1  0.519035  0  0.154941  0.249848  0  3.871929  0
C  C40  1  0.89361983  0.64118333  0.39346239  1  -0.029816  0  -0.139494  -0.312254  0  3.791067  0
C  C41  1  0.05560696  0.64584442  0.38821637  1  0.558977  0  0.049633  0.175204  0  3.823216  0
C  C42  1  0.47786916  0.50529131  0.63888188  1  1.565116  0  0.21797  0.596565  0  4.162509  0
C  C43  1  0.62678719  0.43452585  0.25592415  1  0.487873  0  0.099181  0.162988  0  4.037772  0
C  C44  1  0.63028247  0.40938072  0.18448227  1  0.534865  0  0.102112  0.154723  0  4.037855  0
C  C45  1  0.51208346  0.41984887  0.14255313  1  0.013608  0  -0.006673  -0.065065  0  4.010334  0
C  C46  1  0.39089944  0.45823432  0.17537026  1  0.027874  0  -0.082257  -0.104783  0  3.988364  0
C  C47  1  0.38847728  0.48268985  0.24601667  1  0.004711  0  -0.085241  -0.083716  0  4.0029  0
N  N48  1  0.38267469  0.37845257  0.03752227  1  -0.604064  0  -0.156438  -0.150579  0  3.20946  0
N  N49  1  0.37571998  0.38281457  0.96905458  1  -0.515376  0  -0.15261  -0.14406  0  3.216928  0
N  N50  1  0.61738762  0.37466323  0.96333900  1  -0.558416  0  -0.154781  -0.149343  0  3.201658  0
N  N51  1  0.62482909  0.37500667  0.03193991  1  -0.509319  0  -0.153797  -0.136255  0  3.21498  0
N  N52  1  0.14102260  0.51177507  0.49954241  1  -1.194296  0  -0.273468  -0.114314  0  3.477755  0
N  N53  1  0.84877454  0.50280596  0.50689035  1  -1.226622  0  -0.283307  -0.274051  0  3.411883  0
O  O54  1  0.62923777  0.69326640  0.49417740  1  -1.152959  0  -0.315334  -0.540491  0  2.299234  0
O  O55  1  0.39638079  0.69015555  0.49923011  1  -1.159223  0  -0.314689  -0.544711  0  2.335736  0
O  O56  1  0.60601159  0.49043408  0.40149436  1  -1.153725  0  -0.314766  -0.551438  0  2.343866  0
O  O57  1  0.37605871  0.51374746  0.38888995  1  -1.169355  0  -0.316772  -0.543605  0  2.286202  0
O  O58  1  0.60571089  0.32700849  0.51834130  1  -1.145867  0  -0.312382  -0.537064  0  2.345157  0
O  O59  1  0.37841893  0.32586685  0.49117865  1  -1.157553  0  -0.316585  -0.543805  0  2.311855  0
O  O60  1  0.59264503  0.53192958  0.61142366  1  -1.164996  0  -0.320847  -0.552663  0  2.339227  0
O  O61  1  0.36444063  0.49379339  0.60583283  1  -1.172856  0  -0.318638  -0.560039  0  2.312774  0
F  F62  1  0.74676267  0.41975344  0.29112111  1  -0.622265  0  -0.09092  -0.114684  0  1.398406  0
F  F63  1  0.85691247  0.14408471  0.50454489  1  -0.630669  0  -0.142793  -0.230654  0  1.242482  0
F  F64  1  0.77668248  0.12588135  0.61142534  1  -0.623289  0  -0.135235  -0.220466  0  1.252984  0
F  F65  1  0.87263303  0.38768026  0.60493876  1  -0.603626  0  -0.044553  -0.099102  0  1.379256  0
F  F66  1  0.75143461  0.37264485  0.15886548  1  -0.61072  0  -0.089903  -0.11806  0  1.402038  0
F  F67  1  0.11043476  0.76192274  0.39549191  1  -0.623957  0  -0.130197  -0.179063  0  1.265983  0
