# generated using pymatgen
data_NdH14C15O7
_symmetry_space_group_name_H-M   'P 1'
_cell_length_a   7.76759767
_cell_length_b   15.37284585
_cell_length_c   15.37270492
_cell_angle_alpha   62.71252784
_cell_angle_beta   86.81870589
_cell_angle_gamma   86.81873651
_symmetry_Int_Tables_number   1
_chemical_formula_structural   NdH14C15O7
_chemical_formula_sum   'Nd4 H56 C60 O28'
_cell_volume   1627.93103655
_cell_formula_units_Z   4
loop_
 _symmetry_equiv_pos_site_id
 _symmetry_equiv_pos_as_xyz
  1  'x, y, z'
loop_
 _atom_site_type_symbol
 _atom_site_label
 _atom_site_symmetry_multiplicity
 _atom_site_fract_x
 _atom_site_fract_y
 _atom_site_fract_z
 _atom_site_occupancy
 _atom_site_hle17_bader_spin_density
 _atom_site_hle17_ddec_charge
 _atom_site_hle17_ddec_spin_density
 _atom_site_hle17_ddec_sum_bond_order
 _atom_site_hle17_magmom
 _atom_site_hse06_10hf_bader_spin_density
 _atom_site_hse06_10hf_ddec_charge
 _atom_site_hse06_10hf_ddec_spin_density
 _atom_site_hse06_10hf_ddec_sum_bond_order
 _atom_site_hse06_10hf_magmom
 _atom_site_hse06_bader_spin_density
 _atom_site_hse06_ddec_charge
 _atom_site_hse06_ddec_spin_density
 _atom_site_hse06_ddec_sum_bond_order
 _atom_site_hse06_magmom
 _atom_site_pbe_bader_spin_density
 _atom_site_pbe_cm5_charge
 _atom_site_pbe_ddec_charge
 _atom_site_pbe_ddec_spin_density
 _atom_site_pbe_ddec_sum_bond_order
 _atom_site_pbe_magmom
Nd  Nd0  1  0.03091856  0.36001264  0.28141455  1  0  2.303946  0  1.652914  0  0  2.144281  0  2.113449  0  0  2.240494  0  1.972221  0  0  1.513777  2.109711  0  2.149025  0
Nd  Nd1  1  0.46907530  0.71858484  0.63998054  1  0  2.303991  0  1.652736  0  0  2.144218  0  2.113387  0  0  2.24052  0  1.97201  0  0  1.51382  2.109678  0  2.148899  0
Nd  Nd2  1  0.96908202  0.63998688  0.71858779  1  0  2.303923  0  1.652959  0  0  2.144289  0  2.113426  0  0  2.240468  0  1.972268  0  0  1.513754  2.109695  0  2.149058  0
Nd  Nd3  1  0.53092265  0.28141616  0.36001729  1  0  2.304046  0  1.652712  0  0  2.144351  0  2.113261  0  0  2.240587  0  1.971991  0  0  1.513844  2.109776  0  2.148839  0
H  H4  1  0.34329800  0.48049590  0.16278129  1  0  0.426427  0  0.881403  0  0  0.393887  0  0.948828  0  0  0.405096  0  0.93277  0  0  0.294785  0.385959  0  0.960293  0
H  H5  1  0.15669099  0.83721941  0.51949990  1  0  0.426405  0  0.881457  0  0  0.393868  0  0.948877  0  0  0.40508  0  0.932815  0  0  0.294749  0.385942  0  0.960338  0
H  H6  1  0.65669998  0.51950437  0.83721817  1  0  0.426393  0  0.881444  0  0  0.393846  0  0.948879  0  0  0.405055  0  0.932821  0  0  0.294776  0.385912  0  0.960355  0
H  H7  1  0.84330558  0.16278305  0.48049861  1  0  0.426394  0  0.881462  0  0  0.393843  0  0.948897  0  0  0.405051  0  0.93284  0  0  0.294747  0.385908  0  0.960371  0
H  H8  1  0.18016658  0.55610210  0.12895624  1  0  0.435546  0  0.813629  0  0  0.420912  0  0.864216  0  0  0.428585  0  0.85382  0  0  0.332229  0.415525  0  0.870258  0
H  H9  1  0.31981502  0.87104417  0.44388431  1  0  0.43557  0  0.813752  0  0  0.420963  0  0.864265  0  0  0.428635  0  0.853775  0  0  0.332276  0.415573  0  0.870309  0
H  H10  1  0.81983388  0.44389962  0.87104445  1  0  0.435551  0  0.813617  0  0  0.420915  0  0.864213  0  0  0.428588  0  0.853815  0  0  0.332219  0.415519  0  0.870274  0
H  H11  1  0.68018168  0.12895610  0.55611388  1  0  0.435559  0  0.813824  0  0  0.420952  0  0.864334  0  0  0.428623  0  0.853806  0  0  0.332258  0.415557  0  0.870386  0
H  H12  1  0.30388040  0.19910357  0.60638383  1  0  0.102006  0  0.961902  0  0  0.113486  0  1.020451  0  0  0.117  0  1.018271  0  0  0.105977  0.110933  0  1.022226  0
H  H13  1  0.19611881  0.39361995  0.80089711  1  0  0.101909  0  0.961843  0  0  0.113408  0  1.020398  0  0  0.116922  0  1.018219  0  0  0.105932  0.110861  0  1.022167  0
H  H14  1  0.69612011  0.80089742  0.39361720  1  0  0.101987  0  0.961852  0  0  0.113461  0  1.020425  0  0  0.116976  0  1.018243  0  0  0.105973  0.110917  0  1.022203  0
H  H15  1  0.80387671  0.60637812  0.19910342  1  0  0.10196  0  0.961785  0  0  0.113436  0  1.020373  0  0  0.11695  0  1.018192  0  0  0.105951  0.110883  0  1.02215  0
H  H16  1  0.42514833  0.18705580  0.75521577  1  0  0.087897  0  0.974655  0  0  0.098592  0  1.035173  0  0  0.100362  0  1.036205  0  0  0.09615  0.097289  0  1.034582  0
H  H17  1  0.07485125  0.24478451  0.81294697  1  0  0.087929  0  0.974711  0  0  0.098649  0  1.035189  0  0  0.100399  0  1.036242  0  0  0.096157  0.097347  0  1.034597  0
H  H18  1  0.57485476  0.81294519  0.24478389  1  0  0.087905  0  0.974642  0  0  0.098564  0  1.035198  0  0  0.100344  0  1.036219  0  0  0.096122  0.097264  0  1.034596  0
H  H19  1  0.92514570  0.75521062  0.18705746  1  0  0.087912  0  0.974667  0  0  0.098587  0  1.035198  0  0  0.100366  0  1.03622  0  0  0.096128  0.097287  0  1.034598  0
H  H20  1  0.40819725  0.03183156  0.91127558  1  0  0.078547  0  0.960243  0  0  0.090695  0  1.020998  0  0  0.093191  0  1.020285  0  0  0.094758  0.088839  0  1.021639  0
H  H21  1  0.09181461  0.08872421  0.96817022  1  0  0.078586  0  0.960205  0  0  0.090714  0  1.020976  0  0  0.093209  0  1.020272  0  0  0.094743  0.088878  0  1.021598  0
H  H22  1  0.59181104  0.96816869  0.08872493  1  0  0.07857  0  0.960305  0  0  0.090707  0  1.021067  0  0  0.093203  0  1.02036  0  0  0.094759  0.088866  0  1.021701  0
H  H23  1  0.90818479  0.91127311  0.03183445  1  0  0.078494  0  0.960344  0  0  0.090655  0  1.021088  0  0  0.09315  0  1.020381  0  0  0.094695  0.088802  0  1.021723  0
H  H24  1  0.26068028  0.88974897  0.91529979  1  0  0.082394  0  0.960876  0  0  0.094023  0  1.022719  0  0  0.09676  0  1.021788  0  0  0.094357  0.092053  0  1.023472  0
H  H25  1  0.23934108  0.08469481  0.11024752  1  0  0.082314  0  0.961006  0  0  0.093976  0  1.022812  0  0  0.096712  0  1.021884  0  0  0.094331  0.092017  0  1.023546  0
H  H26  1  0.73932678  0.11025055  0.08469783  1  0  0.082355  0  0.960879  0  0  0.094028  0  1.022685  0  0  0.096768  0  1.02175  0  0  0.094343  0.092041  0  1.023458  0
H  H27  1  0.76065963  0.91530251  0.88975517  1  0  0.082324  0  0.960947  0  0  0.093987  0  1.022761  0  0  0.096724  0  1.021831  0  0  0.094349  0.092011  0  1.023515  0
H  H28  1  0.08924070  0.82054905  0.84107068  1  0  0.134567  0  0.915911  0  0  0.149981  0  0.971111  0  0  0.153042  0  0.969337  0  0  0.115001  0.147859  0  0.972262  0
H  H29  1  0.41078999  0.15892550  0.17945246  1  0  0.134591  0  0.915896  0  0  0.150039  0  0.971029  0  0  0.153104  0  0.969246  0  0  0.115055  0.147925  0  0.972169  0
H  H30  1  0.91076486  0.17945413  0.15892726  1  0  0.134562  0  0.91596  0  0  0.149979  0  0.971152  0  0  0.153041  0  0.969377  0  0  0.115001  0.147851  0  0.97231  0
H  H31  1  0.58921315  0.84107475  0.82054753  1  0  0.134556  0  0.915929  0  0  0.150018  0  0.971042  0  0  0.153084  0  0.969259  0  0  0.115023  0.147899  0  0.972189  0
H  H32  1  0.00268750  0.89175843  0.72638605  1  0  0.115673  0  0.913138  0  0  0.13252  0  0.967508  0  0  0.134933  0  0.966164  0  0  0.111721  0.130826  0  0.968441  0
H  H33  1  0.49732608  0.27360964  0.10824583  1  0  0.115659  0  0.913224  0  0  0.132483  0  0.967576  0  0  0.134897  0  0.96623  0  0  0.111671  0.130788  0  0.968511  0
H  H34  1  0.99731544  0.10824549  0.27361097  1  0  0.115659  0  0.913109  0  0  0.132487  0  0.967489  0  0  0.134903  0  0.966142  0  0  0.111696  0.130794  0  0.968418  0
H  H35  1  0.50267719  0.72638842  0.89175256  1  0  0.115715  0  0.913125  0  0  0.132504  0  0.967524  0  0  0.13492  0  0.966177  0  0  0.111679  0.130807  0  0.968461  0
H  H36  1  0.99937592  0.04217627  0.59385769  1  0  0.097616  0  0.940094  0  0  0.112658  0  1.000396  0  0  0.115204  0  0.998298  0  0  0.098335  0.110857  0  1.001755  0
H  H37  1  0.50062623  0.40614296  0.95782091  1  0  0.097581  0  0.940098  0  0  0.112633  0  1.00039  0  0  0.115176  0  0.998292  0  0  0.098326  0.110819  0  1.001765  0
H  H38  1  0.00061813  0.95782472  0.40614349  1  0  0.097638  0  0.940082  0  0  0.112682  0  1.000375  0  0  0.115224  0  0.998277  0  0  0.098312  0.110828  0  1.001741  0
H  H39  1  0.49937312  0.59385583  0.04217919  1  0  0.097626  0  0.940113  0  0  0.112657  0  1.00043  0  0  0.1152  0  0.998335  0  0  0.098352  0.110848  0  1.001792  0
H  H40  1  0.19979546  0.99517920  0.57007900  1  0  0.138406  0  0.914461  0  0  0.155416  0  0.967326  0  0  0.158206  0  0.965526  0  0  0.116987  0.153506  0  0.968401  0
H  H41  1  0.30020776  0.42991989  0.00482523  1  0  0.138403  0  0.914412  0  0  0.155428  0  0.967264  0  0  0.158216  0  0.965464  0  0  0.11699  0.153514  0  0.968352  0
H  H42  1  0.80020115  0.00482252  0.42992049  1  0  0.138367  0  0.914472  0  0  0.155375  0  0.967345  0  0  0.158164  0  0.965544  0  0  0.116971  0.15345  0  0.96844  0
H  H43  1  0.69978648  0.57007818  0.99517468  1  0  0.138391  0  0.914481  0  0  0.155435  0  0.967311  0  0  0.158223  0  0.965509  0  0  0.117003  0.153524  0  0.968403  0
H  H44  1  0.42950193  0.66751751  0.16980641  1  0  0.082642  0  0.979876  0  0  0.092643  0  1.045232  0  0  0.094631  0  1.04569  0  0  0.093677  0.091226  0  1.044933  0
H  H45  1  0.07050729  0.83019723  0.33245685  1  0  0.08255  0  0.980007  0  0  0.092618  0  1.045282  0  0  0.094604  0  1.045741  0  0  0.093712  0.091214  0  1.044973  0
H  H46  1  0.57050510  0.33248200  0.83019511  1  0  0.082681  0  0.979876  0  0  0.092699  0  1.045204  0  0  0.094687  0  1.045662  0  0  0.093709  0.091286  0  1.044898  0
H  H47  1  0.92949073  0.16980230  0.66754295  1  0  0.082565  0  0.979999  0  0  0.092617  0  1.045292  0  0  0.094603  0  1.045751  0  0  0.093708  0.091206  0  1.044988  0
H  H48  1  0.34120164  0.84196808  0.07552064  1  0  0.082601  0  0.956542  0  0  0.096834  0  1.01263  0  0  0.099142  0  1.012093  0  0  0.099021  0.09516  0  1.01312  0
H  H49  1  0.15883313  0.92446989  0.15801072  1  0  0.082469  0  0.956582  0  0  0.096716  0  1.012686  0  0  0.099028  0  1.012133  0  0  0.098936  0.095043  0  1.01317  0
H  H50  1  0.65880277  0.15803216  0.92448126  1  0  0.082625  0  0.956568  0  0  0.096844  0  1.012661  0  0  0.099149  0  1.012128  0  0  0.099041  0.095176  0  1.013143  0
H  H51  1  0.84116871  0.07553036  0.84198995  1  0  0.082523  0  0.956611  0  0  0.096786  0  1.012683  0  0  0.099099  0  1.012128  0  0  0.098978  0.095118  0  1.013166  0
H  H52  1  0.37251913  0.51558786  0.43544479  1  0  0.124998  0  0.91308  0  0  0.142574  0  0.965119  0  0  0.144865  0  0.963842  0  0  0.113196  0.14095  0  0.965923  0
H  H53  1  0.12746172  0.56455578  0.48440568  1  0  0.125062  0  0.91301  0  0  0.142538  0  0.965099  0  0  0.144794  0  0.963866  0  0  0.113215  0.140905  0  0.965911  0
H  H54  1  0.62747884  0.48441240  0.56455598  1  0  0.124989  0  0.913064  0  0  0.142575  0  0.965093  0  0  0.144866  0  0.963817  0  0  0.113202  0.140951  0  0.965891  0
H  H55  1  0.87253114  0.43544376  0.51559425  1  0  0.12501  0  0.913014  0  0  0.142528  0  0.965093  0  0  0.144817  0  0.96382  0  0  0.113209  0.140904  0  0.965887  0
H  H56  1  0.48028499  0.52902181  0.32728252  1  0  0.121876  0  0.917552  0  0  0.135638  0  0.976804  0  0  0.138246  0  0.975632  0  0  0.115118  0.13363  0  0.977993  0
H  H57  1  0.01969904  0.67272307  0.47096411  1  0  0.122009  0  0.917509  0  0  0.135779  0  0.976657  0  0  0.138389  0  0.975477  0  0  0.115153  0.133764  0  0.977847  0
H  H58  1  0.51971817  0.47097771  0.67271976  1  0  0.121857  0  0.917496  0  0  0.135623  0  0.976756  0  0  0.13823  0  0.975586  0  0  0.115112  0.133617  0  0.977939  0
H  H59  1  0.98029508  0.32727720  0.52903480  1  0  0.121845  0  0.917457  0  0  0.135632  0  0.976649  0  0  0.138243  0  0.975477  0  0  0.115091  0.133625  0  0.977831  0
C  C60  1  0.20067909  0.96348503  0.76277546  1  0  0.063373  0  3.742961  0  0  0.077878  0  3.979318  0  0  0.077267  0  4.00464  0  0  -0.016572  0.078287  0  3.961977  0
C  C61  1  0.29933991  0.23721752  0.03652199  1  0  0.063383  0  3.743363  0  0  0.0779  0  3.979723  0  0  0.077275  0  4.005072  0  0  -0.016561  0.078305  0  3.962384  0
C  C62  1  0.79932385  0.03651889  0.23722286  1  0  0.063315  0  3.743059  0  0  0.077866  0  3.979412  0  0  0.077258  0  4.004731  0  0  -0.016531  0.078273  0  3.962061  0
C  C63  1  0.70066457  0.76278200  0.96347635  1  0  0.063344  0  3.74345  0  0  0.077909  0  3.979727  0  0  0.077285  0  4.005074  0  0  -0.016563  0.078313  0  3.962386  0
C  C64  1  0.21259532  0.05085324  0.67434891  1  0  0.074341  0  3.698277  0  0  0.088506  0  3.935762  0  0  0.088829  0  3.959411  0  0  -0.009221  0.088325  0  3.919443  0
C  C65  1  0.28741199  0.32564889  0.94915207  1  0  0.074187  0  3.698267  0  0  0.088228  0  3.935934  0  0  0.088552  0  3.959589  0  0  -0.009267  0.088051  0  3.919614  0
C  C66  1  0.78740502  0.94915067  0.32565078  1  0  0.074436  0  3.698391  0  0  0.088494  0  3.936003  0  0  0.088818  0  3.95965  0  0  -0.009218  0.088319  0  3.919646  0
C  C67  1  0.71258741  0.67434918  0.05084640  1  0  0.074221  0  3.698277  0  0  0.088296  0  3.935868  0  0  0.08862  0  3.959523  0  0  -0.009225  0.088113  0  3.919544  0
C  C68  1  0.29252317  0.13066057  0.67365645  1  0  -0.133752  0  3.75628  0  0  -0.154685  0  4.005848  0  0  -0.157149  0  4.025287  0  0  -0.09715  -0.152923  0  3.99248  0
C  C69  1  0.20748047  0.32633966  0.86934218  1  0  -0.133521  0  3.755898  0  0  -0.154429  0  4.005481  0  0  -0.15689  0  4.024914  0  0  -0.097064  -0.152664  0  3.992104  0
C  C70  1  0.70748238  0.86934261  0.32634279  1  0  -0.133817  0  3.756336  0  0  -0.154721  0  4.005929  0  0  -0.157186  0  4.025372  0  0  -0.097163  -0.152958  0  3.992557  0
C  C71  1  0.79251631  0.67365914  0.13065668  1  0  -0.13371  0  3.75626  0  0  -0.154616  0  4.005834  0  0  -0.157079  0  4.025279  0  0  -0.097186  -0.152855  0  3.99246  0
C  C72  1  0.36291632  0.12405798  0.75803368  1  0  -0.063444  0  3.798575  0  0  -0.078246  0  4.049663  0  0  -0.079605  0  4.071914  0  0  -0.095603  -0.077205  0  4.034415  0
C  C73  1  0.13708076  0.24196302  0.87594421  1  0  -0.063535  0  3.798646  0  0  -0.078346  0  4.049713  0  0  -0.079687  0  4.071969  0  0  -0.095628  -0.077302  0  4.034465  0
C  C74  1  0.63708553  0.87594227  0.24196634  1  0  -0.063365  0  3.798496  0  0  -0.078131  0  4.049573  0  0  -0.079497  0  4.071819  0  0  -0.095525  -0.077091  0  4.034338  0
C  C75  1  0.86291484  0.75803358  0.12405829  1  0  -0.063526  0  3.798632  0  0  -0.078296  0  4.049707  0  0  -0.079663  0  4.071954  0  0  -0.095603  -0.077252  0  4.034447  0
C  C76  1  0.35300998  0.03721468  0.84522384  1  0  -0.081993  0  3.825647  0  0  -0.097653  0  4.079789  0  0  -0.10019  0  4.102836  0  0  -0.100981  -0.095783  0  4.064009  0
C  C77  1  0.14700061  0.15477947  0.96278228  1  0  -0.081992  0  3.825763  0  0  -0.097638  0  4.07991  0  0  -0.100176  0  4.102958  0  0  -0.100931  -0.095781  0  4.064119  0
C  C78  1  0.64699436  0.96278704  0.15477610  1  0  -0.082103  0  3.825827  0  0  -0.097757  0  4.079979  0  0  -0.100297  0  4.103038  0  0  -0.101019  -0.095906  0  4.06422  0
C  C79  1  0.85300124  0.84522079  0.03721709  1  0  -0.081884  0  3.825669  0  0  -0.09756  0  4.079802  0  0  -0.100099  0  4.102859  0  0  -0.100892  -0.095698  0  4.064018  0
C  C80  1  0.27047822  0.95797780  0.84727616  1  0  -0.12927  0  3.778438  0  0  -0.149468  0  4.029199  0  0  -0.15257  0  4.051976  0  0  -0.098985  -0.147218  0  4.013619  0
C  C81  1  0.22953733  0.15272174  0.04202637  1  0  -0.129194  0  3.778595  0  0  -0.149427  0  4.029376  0  0  -0.152523  0  4.052153  0  0  -0.098972  -0.147179  0  4.013784  0
C  C82  1  0.72952092  0.04202465  0.15272358  1  0  -0.129185  0  3.778525  0  0  -0.149428  0  4.029281  0  0  -0.152532  0  4.052058  0  0  -0.098992  -0.14718  0  4.013742  0
C  C83  1  0.77046472  0.84727485  0.95797531  1  0  -0.129152  0  3.778536  0  0  -0.149407  0  4.029325  0  0  -0.152502  0  4.052098  0  0  -0.098974  -0.147161  0  4.013752  0
C  C84  1  0.12390763  0.87458868  0.76583840  1  0  -0.30618  0  3.701329  0  0  -0.350535  0  3.945127  0  0  -0.356156  0  3.952543  0  0  -0.152589  -0.346381  0  3.939461  0
C  C85  1  0.37610955  0.23415547  0.12541556  1  0  -0.306261  0  3.701788  0  0  -0.350501  0  3.945443  0  0  -0.356118  0  3.952847  0  0  -0.152571  -0.34634  0  3.939766  0
C  C86  1  0.87609403  0.12541525  0.23415800  1  0  -0.306108  0  3.701539  0  0  -0.350432  0  3.945297  0  0  -0.356057  0  3.952705  0  0  -0.152557  -0.346268  0  3.939624  0
C  C87  1  0.62389228  0.76584478  0.87458576  1  0  -0.306238  0  3.701804  0  0  -0.350491  0  3.945489  0  0  -0.356113  0  3.952896  0  0  -0.152555  -0.346331  0  3.939823  0
C  C88  1  0.24494565  0.82258900  0.72233453  1  0  0.737759  0  3.801136  0  0  0.696207  0  4.097441  0  0  0.728798  0  4.094407  0  0  0.217582  0.673731  0  4.102482  0
C  C89  1  0.25507894  0.27765579  0.17741872  1  0  0.737963  0  3.800907  0  0  0.696296  0  4.097319  0  0  0.728892  0  4.094273  0  0  0.217593  0.673817  0  4.102358  0
C  C90  1  0.75506636  0.17741417  0.27766195  1  0  0.737779  0  3.801101  0  0  0.696178  0  4.097441  0  0  0.728773  0  4.094398  0  0  0.2176  0.673707  0  4.102465  0
C  C91  1  0.74491510  0.72234595  0.82257823  1  0  0.737662  0  3.801065  0  0  0.695969  0  4.09756  0  0  0.728569  0  4.094516  0  0  0.217467  0.673492  0  4.102595  0
C  C92  1  0.13876844  0.05488877  0.58314721  1  0  -0.313566  0  3.678449  0  0  -0.356923  0  3.918078  0  0  -0.362449  0  3.92381  0  0  -0.156814  -0.352717  0  3.913069  0
C  C93  1  0.36123201  0.41685623  0.94510999  1  0  -0.31349  0  3.678454  0  0  -0.356808  0  3.918143  0  0  -0.362326  0  3.923871  0  0  -0.156802  -0.352596  0  3.913158  0
C  C94  1  0.86122832  0.94511003  0.41685426  1  0  -0.31361  0  3.678491  0  0  -0.356917  0  3.918146  0  0  -0.36244  0  3.923873  0  0  -0.156877  -0.352722  0  3.913137  0
C  C95  1  0.63876606  0.58314258  0.05488884  1  0  -0.313451  0  3.678451  0  0  -0.356821  0  3.918129  0  0  -0.362341  0  3.923861  0  0  -0.156851  -0.352619  0  3.913139  0
C  C96  1  0.17373851  0.14837592  0.49043733  1  0  0.773491  0  3.790668  0  0  0.732137  0  4.084289  0  0  0.766713  0  4.075896  0  0  0.245247  0.708708  0  4.091173  0
C  C97  1  0.32626728  0.50955743  0.85162442  1  0  0.773507  0  3.790822  0  0  0.732077  0  4.084575  0  0  0.766651  0  4.076186  0  0  0.245277  0.708653  0  4.091453  0
C  C98  1  0.82625440  0.85162289  0.50956163  1  0  0.773493  0  3.790646  0  0  0.732107  0  4.084318  0  0  0.766683  0  4.075925  0  0  0.245218  0.708686  0  4.091183  0
C  C99  1  0.67373722  0.49044136  0.14837620  1  0  0.773352  0  3.790873  0  0  0.732028  0  4.084462  0  0  0.7666  0  4.076078  0  0  0.245258  0.708606  0  4.091341  0
C  C100  1  0.30044066  0.64881430  0.30472147  1  0  0.080598  0  3.707722  0  0  0.093927  0  3.94346  0  0  0.094411  0  3.966231  0  0  -0.007725  0.093613  0  3.927739  0
C  C101  1  0.19955875  0.69527848  0.35117339  1  0  0.080547  0  3.70746  0  0  0.093617  0  3.943388  0  0  0.094098  0  3.966154  0  0  -0.007891  0.093307  0  3.927655  0
C  C102  1  0.69955867  0.35118449  0.69528124  1  0  0.080496  0  3.707804  0  0  0.093898  0  3.943448  0  0  0.094381  0  3.966221  0  0  -0.007745  0.093582  0  3.927739  0
C  C103  1  0.80043931  0.30472032  0.64882805  1  0  0.0806  0  3.707457  0  0  0.093684  0  3.943373  0  0  0.094165  0  3.966146  0  0  -0.007846  0.093368  0  3.92766  0
C  C104  1  0.34877598  0.70300717  0.20551655  1  0  -0.127795  0  3.754135  0  0  -0.146964  0  4.004564  0  0  -0.149503  0  4.025671  0  0  -0.095148  -0.145139  0  3.99014  0
C  C105  1  0.15124071  0.79448383  0.29697736  1  0  -0.127841  0  3.75429  0  0  -0.147023  0  4.004847  0  0  -0.14956  0  4.025952  0  0  -0.095179  -0.145192  0  3.9904  0
C  C106  1  0.65122585  0.29699308  0.79448542  1  0  -0.127887  0  3.754304  0  0  -0.147099  0  4.004729  0  0  -0.149637  0  4.025832  0  0  -0.095219  -0.145268  0  3.990292  0
C  C107  1  0.84875985  0.20551643  0.70302269  1  0  -0.127818  0  3.754299  0  0  -0.146993  0  4.004861  0  0  -0.14953  0  4.025961  0  0  -0.095163  -0.145161  0  3.990425  0
C  C108  1  0.29987277  0.80158101  0.15225735  1  0  -0.06935  0  3.800775  0  0  -0.085064  0  4.054877  0  0  -0.086609  0  4.075751  0  0  -0.092617  -0.083921  0  4.0406  0
C  C109  1  0.20014475  0.84773351  0.19840508  1  0  -0.069208  0  3.800903  0  0  -0.084968  0  4.055059  0  0  -0.086508  0  4.075933  0  0  -0.09262  -0.083829  0  4.040776  0
C  C110  1  0.70012774  0.19841998  0.84774367  1  0  -0.069373  0  3.800845  0  0  -0.085086  0  4.054983  0  0  -0.086629  0  4.075853  0  0  -0.09264  -0.083943  0  4.040694  0
C  C111  1  0.79985584  0.15226601  0.80159596  1  0  -0.069292  0  3.80096  0  0  -0.08506  0  4.055123  0  0  -0.086598  0  4.075993  0  0  -0.092649  -0.083916  0  4.040835  0
C  C112  1  0.35460773  0.54197420  0.35672253  1  0  -0.298665  0  3.676466  0  0  -0.341054  0  3.918663  0  0  -0.346017  0  3.924859  0  0  -0.149199  -0.337308  0  3.913899  0
C  C113  1  0.14537819  0.64327880  0.45801668  1  0  -0.298749  0  3.676264  0  0  -0.340903  0  3.918204  0  0  -0.345843  0  3.924411  0  0  -0.149216  -0.337154  0  3.91343  0
C  C114  1  0.64539290  0.45802459  0.64327884  1  0  -0.298525  0  3.676309  0  0  -0.340953  0  3.918511  0  0  -0.345916  0  3.924712  0  0  -0.149163  -0.337207  0  3.913734  0
C  C115  1  0.85461595  0.35672073  0.54198453  1  0  -0.298481  0  3.675949  0  0  -0.340756  0  3.918006  0  0  -0.345721  0  3.924215  0  0  -0.14914  -0.337009  0  3.913219  0
C  C116  1  0.22803417  0.47476370  0.34736897  1  0  0.724892  0  3.839444  0  0  0.682662  0  4.139005  0  0  0.715199  0  4.1356  0  0  0.210237  0.660207  0  4.144365  0
C  C117  1  0.27195504  0.65263095  0.52522925  1  0  0.724497  0  3.839917  0  0  0.68232  0  4.139307  0  0  0.714853  0  4.135912  0  0  0.210139  0.659866  0  4.144659  0
C  C118  1  0.77196522  0.52523436  0.65263277  1  0  0.724848  0  3.839455  0  0  0.682614  0  4.139047  0  0  0.715152  0  4.135639  0  0  0.210225  0.660157  0  4.144393  0
C  C119  1  0.72804037  0.34736932  0.47476964  1  0  0.724524  0  3.839722  0  0  0.68237  0  4.139147  0  0  0.714904  0  4.135752  0  0  0.210189  0.65991  0  4.144486  0
O  O120  1  0.39614457  0.85025989  0.69334061  1  0  -0.643598  0  1.94527  0  0  -0.597499  0  2.172308  0  0  -0.625222  0  2.164219  0  0  -0.347243  -0.581554  0  2.177042  0
O  O121  1  0.10385913  0.30664479  0.14975248  1  0  -0.643663  0  1.944825  0  0  -0.59757  0  2.171946  0  0  -0.625289  0  2.163861  0  0  -0.347259  -0.581621  0  2.176681  0
O  O122  1  0.60385574  0.14974476  0.30665810  1  0  -0.643642  0  1.945065  0  0  -0.597528  0  2.172121  0  0  -0.625248  0  2.164037  0  0  -0.347289  -0.581585  0  2.176849  0
O  O123  1  0.89614398  0.69335620  0.85024457  1  0  -0.643534  0  1.944673  0  0  -0.597463  0  2.17183  0  0  -0.62518  0  2.163746  0  0  -0.347251  -0.581508  0  2.176564  0
O  O124  1  0.19030683  0.74751823  0.71610423  1  0  -0.850617  0  2.132472  0  0  -0.790606  0  2.396521  0  0  -0.828152  0  2.384488  0  0  -0.4696  -0.772077  0  2.403338  0
O  O125  1  0.30971003  0.28389491  0.25248327  1  0  -0.850658  0  2.132495  0  0  -0.790677  0  2.396724  0  0  -0.82821  0  2.38466  0  0  -0.469581  -0.772147  0  2.403539  0
O  O126  1  0.80969622  0.25248349  0.28389444  1  0  -0.850625  0  2.132522  0  0  -0.790619  0  2.396631  0  0  -0.828159  0  2.384588  0  0  -0.469604  -0.772113  0  2.403459  0
O  O127  1  0.69028538  0.71610536  0.74751496  1  0  -0.850475  0  2.132645  0  0  -0.790436  0  2.396795  0  0  -0.827979  0  2.384747  0  0  -0.469448  -0.771911  0  2.403614  0
O  O128  1  0.32988958  0.16791420  0.46548223  1  0  -0.715207  0  2.022368  0  0  -0.665095  0  2.274738  0  0  -0.696746  0  2.260164  0  0  -0.402142  -0.648032  0  2.2829  0
O  O129  1  0.17009574  0.53451749  0.83209455  1  0  -0.715331  0  2.022075  0  0  -0.665223  0  2.274496  0  0  -0.696868  0  2.259929  0  0  -0.402251  -0.648166  0  2.282667  0
O  O130  1  0.67010965  0.83208680  0.53451622  1  0  -0.715196  0  2.022444  0  0  -0.665063  0  2.274826  0  0  -0.696723  0  2.260249  0  0  -0.402133  -0.648019  0  2.282992  0
O  O131  1  0.82990218  0.46548350  0.16790653  1  0  -0.715205  0  2.02214  0  0  -0.665124  0  2.274514  0  0  -0.696774  0  2.259948  0  0  -0.402185  -0.648055  0  2.282671  0
O  O132  1  0.04589085  0.20211621  0.44188542  1  0  -0.741027  0  2.012865  0  0  -0.683396  0  2.254605  0  0  -0.715506  0  2.242618  0  0  -0.357873  -0.665035  0  2.261599  0
O  O133  1  0.45409337  0.55810860  0.79788026  1  0  -0.740929  0  2.013135  0  0  -0.683248  0  2.254896  0  0  -0.715365  0  2.242906  0  0  -0.357811  -0.664884  0  2.26188  0
O  O134  1  0.95410589  0.79788332  0.55811376  1  0  -0.740988  0  2.01271  0  0  -0.683373  0  2.25448  0  0  -0.715472  0  2.24248  0  0  -0.357846  -0.665012  0  2.261468  0
O  O135  1  0.54590337  0.44189094  0.20211957  1  0  -0.740929  0  2.013065  0  0  -0.683297  0  2.254793  0  0  -0.7154  0  2.242791  0  0  -0.357832  -0.664935  0  2.261784  0
O  O136  1  0.28203133  0.38688280  0.36580408  1  0  -0.849534  0  2.107381  0  0  -0.791863  0  2.370377  0  0  -0.828412  0  2.357338  0  0  -0.453024  -0.774005  0  2.377903  0
O  O137  1  0.21794464  0.63419596  0.61311094  1  0  -0.849402  0  2.107286  0  0  -0.791808  0  2.370302  0  0  -0.828347  0  2.35725  0  0  -0.453079  -0.773959  0  2.377827  0
O  O138  1  0.71797318  0.61311599  0.63419589  1  0  -0.84955  0  2.107458  0  0  -0.791855  0  2.370411  0  0  -0.828411  0  2.357373  0  0  -0.452991  -0.773985  0  2.377917  0
O  O139  1  0.78204964  0.36580138  0.38688996  1  0  -0.849411  0  2.107325  0  0  -0.791802  0  2.370318  0  0  -0.82835  0  2.357283  0  0  -0.453032  -0.773924  0  2.377826  0
O  O140  1  0.07608068  0.50342797  0.32034544  1  0  -0.66468  0  1.919045  0  0  -0.620354  0  2.14762  0  0  -0.648077  0  2.139068  0  0  -0.353788  -0.60429  0  2.15247  0
O  O141  1  0.42390024  0.67964520  0.49657198  1  0  -0.664411  0  1.919383  0  0  -0.620111  0  2.147896  0  0  -0.64785  0  2.139367  0  0  -0.353649  -0.604053  0  2.152744  0
O  O142  1  0.92392531  0.49656715  0.67965812  1  0  -0.664711  0  1.918997  0  0  -0.620375  0  2.147546  0  0  -0.648103  0  2.139007  0  0  -0.353789  -0.604285  0  2.15238  0
O  O143  1  0.57608882  0.32035287  0.50343132  1  0  -0.664501  0  1.919188  0  0  -0.620211  0  2.147708  0  0  -0.647939  0  2.13917  0  0  -0.353717  -0.60411  0  2.152532  0
O  O144  1  0.21856718  0.48923070  0.14530064  1  0  -0.880891  0  1.850869  0  0  -0.835896  0  2.029084  0  0  -0.858484  0  1.996803  0  0  -0.611761  -0.823436  0  2.047702  0
O  O145  1  0.28142515  0.85469705  0.51076073  1  0  -0.880941  0  1.851048  0  0  -0.835957  0  2.029264  0  0  -0.858554  0  1.996871  0  0  -0.61182  -0.823521  0  2.047895  0
O  O146  1  0.78143204  0.51077029  0.85469976  1  0  -0.88086  0  1.850888  0  0  -0.835865  0  2.029109  0  0  -0.858448  0  1.996834  0  0  -0.611775  -0.823433  0  2.047765  0
O  O147  1  0.71857018  0.14530468  0.48923748  1  0  -0.880915  0  1.851089  0  0  -0.835923  0  2.029342  0  0  -0.85851  0  1.996921  0  0  -0.611813  -0.823481  0  2.047995  0
