# generated using pymatgen
data_TmH11C14(NO4)2
_symmetry_space_group_name_H-M   'P 1'
_cell_length_a   8.29907616
_cell_length_b   10.70773185
_cell_length_c   22.30341878
_cell_angle_alpha   93.72087568
_cell_angle_beta   90.01290788
_cell_angle_gamma   112.76542893
_symmetry_Int_Tables_number   1
_chemical_formula_structural   TmH11C14(NO4)2
_chemical_formula_sum   'Tm4 H44 C56 N8 O32'
_cell_volume   1823.03093961
_cell_formula_units_Z   4
loop_
 _symmetry_equiv_pos_site_id
 _symmetry_equiv_pos_as_xyz
  1  'x, y, z'
loop_
 _atom_site_type_symbol
 _atom_site_label
 _atom_site_symmetry_multiplicity
 _atom_site_fract_x
 _atom_site_fract_y
 _atom_site_fract_z
 _atom_site_occupancy
 _atom_site_pbe_bader_charge
 _atom_site_pbe_bader_spin_density
 _atom_site_pbe_cm5_charge
 _atom_site_pbe_ddec_charge
 _atom_site_pbe_ddec_spin_density
 _atom_site_pbe_ddec_sum_bond_order
 _atom_site_pbe_magmom
Tm  Tm0  1  0.80793062  0.49892572  0.72651072  1  2.17681  0  1.553034  2.093209  0  2.133224  0
Tm  Tm1  1  0.30879380  0.50073976  0.77364740  1  2.173806  0  1.552952  2.092574  0  2.133741  0
Tm  Tm2  1  0.19207444  0.50107570  0.27348795  1  2.176773  0  1.553058  2.093273  0  2.133054  0
Tm  Tm3  1  0.69120373  0.49925862  0.22635110  1  2.173788  0  1.552901  2.092591  0  2.133661  0
H  H4  1  0.25037901  0.88670743  0.82552100  1  0.095791  0  0.108841  0.133662  0  0.981417  0
H  H5  1  0.36407591  0.11282486  0.67451965  1  0.085545  0  0.108325  0.133577  0  0.981807  0
H  H6  1  0.74961955  0.11330509  0.17447875  1  0.095784  0  0.108847  0.133689  0  0.981393  0
H  H7  1  0.63591147  0.88717251  0.32547880  1  0.085395  0  0.108341  0.133572  0  0.981566  0
H  H8  1  0.67892400  0.82037580  0.91545846  1  0.127119  0  0.112923  0.12645  0  0.995363  0
H  H9  1  0.85859024  0.17917311  0.58472139  1  0.139155  0  0.113229  0.126582  0  0.995987  0
H  H10  1  0.32106111  0.17960981  0.08453618  1  0.127275  0  0.112907  0.126426  0  0.995495  0
H  H11  1  0.14139434  0.82082590  0.41528029  1  0.139396  0  0.113284  0.126616  0  0.996017  0
H  H12  1  0.23973538  0.00328046  0.92478575  1  0.072024  0  0.10558  0.107779  0  1.003291  0
H  H13  1  0.23686288  0.99634519  0.57524783  1  0.084611  0  0.105622  0.107764  0  1.003005  0
H  H14  1  0.76025245  0.99673229  0.07521221  1  0.071902  0  0.105531  0.107732  0  1.003254  0
H  H15  1  0.76311564  0.00364891  0.42475223  1  0.083903  0  0.105641  0.107802  0  1.002935  0
H  H16  1  0.15094019  0.77635000  0.04389856  1  0.103521  0  0.114297  0.135256  0  0.96339  0
H  H17  1  0.37520434  0.22389510  0.45629933  1  0.089061  0  0.114663  0.135686  0  0.963401  0
H  H18  1  0.84907840  0.22366162  0.95610024  1  0.103617  0  0.114323  0.13532  0  0.963355  0
H  H19  1  0.62480136  0.77610277  0.54370318  1  0.089078  0  0.114643  0.13564  0  0.963322  0
H  H20  1  0.84605476  0.70649787  0.07538164  1  0.069398  0  0.106252  0.098438  0  1.028306  0
H  H21  1  0.14017130  0.29380551  0.42471726  1  0.033787  0  0.106219  0.097984  0  1.028787  0
H  H22  1  0.15396853  0.29349661  0.92462339  1  0.069069  0  0.106228  0.098475  0  1.028187  0
H  H23  1  0.85983305  0.70619207  0.57528749  1  0.033707  0  0.106162  0.09788  0  1.028765  0
H  H24  1  0.67010206  0.45718744  0.90964982  1  0.097731  0  0.109562  0.110729  0  1.035442  0
H  H25  1  0.21258063  0.54271435  0.59054215  1  0.076965  0  0.109309  0.110593  0  1.035979  0
H  H26  1  0.32990486  0.54281527  0.09035477  1  0.097773  0  0.109487  0.110623  0  1.035587  0
H  H27  1  0.78742695  0.45728245  0.40946076  1  0.076935  0  0.109291  0.110609  0  1.035931  0
H  H28  1  0.25657296  0.64567986  0.90615885  1  0.668002  0  0.313803  0.364615  0  0.948458  0
H  H29  1  0.61110401  0.35447184  0.59410519  1  0.666394  0  0.314161  0.365192  0  0.947661  0
H  H30  1  0.74342287  0.35432720  0.09383565  1  0.667662  0  0.313801  0.364659  0  0.948402  0
H  H31  1  0.38890721  0.64552501  0.40589728  1  0.666432  0  0.314209  0.365174  0  0.947695  0
H  H32  1  0.60665982  0.30667964  0.79801066  1  0.632631  0  0.317433  0.408623  0  0.895947  0
H  H33  1  0.29981392  0.69300844  0.70213595  1  0.636754  0  0.31743  0.408132  0  0.896719  0
H  H34  1  0.39334622  0.69332133  0.20199158  1  0.63263  0  0.317424  0.408624  0  0.895948  0
H  H35  1  0.70017810  0.30698374  0.29786310  1  0.636335  0  0.317443  0.408148  0  0.896699  0
H  H36  1  0.46291819  0.28578081  0.74659097  1  0.643552  0  0.29229  0.384472  0  0.966261  0
H  H37  1  0.17674090  0.71403396  0.75344205  1  0.651823  0  0.292106  0.384293  0  0.966238  0
H  H38  1  0.53709123  0.71421728  0.25340977  1  0.643459  0  0.292345  0.384537  0  0.966206  0
H  H39  1  0.82326050  0.28596735  0.24655751  1  0.651817  0  0.29211  0.384286  0  0.966246  0
H  H40  1  0.03149552  0.71469196  0.64937531  1  0.629019  0  0.334542  0.415872  0  0.864978  0
H  H41  1  0.31707941  0.28494199  0.85075382  1  0.588348  0  0.334596  0.416054  0  0.865086  0
H  H42  1  0.96850451  0.28531143  0.35062393  1  0.629057  0  0.334565  0.415918  0  0.864971  0
H  H43  1  0.68291671  0.71505358  0.14924273  1  0.588384  0  0.334636  0.416139  0  0.865008  0
H  H44  1  0.98801863  0.58354713  0.60393526  1  0.651328  0  0.296952  0.359602  0  0.993011  0
H  H45  1  0.40467453  0.41617277  0.89615530  1  0.647751  0  0.296729  0.35943  0  0.993294  0
H  H46  1  0.01198517  0.41645418  0.39606431  1  0.651338  0  0.296954  0.359616  0  0.992997  0
H  H47  1  0.59532226  0.58382173  0.10384164  1  0.647714  0  0.296765  0.359459  0  0.993234  0
C  C48  1  0.12483755  0.87345907  0.84514870  1  -0.075459  0  -0.107843  -0.209291  0  3.943906  0
C  C49  1  0.25179557  0.12615979  0.65487455  1  -0.081183  0  -0.107112  -0.20996  0  3.943727  0
C  C50  1  0.87516217  0.12654371  0.15484735  1  -0.061192  0  -0.107825  -0.20946  0  3.944116  0
C  C51  1  0.74819031  0.87383217  0.34512629  1  -0.080962  0  -0.107069  -0.209786  0  3.94336  0
C  C52  1  0.97010332  0.78044723  0.81435045  1  0.643487  0  0.097944  0.364832  0  4.056151  0
C  C53  1  0.19008772  0.21921417  0.68570454  1  0.670949  0  0.096844  0.364444  0  4.055732  0
C  C54  1  0.02989692  0.21955419  0.18564823  1  0.629212  0  0.097963  0.364862  0  4.056305  0
C  C55  1  0.80989463  0.78077796  0.31429496  1  0.670814  0  0.096793  0.364332  0  4.055985  0
C  C56  1  0.80739915  0.76459120  0.84093459  1  -0.040896  0  -0.039077  -0.186064  0  3.979209  0
C  C57  1  0.04307440  0.23502943  0.65918074  1  -0.079224  0  -0.038319  -0.18447  0  3.979753  0
C  C58  1  0.19259932  0.23540426  0.15906285  1  -0.040531  0  -0.038976  -0.185899  0  3.979132  0
C  C59  1  0.95691586  0.76496647  0.34082121  1  -0.079606  0  -0.038318  -0.184381  0  3.979826  0
C  C60  1  0.63696994  0.66811441  0.81766670  1  1.458888  0  0.205096  0.640454  0  4.144456  0
C  C61  1  0.96900640  0.33151220  0.68247916  1  1.497015  0  0.204297  0.639087  0  4.146468  0
C  C62  1  0.36302945  0.33187806  0.18233013  1  1.45889  0  0.205115  0.640347  0  4.144317  0
C  C63  1  0.03099569  0.66848810  0.31752035  1  1.497217  0  0.204341  0.639161  0  4.146261  0
C  C64  1  0.80441219  0.83628393  0.89536890  1  -0.003323  0  -0.070802  -0.119889  0  3.943119  0
C  C65  1  0.96832917  0.16332471  0.60477533  1  -0.065942  0  -0.071336  -0.120902  0  3.945715  0
C  C66  1  0.19558201  0.16370781  0.10462564  1  -0.00354  0  -0.070825  -0.119889  0  3.943128  0
C  C67  1  0.03166299  0.83667017  0.39522657  1  -0.066058  0  -0.071391  -0.121021  0  3.945865  0
C  C68  1  0.95694211  0.91987863  0.92655399  1  0.348985  0  0.068519  0.129767  0  4.107489  0
C  C69  1  0.03734401  0.07981953  0.57351361  1  0.387354  0  0.067862  0.129355  0  4.108049  0
C  C70  1  0.04304583  0.08011987  0.07344362  1  0.34911  0  0.068509  0.129652  0  4.107625  0
C  C71  1  0.96263678  0.92017429  0.42648868  1  0.38702  0  0.068027  0.129607  0  4.10796  0
C  C72  1  0.11942653  0.93919777  0.90015493  1  0.010748  0  -0.081299  -0.110716  0  3.976235  0
C  C73  1  0.18058118  0.06045963  0.59986395  1  0.01232  0  -0.08112  -0.109982  0  3.9758  0
C  C74  1  0.88056368  0.06081008  0.09984141  1  0.010626  0  -0.081286  -0.110533  0  3.976244  0
C  C75  1  0.81939953  0.93953645  0.40013667  1  0.01359  0  -0.081256  -0.110247  0  3.97562  0
C  C76  1  0.97770359  0.51433443  0.86141788  1  1.530185  0  0.233201  0.66209  0  4.140775  0
C  C77  1  0.46330690  0.48573488  0.63878222  1  1.520691  0  0.232352  0.65967  0  4.14386  0
C  C78  1  0.02229760  0.48567611  0.13858130  1  1.530071  0  0.233192  0.66216  0  4.140797  0
C  C79  1  0.53669472  0.51426687  0.36122186  1  1.521392  0  0.232297  0.659667  0  4.144077  0
C  C80  1  0.94491616  0.56418492  0.92181765  1  0.070553  0  -0.032028  -0.190901  0  3.992229  0
C  C81  1  0.38073258  0.43586852  0.57838613  1  0.06285  0  -0.031989  -0.188716  0  3.990997  0
C  C82  1  0.05508352  0.43582743  0.07818344  1  0.070659  0  -0.03198  -0.190755  0  3.991965  0
C  C83  1  0.61926639  0.56412552  0.42161438  1  0.062515  0  -0.032082  -0.188934  0  3.991318  0
C  C84  1  0.08448923  0.65379106  0.96023605  1  0.587926  0  0.108211  0.333701  0  4.019968  0
C  C85  1  0.43090278  0.34631736  0.53997738  1  0.491941  0  0.108326  0.332717  0  4.020061  0
C  C86  1  0.91552287  0.34622444  0.03976431  1  0.587839  0  0.108022  0.333534  0  4.01987  0
C  C87  1  0.56909994  0.65367454  0.46002390  1  0.492387  0  0.108389  0.332991  0  4.019859  0
C  C88  1  0.04426948  0.70465969  0.01542583  1  -0.072557  0  -0.097433  -0.188985  0  3.965242  0
C  C89  1  0.34000266  0.29549867  0.48476010  1  0.083417  0  -0.098199  -0.19082  0  3.966527  0
C  C90  1  0.95574463  0.29535260  0.98457570  1  -0.072128  0  -0.097463  -0.189041  0  3.965176  0
C  C91  1  0.65999968  0.70449729  0.51524141  1  0.083485  0  -0.098173  -0.190851  0  3.966606  0
C  C92  1  0.87286329  0.66518176  0.03251222  1  -0.033524  0  -0.07567  -0.104401  0  3.965594  0
C  C93  1  0.20806888  0.33498008  0.46762571  1  -0.027291  0  -0.075143  -0.101937  0  3.964537  0
C  C94  1  0.12715304  0.33482292  0.96749293  1  -0.033427  0  -0.075644  -0.104395  0  3.965406  0
C  C95  1  0.79192460  0.66501503  0.53237440  1  -0.027285  0  -0.075079  -0.101824  0  3.96461  0
C  C96  1  0.73280345  0.57402265  0.99547682  1  0.371466  0  0.076394  0.135942  0  4.071471  0
C  C97  1  0.15891945  0.42602276  0.50465179  1  0.422636  0  0.075731  0.135011  0  4.072593  0
C  C98  1  0.26721219  0.42598788  0.00453045  1  0.370913  0  0.07652  0.136027  0  4.071378  0
C  C99  1  0.84108667  0.57397111  0.49535006  1  0.42259  0  0.075757  0.135012  0  4.072569  0
C  C100  1  0.77299264  0.52629828  0.93993815  1  -0.025765  0  -0.070986  -0.108687  0  3.923715  0
C  C101  1  0.24656673  0.47368551  0.56023293  1  -0.039666  0  -0.070984  -0.110077  0  3.926186  0
C  C102  1  0.22701341  0.47370753  0.06006616  1  -0.025971  0  -0.070965  -0.108681  0  3.923651  0
C  C103  1  0.75343123  0.52631134  0.43976953  1  -0.039459  0  -0.070917  -0.110037  0  3.926177  0
N  N104  1  0.56384219  0.53589591  0.01790683  1  -0.522943  0  -0.147516  -0.126714  0  3.318731  0
N  N105  1  0.02807826  0.46414173  0.48212063  1  -0.571915  0  -0.147087  -0.126273  0  3.318034  0
N  N106  1  0.43617915  0.46410674  0.98209820  1  -0.555263  0  -0.147606  -0.126954  0  3.318881  0
N  N107  1  0.97192559  0.53585727  0.51788105  1  -0.524622  0  -0.147149  -0.126279  0  3.318219  0
N  N108  1  0.93140748  0.97270024  0.98342369  1  -0.49033  0  -0.167325  -0.159988  0  3.348378  0
N  N109  1  0.95867283  0.02709530  0.51666906  1  -0.501117  0  -0.166868  -0.159495  0  3.349139  0
N  N110  1  0.06857594  0.02729646  0.01657202  1  -0.534462  0  -0.167335  -0.159931  0  3.348383  0
N  N111  1  0.04130785  0.97290072  0.48333201  1  -0.549637  0  -0.166902  -0.159566  0  3.349332  0
O  O112  1  0.84905055  0.45896049  0.82459399  1  -1.209766  0  -0.395241  -0.663629  0  2.327828  0
O  O113  1  0.39008657  0.54116855  0.67559890  1  -1.201817  0  -0.394669  -0.662671  0  2.329372  0
O  O114  1  0.15093930  0.54105389  0.17540720  1  -1.209738  0  -0.395216  -0.663675  0  2.327771  0
O  O115  1  0.60990452  0.45882420  0.32440378  1  -1.201807  0  -0.394576  -0.662637  0  2.32915  0
O  O116  1  0.13663561  0.53310730  0.84894556  1  -1.187781  0  -0.38799  -0.672043  0  2.327594  0
O  O117  1  0.60347029  0.46691370  0.65127019  1  -1.194726  0  -0.387904  -0.671191  0  2.328263  0
O  O118  1  0.86336981  0.46690206  0.15105490  1  -1.187782  0  -0.388048  -0.672138  0  2.327667  0
O  O119  1  0.39654206  0.53308540  0.34873061  1  -1.195458  0  -0.387914  -0.671183  0  2.32842  0
O  O120  1  0.49731578  0.66359732  0.84257759  1  -1.172134  0  -0.384035  -0.597018  0  2.197592  0
O  O121  1  0.83385993  0.33606999  0.65755230  1  -1.170107  0  -0.383375  -0.596523  0  2.197712  0
O  O122  1  0.50268665  0.33638918  0.15741800  1  -1.172275  0  -0.384191  -0.597142  0  2.197271  0
O  O123  1  0.16614529  0.66393656  0.34244621  1  -1.170092  0  -0.383374  -0.596534  0  2.197591  0
O  O124  1  0.62181710  0.58252262  0.77150939  1  -1.207284  0  -0.480076  -0.79821  0  2.45501  0
O  O125  1  0.03932854  0.41701196  0.72867563  1  -1.211793  0  -0.479834  -0.797563  0  2.454609  0
O  O126  1  0.37819062  0.41747447  0.22848320  1  -1.206991  0  -0.47998  -0.798079  0  2.454951  0
O  O127  1  0.96067554  0.58298749  0.27132249  1  -1.211799  0  -0.479839  -0.79758  0  2.454541  0
O  O128  1  0.98226964  0.71077059  0.76415594  1  -1.206759  0  -0.43398  -0.677715  0  2.322949  0
O  O129  1  0.27198586  0.28897957  0.73587908  1  -1.207589  0  -0.433158  -0.677328  0  2.323413  0
O  O130  1  0.01774175  0.28922660  0.23584384  1  -1.206888  0  -0.434039  -0.67775  0  2.322948  0
O  O131  1  0.72800569  0.71101650  0.26412154  1  -1.207708  0  -0.433163  -0.67737  0  2.323603  0
O  O132  1  0.25281283  0.69367329  0.94586183  1  -1.156881  0  -0.332184  -0.422095  0  2.28814  0
O  O133  1  0.55939777  0.30646645  0.55439112  1  -1.161963  0  -0.332363  -0.421966  0  2.287311  0
O  O134  1  0.74719672  0.30634193  0.05413267  1  -1.156389  0  -0.332055  -0.422054  0  2.28809  0
O  O135  1  0.44060609  0.69352534  0.44561106  1  -1.162191  0  -0.33242  -0.422036  0  2.287448  0
O  O136  1  0.99444503  0.61645335  0.64741785  1  -1.277583  0  -0.608393  -0.829103  0  2.166526  0
O  O137  1  0.37809787  0.38318009  0.85267854  1  -1.234044  0  -0.60835  -0.829099  0  2.166789  0
O  O138  1  0.00556528  0.38354892  0.35258222  1  -1.277651  0  -0.608404  -0.829171  0  2.166494  0
O  O139  1  0.62189676  0.61681734  0.14731946  1  -1.234033  0  -0.608422  -0.829221  0  2.166707  0
O  O140  1  0.58874863  0.29754891  0.75443974  1  -1.264846  0  -0.643058  -0.839994  0  2.061746  0
O  O141  1  0.29074693  0.70218164  0.74569218  1  -1.277208  0  -0.642852  -0.839131  0  2.063062  0
O  O142  1  0.41126144  0.70244805  0.24556183  1  -1.264762  0  -0.643127  -0.840099  0  2.061738  0
O  O143  1  0.70925300  0.29781674  0.25430632  1  -1.276767  0  -0.642847  -0.839118  0  2.063019  0
