# generated using pymatgen
data_Na2PH13(C3O5)2
_symmetry_space_group_name_H-M   'P 1'
_cell_length_a   6.29570803
_cell_length_b   8.57616628
_cell_length_c   11.37683904
_cell_angle_alpha   90.70389401
_cell_angle_beta   89.33979837
_cell_angle_gamma   94.44159386
_symmetry_Int_Tables_number   1
_chemical_formula_structural   Na2PH13(C3O5)2
_chemical_formula_sum   'Na4 P2 H26 C12 O20'
_cell_volume   612.34469008
_cell_formula_units_Z   2
loop_
 _symmetry_equiv_pos_site_id
 _symmetry_equiv_pos_as_xyz
  1  'x, y, z'
loop_
 _atom_site_type_symbol
 _atom_site_label
 _atom_site_symmetry_multiplicity
 _atom_site_fract_x
 _atom_site_fract_y
 _atom_site_fract_z
 _atom_site_occupancy
 _atom_site_hle17_bader_spin_density
 _atom_site_hle17_ddec_charge
 _atom_site_hle17_ddec_spin_density
 _atom_site_hle17_ddec_sum_bond_order
 _atom_site_hle17_magmom
 _atom_site_hse06_10hf_bader_spin_density
 _atom_site_hse06_10hf_ddec_charge
 _atom_site_hse06_10hf_ddec_spin_density
 _atom_site_hse06_10hf_ddec_sum_bond_order
 _atom_site_hse06_10hf_magmom
 _atom_site_hse06_bader_spin_density
 _atom_site_hse06_ddec_charge
 _atom_site_hse06_ddec_spin_density
 _atom_site_hse06_ddec_sum_bond_order
 _atom_site_hse06_magmom
 _atom_site_pbe_bader_spin_density
 _atom_site_pbe_cm5_charge
 _atom_site_pbe_ddec_charge
 _atom_site_pbe_ddec_spin_density
 _atom_site_pbe_ddec_sum_bond_order
 _atom_site_pbe_magmom
Na  Na0  1  0.85070913  0.62869840  0.14838518  1  0  0.902205  0  0.387297  0  0  0.857466  0  0.538951  0  0  0.867574  0  0.517487  0  0  0.690018  0.849927  0  0.554382  0
Na  Na1  1  0.14928836  0.37130069  0.85161426  1  0  0.902208  0  0.38729  0  0  0.857467  0  0.538959  0  0  0.867577  0  0.517494  0  0  0.690026  0.849926  0  0.55439  0
Na  Na2  1  0.80219926  0.85693177  0.39467946  1  0  0.92275  0  0.320106  0  0  0.876534  0  0.46153  0  0  0.888848  0  0.439401  0  0  0.650952  0.867264  0  0.477655  0
Na  Na3  1  0.19779833  0.14306848  0.60532088  1  0  0.92274  0  0.320118  0  0  0.876531  0  0.461539  0  0  0.888841  0  0.439414  0  0  0.650943  0.867254  0  0.47767  0
P  P4  1  0.34227537  0.72371844  0.22743828  1  0  1.135211  0  4.621051  0  0  1.011333  0  5.080382  0  0  1.04813  0  5.06132  0  0  0.275617  0.985047  0  5.094235  0
P  P5  1  0.65772068  0.27628184  0.77256116  1  0  1.135185  0  4.621114  0  0  1.011324  0  5.080445  0  0  1.048117  0  5.061398  0  0  0.275561  0.985038  0  5.094295  0
H  H6  1  0.27163262  0.11072355  0.09118720  1  0  0.133365  0  0.978984  0  0  0.151997  0  1.041306  0  0  0.154461  0  1.040068  0  0  0.094186  0.15057  0  1.041301  0
H  H7  1  0.72836221  0.88927911  0.90881052  1  0  0.133397  0  0.978973  0  0  0.152045  0  1.041274  0  0  0.154511  0  1.040036  0  0  0.094218  0.150618  0  1.041263  0
H  H8  1  0.62357299  0.28810197  0.15985558  1  0  0.436699  0  0.825524  0  0  0.413936  0  0.883997  0  0  0.421745  0  0.872489  0  0  0.319  0.408588  0  0.891899  0
H  H9  1  0.37642459  0.71189715  0.84014209  1  0  0.436681  0  0.825542  0  0  0.413915  0  0.884026  0  0  0.421723  0  0.87252  0  0  0.318998  0.408566  0  0.891929  0
H  H10  1  0.69163165  0.34261736  0.02929994  1  0  0.434579  0  0.863249  0  0  0.403968  0  0.925915  0  0  0.414166  0  0.91097  0  0  0.299592  0.396697  0  0.936615  0
H  H11  1  0.30836611  0.65738294  0.97069688  1  0  0.434543  0  0.863298  0  0  0.403892  0  0.926043  0  0  0.414096  0  0.911087  0  0  0.299554  0.396621  0  0.936745  0
H  H12  1  0.99365142  0.67673236  0.91351552  1  0  0.408314  0  0.897272  0  0  0.381801  0  0.955658  0  0  0.391805  0  0.94062  0  0  0.285551  0.374901  0  0.965974  0
H  H13  1  0.00634611  0.32326674  0.08648304  1  0  0.408308  0  0.897275  0  0  0.381797  0  0.955659  0  0  0.391802  0  0.94062  0  0  0.285567  0.374896  0  0.965975  0
H  H14  1  0.79129172  0.56028401  0.91180851  1  0  0.417109  0  0.895304  0  0  0.387166  0  0.958855  0  0  0.397455  0  0.943722  0  0  0.286337  0.380312  0  0.968888  0
H  H15  1  0.20870565  0.43971504  0.08819356  1  0  0.417142  0  0.895247  0  0  0.387206  0  0.958784  0  0  0.397496  0  0.943652  0  0  0.28637  0.380353  0  0.968817  0
H  H16  1  0.25992889  0.39346424  0.27343442  1  0  0.119156  0  0.958581  0  0  0.139425  0  1.019351  0  0  0.141816  0  1.018071  0  0  0.098778  0.137518  0  1.020548  0
H  H17  1  0.74007043  0.60653716  0.72656595  1  0  0.119105  0  0.9586  0  0  0.139382  0  1.019372  0  0  0.141774  0  1.01809  0  0  0.098765  0.137473  0  1.020571  0
H  H18  1  0.49795582  0.99996389  0.10704658  1  0  0.122202  0  0.964375  0  0  0.142579  0  1.025419  0  0  0.144491  0  1.024893  0  0  0.100136  0.140975  0  1.026109  0
H  H19  1  0.50204073  0.00003992  0.89295117  1  0  0.122206  0  0.964415  0  0  0.142615  0  1.025409  0  0  0.144528  0  1.024886  0  0  0.100154  0.14101  0  1.026099  0
H  H20  1  0.27237482  0.91718357  0.02935029  1  0  0.108894  0  0.961755  0  0  0.12794  0  1.026052  0  0  0.130383  0  1.024509  0  0  0.094367  0.125648  0  1.027828  0
H  H21  1  0.72762122  0.08281671  0.97064915  1  0  0.108941  0  0.961779  0  0  0.128006  0  1.026053  0  0  0.130454  0  1.024506  0  0  0.0944  0.125713  0  1.027826  0
H  H22  1  0.48520494  0.46415351  0.35790206  1  0  0.127179  0  0.948641  0  0  0.146739  0  1.007872  0  0  0.148779  0  1.007802  0  0  0.103136  0.145058  0  1.008365  0
H  H23  1  0.51479120  0.53584792  0.64209828  1  0  0.127111  0  0.94871  0  0  0.146682  0  1.007929  0  0  0.14872  0  1.007865  0  0  0.103114  0.144998  0  1.00842  0
H  H24  1  0.94744686  0.98428678  0.17319588  1  0  0.388416  0  0.817188  0  0  0.381075  0  0.861353  0  0  0.388207  0  0.853699  0  0  0.340864  0.37612  0  0.866723  0
H  H25  1  0.05254882  0.01571113  0.82680528  1  0  0.3884  0  0.817205  0  0  0.381063  0  0.861361  0  0  0.388195  0  0.85371  0  0  0.340871  0.376108  0  0.866732  0
H  H26  1  0.51061393  0.15334240  0.40933985  1  0  0.391123  0  0.913594  0  0  0.358266  0  0.993973  0  0  0.37269  0  0.979828  0  0  0.297606  0.348146  0  1.003937  0
H  H27  1  0.48939093  0.84665306  0.59066222  1  0  0.391097  0  0.913631  0  0  0.358235  0  0.994017  0  0  0.37266  0  0.979873  0  0  0.297558  0.348116  0  1.003979  0
H  H28  1  0.24592581  0.38765804  0.42900557  1  0  0.119395  0  0.960513  0  0  0.134704  0  1.029755  0  0  0.137546  0  1.028403  0  0  0.100474  0.132549  0  1.031242  0
H  H29  1  0.75407392  0.61234575  0.57099221  1  0  0.119342  0  0.960487  0  0  0.134656  0  1.029751  0  0  0.1375  0  1.028399  0  0  0.100463  0.132502  0  1.031241  0
H  H30  1  0.93843991  0.50921479  0.38732723  1  0  0.392358  0  0.905146  0  0  0.367283  0  0.978377  0  0  0.377908  0  0.964347  0  0  0.300997  0.359862  0  0.986891  0
H  H31  1  0.06155892  0.49078196  0.61267130  1  0  0.392268  0  0.905195  0  0  0.367198  0  0.978439  0  0  0.377823  0  0.964454  0  0  0.300977  0.359773  0  0.986961  0
C  C32  1  0.22494417  0.61846859  0.35881768  1  0  0.006448  0  3.63042  0  0  0.027002  0  3.883172  0  0  0.023811  0  3.894279  0  0  0.059102  0.029431  0  3.875209  0
C  C33  1  0.77505822  0.38153163  0.64118182  1  0  0.006391  0  3.630399  0  0  0.026887  0  3.883181  0  0  0.023702  0  3.894292  0  0  0.059053  0.029317  0  3.875214  0
C  C34  1  0.28579784  0.02269116  0.32480702  1  0  0.639919  0  3.81616  0  0  0.591654  0  4.117232  0  0  0.623669  0  4.109563  0  0  0.227417  0.568636  0  4.123628  0
C  C35  1  0.71422144  0.97731598  0.67518920  1  0  0.639943  0  3.816351  0  0  0.591727  0  4.117345  0  0  0.623742  0  4.109679  0  0  0.227519  0.56871  0  4.123741  0
C  C36  1  0.23080396  0.92150647  0.21651821  1  0  0.013353  0  3.627608  0  0  0.033863  0  3.880514  0  0  0.030541  0  3.891446  0  0  0.057702  0.035959  0  3.873766  0
C  C37  1  0.76919235  0.07849725  0.78348481  1  0  0.013395  0  3.627507  0  0  0.033836  0  3.880507  0  0  0.030513  0  3.891449  0  0  0.057702  0.035935  0  3.873753  0
C  C38  1  0.28739175  0.69350619  0.47899334  1  0  0.647326  0  3.829516  0  0  0.598052  0  4.130741  0  0  0.630225  0  4.124277  0  0  0.226596  0.576262  0  4.133933  0
C  C39  1  0.71258870  0.30648704  0.52101554  1  0  0.647222  0  3.829302  0  0  0.598151  0  4.130243  0  0  0.630301  0  4.12382  0  0  0.226776  0.576357  0  4.133439  0
C  C40  1  0.32411552  0.99266797  0.10382161  1  0  -0.366932  0  3.721696  0  0  -0.452501  0  3.961166  0  0  -0.455338  0  3.969839  0  0  -0.249414  -0.449529  0  3.954891  0
C  C41  1  0.67588235  0.00733462  0.89617877  1  0  -0.367024  0  3.721779  0  0  -0.452623  0  3.961235  0  0  -0.455453  0  3.969883  0  0  -0.249479  -0.449645  0  3.95496  0
C  C42  1  0.31082791  0.45586037  0.35424699  1  0  -0.350339  0  3.670568  0  0  -0.430204  0  3.905457  0  0  -0.433382  0  3.91356  0  0  -0.241006  -0.428308  0  3.900969  0
C  C43  1  0.68916185  0.54414111  0.64575418  1  0  -0.350053  0  3.670282  0  0  -0.429959  0  3.905195  0  0  -0.433123  0  3.913271  0  0  -0.240907  -0.428072  0  3.900728  0
O  O44  1  0.00298671  0.89241472  0.20782818  1  0  -0.594007  0  2.137716  0  0  -0.557526  0  2.360107  0  0  -0.569  0  2.348012  0  0  -0.451006  -0.549483  0  2.368398  0
O  O45  1  0.99701086  0.10758664  0.79217569  1  0  -0.594011  0  2.137613  0  0  -0.557527  0  2.360046  0  0  -0.569009  0  2.347956  0  0  -0.451046  -0.549486  0  2.368338  0
O  O46  1  0.58082776  0.74794560  0.23670391  1  0  -0.87079  0  1.973433  0  0  -0.817244  0  2.246122  0  0  -0.83916  0  2.229373  0  0  -0.499419  -0.80175  0  2.257594  0
O  O47  1  0.41917457  0.25205572  0.76330000  1  0  -0.870736  0  1.973556  0  0  -0.817226  0  2.246332  0  0  -0.839118  0  2.229534  0  0  -0.499338  -0.801731  0  2.257802  0
O  O48  1  0.45789861  0.78652536  0.48274580  1  0  -0.662097  0  2.102365  0  0  -0.609437  0  2.341868  0  0  -0.635559  0  2.332995  0  0  -0.3603  -0.590403  0  2.347034  0
O  O49  1  0.54210801  0.21347014  0.51725277  1  0  -0.661882  0  2.102862  0  0  -0.609273  0  2.342249  0  0  -0.635384  0  2.333384  0  0  -0.360255  -0.590245  0  2.347419  0
O  O50  1  0.25068457  0.63355892  0.12024284  1  0  -0.846319  0  2.020558  0  0  -0.763657  0  2.25642  0  0  -0.788138  0  2.240325  0  0  -0.392621  -0.74615  0  2.267327  0
O  O51  1  0.74931623  0.36644131  0.87975665  1  0  -0.846342  0  2.020577  0  0  -0.7637  0  2.256443  0  0  -0.788177  0  2.240338  0  0  -0.392648  -0.746189  0  2.267338  0
O  O52  1  0.47839663  0.09317933  0.32281225  1  0  -0.565551  0  2.069092  0  0  -0.513484  0  2.292201  0  0  -0.536265  0  2.278417  0  0  -0.320927  -0.497944  0  2.302494  0
O  O53  1  0.52160675  0.90681731  0.67719071  1  0  -0.565609  0  2.069032  0  0  -0.513559  0  2.292129  0  0  -0.536348  0  2.278348  0  0  -0.320994  -0.498016  0  2.302418  0
O  O54  1  0.99729659  0.60772331  0.34725653  1  0  -0.640853  0  2.102396  0  0  -0.602265  0  2.336225  0  0  -0.615749  0  2.321753  0  0  -0.457327  -0.592455  0  2.344677  0
O  O55  1  0.00270516  0.39227332  0.65274730  1  0  -0.640737  0  2.102385  0  0  -0.602149  0  2.336198  0  0  -0.615638  0  2.321765  0  0  -0.457282  -0.592338  0  2.344647  0
O  O56  1  0.15417647  0.03226716  0.40638440  1  0  -0.633087  0  1.946822  0  0  -0.597911  0  2.182571  0  0  -0.617128  0  2.171449  0  0  -0.364089  -0.584859  0  2.190719  0
O  O57  1  0.84582468  0.96773655  0.59361691  1  0  -0.633016  0  1.947125  0  0  -0.597837  0  2.182827  0  0  -0.617053  0  2.171705  0  0  -0.364075  -0.584789  0  2.190977  0
O  O58  1  0.17390752  0.65781354  0.56727443  1  0  -0.591432  0  1.962478  0  0  -0.540804  0  2.18032  0  0  -0.56311  0  2.170834  0  0  -0.301947  -0.525584  0  2.18634  0
O  O59  1  0.82611227  0.34218313  0.43271723  1  0  -0.591594  0  1.961717  0  0  -0.541062  0  2.179491  0  0  -0.563366  0  2.170012  0  0  -0.302138  -0.52584  0  2.185511  0
O  O60  1  0.72744128  0.35308452  0.11437832  1  0  -0.863409  0  1.774418  0  0  -0.81162  0  1.932505  0  0  -0.828293  0  1.901668  0  0  -0.611173  -0.799679  0  1.953786  0
O  O61  1  0.27255648  0.64691579  0.88561850  1  0  -0.863363  0  1.774454  0  0  -0.811554  0  1.932549  0  0  -0.828231  0  1.901716  0  0  -0.611142  -0.799613  0  1.953832  0
O  O62  1  0.84461065  0.66531057  0.94216853  1  0  -0.881208  0  1.758427  0  0  -0.836122  0  1.913779  0  0  -0.853136  0  1.883002  0  0  -0.65922  -0.823308  0  1.934015  0
O  O63  1  0.15538848  0.33468964  0.05783270  1  0  -0.881234  0  1.758421  0  0  -0.836152  0  1.913772  0  0  -0.853166  0  1.882995  0  0  -0.659263  -0.823338  0  1.934009  0
