# generated using pymatgen
data_BaP4H26(C2O)12
_symmetry_space_group_name_H-M   'P 1'
_cell_length_a   7.98392050
_cell_length_b   14.53601635
_cell_length_c   14.53611935
_cell_angle_alpha   96.90603492
_cell_angle_beta   98.69450937
_cell_angle_gamma   98.69485760
_symmetry_Int_Tables_number   1
_chemical_formula_structural   BaP4H26(C2O)12
_chemical_formula_sum   'Ba2 P8 H52 C48 O24'
_cell_volume   1630.65875655
_cell_formula_units_Z   2
loop_
 _symmetry_equiv_pos_site_id
 _symmetry_equiv_pos_as_xyz
  1  'x, y, z'
loop_
 _atom_site_type_symbol
 _atom_site_label
 _atom_site_symmetry_multiplicity
 _atom_site_fract_x
 _atom_site_fract_y
 _atom_site_fract_z
 _atom_site_occupancy
 _atom_site_pbe_bader_charge
 _atom_site_pbe_bader_spin_density
 _atom_site_pbe_cm5_charge
 _atom_site_pbe_ddec_charge
 _atom_site_pbe_ddec_spin_density
 _atom_site_pbe_ddec_sum_bond_order
 _atom_site_pbe_magmom
Ba  Ba0  1  0.25000543  0.94338534  0.05661266  1  1.694838  0  1.061143  1.539496  0  1.6313  0
Ba  Ba1  1  0.75000392  0.05660574  0.94338923  1  1.694598  0  1.061144  1.539519  0  1.631288  0
P  P2  1  0.00761821  0.72018228  0.13245255  1  3.408359  0  0.358258  1.14339  0  5.502195  0
P  P3  1  0.49239214  0.86754551  0.27981846  1  3.408365  0  0.358287  1.143187  0  5.502172  0
P  P4  1  0.99236674  0.27980061  0.86754481  1  3.4079  0  0.358306  1.14323  0  5.502423  0
P  P5  1  0.50763556  0.13244835  0.72019171  1  3.408273  0  0.35825  1.143291  0  5.502168  0
P  P6  1  0.43013300  0.79805573  0.91643459  1  3.404729  0  0.342619  1.163147  0  5.483043  0
P  P7  1  0.06988245  0.08358129  0.20194153  1  3.404742  0  0.34283  1.163586  0  5.482591  0
P  P8  1  0.56987131  0.20193619  0.08359234  1  3.404288  0  0.342796  1.163415  0  5.482583  0
P  P9  1  0.93012226  0.91640961  0.79805162  1  3.405014  0  0.342679  1.163099  0  5.482673  0
H  H10  1  0.92145170  0.53373125  0.14294156  1  0.11211  0  0.122405  0.126228  0  1.00581  0
H  H11  1  0.57855626  0.85705404  0.46627362  1  0.111682  0  0.122465  0.126343  0  1.005805  0
H  H12  1  0.07855809  0.46626578  0.85704711  1  0.111516  0  0.12242  0.126274  0  1.005838  0
H  H13  1  0.42145149  0.14296202  0.53373782  1  0.111429  0  0.122377  0.126251  0  1.005775  0
H  H14  1  0.21880232  0.63304665  0.87574678  1  0.143633  0  0.122443  0.123826  0  1.02706  0
H  H15  1  0.28120389  0.12427054  0.36695733  1  0.143323  0  0.122352  0.123657  0  1.026786  0
H  H16  1  0.78119584  0.36694888  0.12425644  1  0.143172  0  0.122377  0.123654  0  1.026854  0
H  H17  1  0.71881609  0.87574301  0.63304754  1  0.143318  0  0.122381  0.123612  0  1.027137  0
H  H18  1  0.75939662  0.81238852  0.03530139  1  0.130469  0  0.133991  0.135028  0  0.99315  0
H  H19  1  0.74061616  0.96469764  0.18762074  1  0.130751  0  0.13396  0.134987  0  0.993345  0
H  H20  1  0.24060791  0.18761311  0.96469679  1  0.130598  0  0.133978  0.135021  0  0.993278  0
H  H21  1  0.25938929  0.03530150  0.81238902  1  0.130455  0  0.133998  0.13508  0  0.993211  0
H  H22  1  0.46494638  0.88777331  0.75126914  1  0.133913  0  0.111789  0.083475  0  1.010417  0
H  H23  1  0.03502643  0.24872995  0.11222346  1  0.133845  0  0.111793  0.083462  0  1.010478  0
H  H24  1  0.53503150  0.11222428  0.24874461  1  0.133796  0  0.111827  0.083551  0  1.010195  0
H  H25  1  0.96494915  0.75124471  0.88775229  1  0.13229  0  0.111704  0.083301  0  1.010437  0
H  H26  1  0.24504479  0.83312176  0.74685245  1  0.040888  0  0.098488  0.05324  0  1.032047  0
H  H27  1  0.25494425  0.25315276  0.16685593  1  0.082946  0  0.098508  0.053304  0  1.032148  0
H  H28  1  0.75494022  0.16685059  0.25312198  1  0.082736  0  0.098489  0.053302  0  1.03201  0
H  H29  1  0.74503858  0.74686087  0.83313145  1  0.082814  0  0.098477  0.053193  0  1.031981  0
H  H30  1  0.87978824  0.79439451  0.30538751  1  0.023768  0  0.091766  0.048858  0  1.022193  0
H  H31  1  0.62020790  0.69461207  0.20561434  1  0.02375  0  0.091763  0.048954  0  1.022193  0
H  H32  1  0.12018497  0.20561715  0.69459943  1  0.024057  0  0.091769  0.048947  0  1.022141  0
H  H33  1  0.37979317  0.30539379  0.79438248  1  0.023862  0  0.091846  0.049132  0  1.022063  0
H  H34  1  0.10662503  0.82989046  0.31450019  1  0.116032  0  0.106756  0.084287  0  1.009846  0
H  H35  1  0.39336262  0.68548238  0.17013466  1  0.116198  0  0.10677  0.084288  0  1.009916  0
H  H36  1  0.89335207  0.17012635  0.68549584  1  0.116075  0  0.106777  0.084339  0  1.009971  0
H  H37  1  0.60662605  0.31450929  0.82987553  1  0.116161  0  0.10679  0.08438  0  1.009889  0
H  H38  1  0.49899122  0.75116120  0.63450706  1  0.033524  0  0.092446  0.126018  0  0.998926  0
H  H39  1  0.00100793  0.36549272  0.24883866  1  0.033539  0  0.092436  0.125995  0  0.99891  0
H  H40  1  0.50111440  0.24886359  0.36551977  1  0.033739  0  0.092559  0.126338  0  0.998847  0
H  H41  1  0.99887871  0.63446328  0.75112449  1  0.033479  0  0.092598  0.126415  0  0.998588  0
H  H42  1  0.34012798  0.81503682  0.58793277  1  0.042322  0  0.096037  0.131021  0  0.995522  0
H  H43  1  0.15986601  0.41207469  0.18496068  1  0.042684  0  0.095993  0.13098  0  0.995505  0
H  H44  1  0.65998252  0.18497663  0.41207086  1  0.041343  0  0.096226  0.131345  0  0.99539  0
H  H45  1  0.83999752  0.58791550  0.81500238  1  0.041526  0  0.09613  0.131337  0  0.995357  0
H  H46  1  0.27612434  0.70462204  0.62505312  1  0.035062  0  0.090418  0.121461  0  0.998229  0
H  H47  1  0.22387613  0.37494437  0.29536686  1  0.035219  0  0.090418  0.121449  0  0.998223  0
H  H48  1  0.72398891  0.29538072  0.37492440  1  0.03453  0  0.090574  0.121662  0  0.997994  0
H  H49  1  0.77600779  0.62506043  0.70460088  1  0.034108  0  0.09061  0.121723  0  0.998118  0
H  H50  1  0.93193951  0.67035472  0.40866185  1  0.030749  0  0.08743  0.118715  0  1.001648  0
H  H51  1  0.56812746  0.59135832  0.32967526  1  0.029786  0  0.087431  0.118699  0  1.001658  0
H  H52  1  0.06800081  0.32969004  0.59135353  1  0.030133  0  0.087482  0.118793  0  1.001482  0
H  H53  1  0.43195816  0.40863672  0.67031191  1  0.029794  0  0.087411  0.118702  0  1.001458  0
H  H54  1  0.03459037  0.78438819  0.46655459  1  0.047122  0  0.087098  0.116212  0  1.02445  0
H  H55  1  0.46546590  0.53343970  0.21565462  1  0.046981  0  0.087072  0.116107  0  1.024322  0
H  H56  1  0.96539182  0.21564534  0.53343787  1  0.047052  0  0.087163  0.116204  0  1.02423  0
H  H57  1  0.53457140  0.46656149  0.78434681  1  0.047156  0  0.087053  0.116042  0  1.024396  0
H  H58  1  0.15857071  0.70615271  0.41656639  1  0.041657  0  0.092984  0.129287  0  0.996002  0
H  H59  1  0.34148316  0.58342628  0.29389813  1  0.042523  0  0.09294  0.129296  0  0.996231  0
H  H60  1  0.84137688  0.29385858  0.58344135  1  0.041164  0  0.092967  0.129253  0  0.996441  0
H  H61  1  0.65858359  0.41655905  0.70613107  1  0.041564  0  0.092917  0.129249  0  0.996356  0
C  C62  1  0.53787214  0.70986415  0.96931576  1  -0.514216  0  0.049791  -0.093454  0  3.746953  0
C  C63  1  0.96212863  0.03068808  0.29016050  1  -0.512455  0  0.049767  -0.093436  0  3.74726  0
C  C64  1  0.46211826  0.29015111  0.03068285  1  -0.513233  0  0.049792  -0.093252  0  3.747358  0
C  C65  1  0.03788731  0.96931058  0.70986267  1  -0.513531  0  0.049737  -0.09345  0  3.747006  0
C  C66  1  0.45414192  0.61317055  0.95919195  1  0.02405  0  0.02834  0.094861  0  3.931466  0
C  C67  1  0.04585153  0.04081591  0.38683077  1  0.023453  0  0.02839  0.094794  0  3.932215  0
C  C68  1  0.54584871  0.38681982  0.04079905  1  0.023783  0  0.028258  0.094851  0  3.932172  0
C  C69  1  0.95414091  0.95919607  0.61317741  1  0.023455  0  0.028251  0.094632  0  3.931345  0
C  C70  1  0.54081524  0.54776928  0.00467828  1  -0.009553  0  0.007785  -0.010526  0  3.935316  0
C  C71  1  0.95920373  0.99533532  0.45223796  1  -0.008389  0  0.007795  -0.01042  0  3.935356  0
C  C72  1  0.45919814  0.45221893  0.99532377  1  0.0464  0  0.007741  -0.010354  0  3.935409  0
C  C73  1  0.04081246  0.00468974  0.54777303  1  0.046161  0  0.007798  -0.010292  0  3.935334  0
C  C74  1  0.70857553  0.57787313  0.05965548  1  0.028706  0  0.025328  0.086393  0  3.949734  0
C  C75  1  0.79143961  0.94034428  0.42213588  1  0.028018  0  0.025475  0.086353  0  3.948564  0
C  C76  1  0.29144777  0.42213282  0.94033256  1  0.02924  0  0.02552  0.086544  0  3.948773  0
C  C77  1  0.20857132  0.05967038  0.57787783  1  0.029697  0  0.025448  0.086596  0  3.949367  0
C  C78  1  0.79178444  0.51144118  0.10299381  1  0.038948  0  -0.035539  -0.049005  0  3.821769  0
C  C79  1  0.70821263  0.89700349  0.48857406  1  0.038867  0  -0.035771  -0.049451  0  3.822052  0
C  C80  1  0.20820248  0.48856419  0.89700223  1  0.038342  0  -0.035766  -0.049347  0  3.822051  0
C  C81  1  0.29178664  0.10300445  0.51144410  1  0.039109  0  -0.0356  -0.04934  0  3.822211  0
C  C82  1  0.28738724  0.58193448  0.90663594  1  -0.000777  0  -0.032742  -0.03731  0  3.818624  0
C  C83  1  0.21260575  0.09336311  0.41807333  1  -0.000994  0  -0.032655  -0.03707  0  3.818383  0
C  C84  1  0.71260344  0.41806120  0.09334450  1  -0.000701  0  -0.032717  -0.037336  0  3.818059  0
C  C85  1  0.78738768  0.90664902  0.58194047  1  -0.00056  0  -0.03272  -0.036983  0  3.818742  0
C  C86  1  0.78782533  0.67562887  0.07051012  1  -0.519082  0  0.043254  -0.107126  0  3.754554  0
C  C87  1  0.71217675  0.92950362  0.32436364  1  -0.519297  0  0.043216  -0.106893  0  3.754321  0
C  C88  1  0.21218675  0.32434963  0.92949648  1  -0.519013  0  0.04325  -0.107114  0  3.754198  0
C  C89  1  0.28781462  0.07050119  0.67563969  1  -0.519711  0  0.043223  -0.107134  0  3.754274  0
C  C90  1  0.69883678  0.73871633  0.02572132  1  0.025644  0  -0.046437  -0.072081  0  3.937863  0
C  C91  1  0.80117746  0.97428005  0.26128480  1  0.024471  0  -0.046479  -0.072151  0  3.938535  0
C  C92  1  0.30118966  0.26127497  0.97427336  1  0.025635  0  -0.046433  -0.072181  0  3.939083  0
C  C93  1  0.19881665  0.02573070  0.73873032  1  0.026424  0  -0.046382  -0.072046  0  3.93846  0
C  C94  1  0.37447899  0.82091158  0.73779847  1  0.345741  0  -0.062254  0.110475  0  3.846021  0
C  C95  1  0.12552280  0.26220195  0.17908047  1  0.30362  0  -0.06228  0.11038  0  3.846002  0
C  C96  1  0.62553534  0.17908302  0.26220560  1  0.30355  0  -0.062236  0.110541  0  3.845561  0
C  C97  1  0.87445510  0.73777986  0.82090025  1  0.304645  0  -0.062056  0.111045  0  3.846018  0
C  C98  1  0.00475088  0.77016319  0.31595774  1  0.395408  0  -0.064137  0.115406  0  3.868457  0
C  C99  1  0.49524969  0.68403948  0.22984984  1  0.394416  0  -0.064103  0.115362  0  3.867899  0
C  C100  1  0.99519596  0.22984696  0.68403468  1  0.39399  0  -0.064072  0.115343  0  3.868188  0
C  C101  1  0.50477962  0.31596121  0.77015419  1  0.393973  0  -0.064231  0.114993  0  3.868325  0
C  C102  1  0.37221157  0.76947049  0.64080704  1  -0.059395  0  -0.242397  -0.38506  0  3.9531  0
C  C103  1  0.12778280  0.35919604  0.23051911  1  -0.059893  0  -0.242334  -0.384941  0  3.953002  0
C  C104  1  0.62787533  0.23053686  0.35919164  1  -0.057625  0  -0.242787  -0.385951  0  3.953357  0
C  C105  1  0.87211189  0.64079309  0.76944906  1  -0.057201  0  -0.242842  -0.386264  0  3.953549  0
C  C106  1  0.03366164  0.72988325  0.40702579  1  -0.070105  0  -0.245244  -0.389639  0  3.968669  0
C  C107  1  0.46638276  0.59297184  0.27015974  1  -0.06919  0  -0.245167  -0.389529  0  3.968339  0
C  C108  1  0.96628933  0.27015395  0.59297831  1  -0.068313  0  -0.245369  -0.389726  0  3.968753  0
C  C109  1  0.53367633  0.40701642  0.72984553  1  -0.068192  0  -0.245093  -0.389366  0  3.968694  0
O  O110  1  0.03832255  0.82462104  0.13242206  1  -1.472535  0  -0.417474  -0.763482  0  2.211768  0
O  O111  1  0.46169526  0.86757077  0.17537828  1  -1.472535  0  -0.417504  -0.763452  0  2.211625  0
O  O112  1  0.96168595  0.17537334  0.86757177  1  -1.472925  0  -0.417429  -0.763327  0  2.212297  0
O  O113  1  0.53832033  0.13242553  0.82463639  1  -1.472882  0  -0.417489  -0.763422  0  2.211628  0
O  O114  1  0.53505017  0.89492479  0.95082503  1  -1.493178  0  -0.420918  -0.807236  0  2.210841  0
O  O115  1  0.96493991  0.04917843  0.10507932  1  -1.49335  0  -0.420944  -0.807342  0  2.21068  0
O  O116  1  0.46494507  0.10507284  0.04917601  1  -1.493068  0  -0.42094  -0.80733  0  2.210806  0
O  O117  1  0.03504806  0.95080584  0.89491846  1  -1.493853  0  -0.420933  -0.807225  0  2.21066  0
O  O118  1  0.43197913  0.76231359  0.80726005  1  -1.291292  0  -0.217088  -0.403793  0  2.45114  0
O  O119  1  0.06803522  0.19273338  0.23768251  1  -1.291318  0  -0.217073  -0.403885  0  2.451393  0
O  O120  1  0.56801834  0.23768161  0.19273136  1  -1.29159  0  -0.217098  -0.403925  0  2.4514  0
O  O121  1  0.93194979  0.80724775  0.76230300  1  -1.290887  0  -0.217096  -0.403829  0  2.451116  0
O  O122  1  0.24928997  0.78379453  0.93705487  1  -1.427139  0  -0.392002  -0.731791  0  2.190527  0
O  O123  1  0.25070354  0.06293984  0.21620361  1  -1.427259  0  -0.392065  -0.731952  0  2.190634  0
O  O124  1  0.75070571  0.21619309  0.06294122  1  -1.427036  0  -0.392037  -0.73189  0  2.190237  0
O  O125  1  0.74929222  0.93705030  0.78380647  1  -1.427132  0  -0.391995  -0.731768  0  2.190355  0
O  O126  1  0.00361354  0.69656689  0.23879304  1  -1.267419  0  -0.212296  -0.389131  0  2.444425  0
O  O127  1  0.49639033  0.76120814  0.30344694  1  -1.267393  0  -0.21237  -0.389165  0  2.444349  0
O  O128  1  0.99636599  0.30344726  0.76120989  1  -1.266571  0  -0.212407  -0.389177  0  2.44408  0
O  O129  1  0.50363182  0.23878706  0.69655796  1  -1.266967  0  -0.212348  -0.389155  0  2.444213  0
O  O130  1  0.11171262  0.65468862  0.08831570  1  -1.35292  0  -0.331489  -0.64143  0  2.0023  0
O  O131  1  0.38827945  0.91168996  0.34530494  1  -1.35284  0  -0.331497  -0.641394  0  2.002204  0
O  O132  1  0.88830088  0.34530114  0.91171473  1  -1.352704  0  -0.3315  -0.64139  0  2.002256  0
O  O133  1  0.61171575  0.08829614  0.65471094  1  -1.352977  0  -0.331495  -0.641487  0  2.002749  0
