# generated using pymatgen
data_CuH14C19N2O7
_symmetry_space_group_name_H-M   'P 1'
_cell_length_a   8.87213200
_cell_length_b   11.11175749
_cell_length_c   20.59533780
_cell_angle_alpha   89.99838547
_cell_angle_beta   90.00156730
_cell_angle_gamma   90.58213109
_symmetry_Int_Tables_number   1
_chemical_formula_structural   CuH14C19N2O7
_chemical_formula_sum   'Cu4 H56 C76 N8 O28'
_cell_volume   2030.28615221
_cell_formula_units_Z   4
loop_
 _symmetry_equiv_pos_site_id
 _symmetry_equiv_pos_as_xyz
  1  'x, y, z'
loop_
 _atom_site_type_symbol
 _atom_site_label
 _atom_site_symmetry_multiplicity
 _atom_site_fract_x
 _atom_site_fract_y
 _atom_site_fract_z
 _atom_site_occupancy
 _atom_site_pbe_bader_charge
 _atom_site_pbe_bader_spin_density
 _atom_site_pbe_cm5_charge
 _atom_site_pbe_ddec_charge
 _atom_site_pbe_ddec_spin_density
 _atom_site_pbe_ddec_sum_bond_order
 _atom_site_pbe_magmom
Cu  Cu0  1  0.39422909  0.19465040  0.72773487  1  1.057178  0.572047  0.729096  0.768181  0.758516  2.210384  0.571
Cu  Cu1  1  0.10577375  0.30532333  0.22772988  1  1.058874  -0.572064  0.728983  0.768236  -0.758532  2.210234  -0.571
Cu  Cu2  1  0.60576064  0.80533687  0.27225836  1  1.057756  0.572056  0.72909  0.768164  0.758527  2.210429  0.572
Cu  Cu3  1  0.89421144  0.69466215  0.77226384  1  1.058103  -0.572078  0.729032  0.768195  -0.758557  2.21057  -0.571
H  H4  1  0.66979319  0.99314126  0.57255478  1  0.631697  4e-06  0.3477  0.391023  3e-06  0.845112  0.0
H  H5  1  0.83018803  0.50689093  0.07254742  1  0.6315  -4e-06  0.347807  0.391076  -3e-06  0.845115  0.0
H  H6  1  0.33025389  0.00683775  0.42745884  1  0.632697  4e-06  0.347844  0.390954  3e-06  0.845297  0.0
H  H7  1  0.16978814  0.49316028  0.92746670  1  0.631132  -4e-06  0.347835  0.391005  -3e-06  0.845065  0.0
H  H8  1  0.67883553  0.14311451  0.65618917  1  0.604843  -9.3e-05  0.289456  0.369316  -2.6e-05  0.955328  0.0
H  H9  1  0.82118365  0.35689610  0.15616199  1  0.605182  9.3e-05  0.289526  0.369373  2.6e-05  0.955237  0.0
H  H10  1  0.32118709  0.85688437  0.34382154  1  0.604778  -9.3e-05  0.289426  0.369278  -2.6e-05  0.955361  0.0
H  H11  1  0.17881100  0.64311456  0.84382736  1  0.604813  9.3e-05  0.289524  0.369353  2.6e-05  0.955271  0.0
H  H12  1  0.55968822  0.23454155  0.62944319  1  0.631418  -3.7e-05  0.27344  0.367356  -3.3e-05  0.986816  0.0
H  H13  1  0.94032981  0.26545471  0.12942402  1  0.631556  3.7e-05  0.273418  0.367157  3.3e-05  0.987066  0.0
H  H14  1  0.44031625  0.76545018  0.37056267  1  0.631314  -3.7e-05  0.273389  0.367241  -3.3e-05  0.986966  0.0
H  H15  1  0.05964532  0.73453530  0.87056970  1  0.630845  3.8e-05  0.273383  0.367133  3.3e-05  0.987137  0.0
H  H16  1  0.32607690  0.28429633  0.46503097  1  0.111106  -1.6e-05  0.113876  0.12714  -1.3e-05  0.991216  0.0
H  H17  1  0.17392751  0.21572043  0.96504022  1  0.111094  1.5e-05  0.113879  0.127027  1.3e-05  0.991432  0.0
H  H18  1  0.67395987  0.71573941  0.53495644  1  0.111123  -1.6e-05  0.11392  0.127141  -1.3e-05  0.991596  0.0
H  H19  1  0.82608047  0.78427940  0.03494719  1  0.111058  1.6e-05  0.113867  0.127007  1.3e-05  0.991481  0.0
H  H20  1  0.87861970  0.18382787  0.40335804  1  0.093885  -0.000244  0.106413  0.105127  -0.000225  1.039923  0.0
H  H21  1  0.62138920  0.31616537  0.90335500  1  0.093646  0.000244  0.106355  0.10497  0.000224  1.03972  0.0
H  H22  1  0.12140945  0.81615749  0.59664539  1  0.093529  -0.000245  0.106389  0.105039  -0.000225  1.039679  0.0
H  H23  1  0.37859042  0.68388943  0.09663629  1  0.093739  0.000245  0.106313  0.104919  0.000225  1.039516  0.0
H  H24  1  0.01743087  0.12331963  0.60124719  1  0.127348  0.000278  0.106361  0.110407  0.000242  1.030836  0.0
H  H25  1  0.48257731  0.37670133  0.10124477  1  0.127405  -0.000278  0.106325  0.11036  -0.000242  1.030767  0.0
H  H26  1  0.98261678  0.87669268  0.39874653  1  0.127449  0.000278  0.106289  0.110393  0.000242  1.030463  0.0
H  H27  1  0.51740486  0.62330486  0.89875381  1  0.127209  -0.000278  0.106328  0.110435  -0.000242  1.030617  0.0
H  H28  1  0.41274375  0.00347151  0.82969672  1  0.121697  0.001745  0.122929  0.099884  0.000794  0.999287  0.001
H  H29  1  0.08724135  0.49648636  0.32968263  1  0.121744  -0.001745  0.123077  0.100257  -0.000794  0.999136  -0.001
H  H30  1  0.58727276  0.99649949  0.17030817  1  0.121761  0.001747  0.122999  0.10006  0.000795  0.999191  0.001
H  H31  1  0.91275422  0.50351260  0.67031352  1  0.121735  -0.001745  0.123075  0.100293  -0.000794  0.99925  -0.001
H  H32  1  0.41897357  0.77996854  0.83359568  1  0.098344  0.001033  0.110469  0.118444  0.000534  1.010153  0.001
H  H33  1  0.08101657  0.71999097  0.33358111  1  0.098432  -0.001034  0.110334  0.118282  -0.000534  1.010264  -0.001
H  H34  1  0.58102261  0.21999981  0.16640192  1  0.098245  0.001033  0.110322  0.118192  0.000534  1.01025  0.001
H  H35  1  0.91899034  0.28001156  0.66641795  1  0.098747  -0.001035  0.110347  0.118286  -0.000534  1.010236  -0.001
H  H36  1  0.38159905  0.78115178  0.62433387  1  0.139218  0.001085  0.117533  0.132098  0.000582  0.987064  0.001
H  H37  1  0.11837890  0.71886985  0.12431811  1  0.139039  -0.001086  0.117527  0.132157  -0.000583  0.986741  -0.001
H  H38  1  0.61835811  0.21884189  0.37566373  1  0.138931  0.001086  0.117474  0.132062  0.000582  0.986842  0.001
H  H39  1  0.88160688  0.28114984  0.87568193  1  0.139117  -0.001085  0.117604  0.132218  -0.000582  0.986775  -0.001
H  H40  1  0.37722492  0.00259080  0.62907812  1  0.129877  0.002035  0.117113  0.09491  0.000962  1.043121  0.001
H  H41  1  0.12276829  0.49741473  0.12905799  1  0.130797  -0.002037  0.117179  0.094943  -0.000963  1.042918  -0.001
H  H42  1  0.62276490  0.99740097  0.37092968  1  0.130059  0.002036  0.117143  0.094975  0.000962  1.043024  0.001
H  H43  1  0.87721052  0.50259327  0.87093767  1  0.130637  -0.002039  0.117068  0.094794  -0.000964  1.042845  -0.001
H  H44  1  0.59903108  0.60614936  0.78658108  1  0.151365  0.001229  0.106484  0.116376  0.00075  1.077038  0.001
H  H45  1  0.90095829  0.89380315  0.28657382  1  0.151154  -0.001228  0.106515  0.116409  -0.00075  1.077322  -0.001
H  H46  1  0.40095757  0.39384062  0.21341021  1  0.151085  0.001229  0.106464  0.116291  0.000751  1.077269  0.001
H  H47  1  0.09904697  0.10616878  0.71341942  1  0.151135  -0.001229  0.106464  0.116251  -0.00075  1.077446  -0.001
H  H48  1  0.58801124  0.38142611  0.78091914  1  0.127172  0.002008  0.117481  0.090217  0.000944  1.025246  0.002
H  H49  1  0.91197647  0.11854112  0.28092343  1  0.126119  -0.002011  0.117463  0.090208  -0.000945  1.025155  -0.002
H  H50  1  0.41199446  0.61857192  0.21907263  1  0.127145  0.002008  0.117501  0.090244  0.000944  1.0253  0.002
H  H51  1  0.08801197  0.88143626  0.71908923  1  0.12766  -0.002009  0.117485  0.090156  -0.000945  1.025114  -0.002
H  H52  1  0.19651541  0.38601931  0.67269390  1  0.117335  0.001899  0.115249  0.084056  0.00086  1.036518  0.001
H  H53  1  0.30347757  0.11395923  0.17268185  1  0.117627  -0.001901  0.115269  0.084135  -0.000861  1.036108  -0.001
H  H54  1  0.80347184  0.61395447  0.32731584  1  0.117622  0.001898  0.115281  0.084106  0.00086  1.036311  0.001
H  H55  1  0.69651246  0.88604515  0.82731527  1  0.117614  -0.0019  0.115278  0.084096  -0.000861  1.036185  -0.001
H  H56  1  0.19095268  0.61122249  0.67196415  1  0.148237  0.001031  0.10987  0.129428  0.00045  1.031024  0.001
H  H57  1  0.30903195  0.88874290  0.17196327  1  0.148283  -0.001031  0.109796  0.129303  -0.00045  1.030944  -0.001
H  H58  1  0.80901651  0.38874954  0.32803976  1  0.148397  0.00103  0.109797  0.12932  0.00045  1.030995  0.001
H  H59  1  0.69095584  0.11126238  0.82802608  1  0.148553  -0.001031  0.109856  0.129356  -0.000451  1.030903  -0.001
C  C60  1  0.18100881  0.21029204  0.53918897  1  0.054935  0.007605  -0.018804  -0.036036  0.005428  3.96761  0.006
C  C61  1  0.31899623  0.28973173  0.03917927  1  0.055408  -0.007608  -0.018678  -0.035943  -0.005429  3.967496  -0.006
C  C62  1  0.81899468  0.78970870  0.46081544  1  0.055127  0.007608  -0.018785  -0.036141  0.005429  3.967393  0.006
C  C63  1  0.68101083  0.71027980  0.96081153  1  0.055021  -0.007603  -0.018802  -0.036042  -0.005425  3.967638  -0.006
C  C64  1  0.21384970  0.24903015  0.47606682  1  -0.039815  -0.001007  -0.064269  -0.088953  -0.000654  3.896873  -0.001
C  C65  1  0.28612119  0.25096577  0.97606811  1  -0.040517  0.001008  -0.064329  -0.088775  0.000654  3.897212  0.001
C  C66  1  0.78613699  0.75097693  0.52393322  1  -0.04003  -0.001005  -0.064352  -0.088833  -0.000652  3.897656  -0.001
C  C67  1  0.71389373  0.74904394  0.02392707  1  -0.040043  0.001006  -0.064307  -0.088672  0.000653  3.897298  0.001
C  C68  1  0.10528194  0.24012967  0.42695749  1  0.027878  -0.008483  -0.017078  -0.024332  -0.006098  3.965976  -0.007
C  C69  1  0.39467429  0.25986505  0.92696346  1  0.028963  0.00849  -0.017073  -0.024376  0.006103  3.966096  0.007
C  C70  1  0.89468337  0.75987928  0.57303817  1  0.029288  -0.008487  -0.017205  -0.02453  -0.006101  3.9665  -0.007
C  C71  1  0.60535234  0.74017072  0.07303026  1  0.028155  0.008495  -0.017016  -0.024343  0.006106  3.96595  0.007
C  C72  1  0.96306071  0.19235453  0.44140329  1  -0.067651  -0.000806  -0.068438  -0.087151  -0.00062  3.904498  0.0
C  C73  1  0.53690625  0.30766371  0.94140222  1  -0.067872  0.000806  -0.068447  -0.086948  0.00062  3.903913  0.0
C  C74  1  0.03691500  0.80766968  0.55861034  1  -0.068158  -0.000805  -0.068357  -0.08681  -0.000619  3.904251  0.0
C  C75  1  0.46308591  0.69239916  0.05858762  1  -0.067795  0.000806  -0.068498  -0.087137  0.000619  3.903435  0.0
C  C76  1  0.93053017  0.14947816  0.50395686  1  -0.016435  7.8e-05  -0.021277  -0.056474  5.7e-05  4.007138  0.0
C  C77  1  0.56948386  0.35053736  0.00395841  1  -0.015778  -7.9e-05  -0.021378  -0.056914  -5.7e-05  4.007243  0.0
C  C78  1  0.06952719  0.85050893  0.49605094  1  -0.016399  7.7e-05  -0.021365  -0.056768  5.6e-05  4.006993  0.0
C  C79  1  0.43049108  0.64950756  0.99603629  1  -0.016421  -7.8e-05  -0.021256  -0.056531  -5.7e-05  4.007106  0.0
C  C80  1  0.03978276  0.15882153  0.55291532  1  -0.091651  -0.000748  -0.074415  -0.098834  -0.000441  3.914848  -0.001
C  C81  1  0.46023303  0.34117469  0.05291205  1  -0.092738  0.000749  -0.074424  -0.098745  0.000441  3.915025  0.001
C  C82  1  0.96026525  0.84114578  0.44709006  1  -0.092341  -0.000746  -0.074425  -0.098972  -0.00044  3.913803  -0.001
C  C83  1  0.53976739  0.65884405  0.94708750  1  -0.092065  0.000745  -0.074426  -0.099047  0.000439  3.914984  0.001
C  C84  1  0.30234459  0.21930837  0.59022976  1  1.567065  -0.000723  0.207181  0.563939  0.000691  4.209587  -0.002
C  C85  1  0.19767745  0.28070379  0.09023294  1  1.567284  0.000725  0.206991  0.563585  -0.000691  4.21019  0.002
C  C86  1  0.69769507  0.78069857  0.40976007  1  1.567818  -0.000724  0.20718  0.563956  0.000692  4.210118  -0.002
C  C87  1  0.80230457  0.71929340  0.90975252  1  1.56731  0.000725  0.20697  0.563503  -0.00069  4.210216  0.002
C  C88  1  0.14792997  0.27307628  0.35832338  1  1.561805  0.00108  0.191562  0.546512  -0.000388  4.245324  0.003
C  C89  1  0.35206937  0.22691820  0.85832427  1  1.561833  -0.001082  0.191668  0.546471  0.000386  4.24527  -0.003
C  C90  1  0.85205236  0.72693892  0.64168636  1  1.562309  0.001086  0.191666  0.546481  -0.000384  4.245117  0.003
C  C91  1  0.64793556  0.77310053  0.14167479  1  1.56227  -0.001083  0.191721  0.546436  0.000387  4.245911  -0.003
C  C92  1  0.78241758  0.08878713  0.51399016  1  1.467892  -3e-06  0.235074  0.578144  -4e-06  4.09849  0.0
C  C93  1  0.71757684  0.41124000  0.01399324  1  1.468032  3e-06  0.235093  0.578354  4e-06  4.098677  0.0
C  C94  1  0.21762505  0.91119549  0.48600744  1  1.466295  -3e-06  0.235042  0.578316  -4e-06  4.099686  0.0
C  C95  1  0.28239588  0.58880672  0.98600388  1  1.4688  3e-06  0.235175  0.578488  4e-06  4.100083  0.0
C  C96  1  0.40678347  0.95028877  0.78545668  1  0.394437  -0.000938  0.048921  0.09294  -5.2e-05  3.937811  -0.001
C  C97  1  0.09319995  0.54966312  0.28544784  1  0.395251  0.000942  0.048769  0.092483  5.4e-05  3.937593  0.001
C  C98  1  0.59323885  0.04969211  0.21454578  1  0.395006  -0.000943  0.048899  0.092575  -5.4e-05  3.937688  -0.001
C  C99  1  0.90678782  0.45034126  0.71454442  1  0.395054  0.00094  0.048663  0.092308  5.4e-05  3.937755  0.001
C  C100  1  0.41101403  0.82547150  0.78700070  1  0.099841  0.004703  -0.071353  -0.143132  0.003321  3.917554  0.004
C  C101  1  0.08897093  0.67449013  0.28698511  1  0.093507  -0.004702  -0.071255  -0.142983  -0.003322  3.916699  -0.004
C  C102  1  0.58898235  0.17450856  0.21300176  1  0.093228  0.004701  -0.071248  -0.142643  0.003321  3.917352  0.004
C  C103  1  0.91103264  0.32551510  0.71301444  1  0.094086  -0.004703  -0.071169  -0.142894  -0.003323  3.916049  -0.004
C  C104  1  0.39937952  0.76023725  0.72909102  1  -0.058738  -0.003351  0.027273  0.131909  -0.002256  3.923767  -0.002
C  C105  1  0.10059414  0.73973758  0.22907342  1  -0.052597  0.00335  0.02741  0.132002  0.002257  3.923132  0.002
C  C106  1  0.60059322  0.23974466  0.27090610  1  -0.052327  -0.003349  0.0272  0.131667  -0.002256  3.923774  -0.002
C  C107  1  0.89942280  0.26025862  0.77093438  1  -0.052979  0.003351  0.02753  0.132228  0.002258  3.922694  0.002
C  C108  1  0.38741438  0.82576404  0.67132070  1  0.060686  0.004852  -0.070477  -0.146111  0.003433  3.90634  0.004
C  C109  1  0.11256465  0.67420954  0.17130788  1  0.061066  -0.004853  -0.070308  -0.146092  -0.003433  3.906095  -0.004
C  C110  1  0.61256051  0.17421158  0.32867787  1  0.061386  0.004854  -0.070342  -0.145899  0.003434  3.905793  0.004
C  C111  1  0.88742639  0.32578763  0.82869118  1  0.060645  -0.004854  -0.070524  -0.146383  -0.003434  3.90665  -0.004
C  C112  1  0.38702704  0.95061281  0.67348819  1  0.367842  -0.000717  0.040355  0.079623  0.000158  3.940498  0.0
C  C113  1  0.11296834  0.54937400  0.17347487  1  0.36614  0.000715  0.040046  0.079435  -0.000161  3.940783  0.0
C  C114  1  0.61296361  0.04936186  0.32651475  1  0.367618  -0.000716  0.040265  0.079326  0.000161  3.940482  0.0
C  C115  1  0.88702497  0.45062407  0.82651594  1  0.367082  0.000719  0.040309  0.079837  -0.000159  3.940453  0.0
C  C116  1  0.39689043  0.62745177  0.72850205  1  -0.029756  -0.003543  0.023511  0.127378  -0.002396  3.935303  -0.002
C  C117  1  0.10309999  0.87252038  0.22849368  1  -0.028908  0.003541  0.023377  0.127178  0.002395  3.934853  0.002
C  C118  1  0.60309815  0.37253371  0.27149847  1  -0.029331  -0.003542  0.023535  0.127216  -0.002395  3.934988  -0.002
C  C119  1  0.89692038  0.12747851  0.77151121  1  -0.028821  0.00354  0.023442  0.127046  0.002394  3.935227  0.002
C  C120  1  0.50774239  0.56119782  0.76057936  1  0.033874  0.005562  -0.079212  -0.167137  0.003959  3.913481  0.005
C  C121  1  0.99224524  0.93876456  0.26057591  1  0.033279  -0.005566  -0.078988  -0.167068  -0.003961  3.91359  -0.005
C  C122  1  0.49225081  0.43879394  0.23941825  1  0.033813  0.005562  -0.079153  -0.167003  0.003959  3.913697  0.005
C  C123  1  0.00775690  0.06122268  0.73942218  1  0.033601  -0.005565  -0.079044  -0.1669  -0.003961  3.913291  -0.005
C  C124  1  0.50272071  0.43642342  0.75775591  1  0.398044  -0.00083  0.048546  0.110623  2e-06  3.899217  -0.001
C  C125  1  0.99727582  0.06355157  0.25775822  1  0.399197  0.000831  0.048444  0.110566  -1e-06  3.899665  0.001
C  C126  1  0.49727025  0.56356925  0.24224315  1  0.398031  -0.00083  0.048532  0.110632  1e-06  3.899459  -0.001
C  C127  1  0.00271949  0.93643209  0.74224570  1  0.397584  0.000828  0.048587  0.110823  0.0  3.899176  0.001
C  C128  1  0.28424514  0.43900817  0.69636696  1  0.454254  -0.000458  0.046264  0.096429  0.000516  3.939616  0.0
C  C129  1  0.21573682  0.06096076  0.19636515  1  0.454306  0.000459  0.046198  0.096104  -0.000515  3.939088  0.0
C  C130  1  0.71574330  0.56096921  0.30363696  1  0.454394  -0.000457  0.046119  0.096102  0.000517  3.938999  0.0
C  C131  1  0.78426227  0.93904629  0.80363586  1  0.454501  0.000457  0.046233  0.096191  -0.000517  3.939093  0.0
C  C132  1  0.28306184  0.56399069  0.69562359  1  -0.016832  0.005651  -0.077601  -0.163751  0.003975  3.898912  0.005
C  C133  1  0.21692780  0.93598035  0.19562133  1  -0.017565  -0.005652  -0.077432  -0.163295  -0.003974  3.898089  -0.005
C  C134  1  0.71692314  0.43598219  0.30437984  1  -0.01749  0.005653  -0.077412  -0.163227  0.003975  3.89799  0.005
C  C135  1  0.78307912  0.06402308  0.80437675  1  -0.018016  -0.005651  -0.077611  -0.163391  -0.003973  3.898444  -0.005
N  N136  1  0.39540656  0.01281737  0.72966005  1  -1.181203  0.080112  -0.346965  -0.240752  0.055266  3.621622  0.069
N  N137  1  0.10459335  0.48716428  0.22964731  1  -1.183176  -0.080137  -0.346915  -0.24067  -0.055283  3.621803  -0.069
N  N138  1  0.60459099  0.98716539  0.27034095  1  -1.182852  0.080115  -0.346905  -0.240535  0.055266  3.621707  0.069
N  N139  1  0.89541913  0.51283463  0.77034738  1  -1.183213  -0.080149  -0.34706  -0.240802  -0.05529  3.621822  -0.069
N  N140  1  0.39214928  0.37591347  0.72655889  1  -1.187235  0.091306  -0.34124  -0.207108  0.062772  3.575966  0.079
N  N141  1  0.10783622  0.12404513  0.22655726  1  -1.186679  -0.09131  -0.34128  -0.207104  -0.062772  3.576366  -0.079
N  N142  1  0.60784718  0.62407109  0.27344065  1  -1.186795  0.091309  -0.341221  -0.207115  0.062774  3.575863  0.079
N  N143  1  0.89216369  0.87594391  0.77345005  1  -1.186883  -0.091321  -0.341352  -0.207255  -0.06278  3.575993  -0.079
O  O144  1  0.26103668  0.18898579  0.64834401  1  -1.142757  0.090474  -0.32901  -0.573293  0.060319  2.416184  0.082
O  O145  1  0.23897504  0.31099880  0.14834840  1  -1.142981  -0.090442  -0.329002  -0.573147  -0.060296  2.416362  -0.082
O  O146  1  0.73898131  0.81100591  0.35164583  1  -1.143172  0.090461  -0.329099  -0.573358  0.060311  2.416282  0.082
O  O147  1  0.76102118  0.68897225  0.85163658  1  -1.143167  -0.090432  -0.328902  -0.573102  -0.060295  2.416909  -0.082
O  O148  1  0.43181293  0.25390441  0.57369165  1  -1.162571  0.001125  -0.311454  -0.521239  0.000506  2.151255  0.001
O  O149  1  0.06822631  0.24608151  0.07368250  1  -1.16252  -0.001129  -0.31138  -0.521117  -0.000509  2.1517  -0.001
O  O150  1  0.56823557  0.74609170  0.42631033  1  -1.162664  0.00113  -0.311411  -0.521182  0.000509  2.151512  0.001
O  O151  1  0.93177484  0.75391383  0.92630636  1  -1.162121  -0.001128  -0.311433  -0.521075  -0.000508  2.151286  -0.001
O  O152  1  0.28297213  0.27563022  0.34177748  1  -1.153442  -0.000679  -0.323883  -0.552536  -0.00011  2.13694  -0.001
O  O153  1  0.21703730  0.22438484  0.84176171  1  -1.153579  0.000685  -0.324006  -0.552571  0.000115  2.136812  0.001
O  O154  1  0.71701311  0.72442367  0.65824198  1  -1.15388  -0.000676  -0.323866  -0.552488  -0.000108  2.137042  -0.001
O  O155  1  0.78295871  0.77564022  0.15824124  1  -1.153679  0.000685  -0.324044  -0.552637  0.000114  2.13722  0.001
O  O156  1  0.03458509  0.29523231  0.31985288  1  -1.118198  -0.114847  -0.32877  -0.562177  -0.075878  2.362045  -0.103
O  O157  1  0.46542128  0.20474271  0.81987444  1  -1.117845  0.114865  -0.328771  -0.562025  0.075892  2.362184  0.103
O  O158  1  0.96541752  0.70478283  0.68014763  1  -1.118289  -0.114837  -0.3288  -0.562148  -0.075872  2.36205  -0.103
O  O159  1  0.53458310  0.79524362  0.18012462  1  -1.117919  0.114855  -0.328796  -0.561897  0.075886  2.362651  0.103
O  O160  1  0.68415130  0.07922599  0.47256701  1  -1.139011  9.2e-05  -0.278229  -0.483875  7.5e-05  2.156047  0.0
O  O161  1  0.81582390  0.42078452  0.97256280  1  -1.139362  -9.2e-05  -0.278205  -0.483894  -7.5e-05  2.1559  0.0
O  O162  1  0.31584709  0.92073966  0.52744710  1  -1.138057  9.2e-05  -0.278383  -0.484103  7.5e-05  2.156005  0.0
O  O163  1  0.18418734  0.57927380  0.02744015  1  -1.139886  -9.2e-05  -0.278456  -0.484233  -7.5e-05  2.156339  0.0
O  O164  1  0.76495060  0.03901553  0.57435873  1  -1.127405  -2.4e-05  -0.328502  -0.487912  -2e-05  2.267798  0.0
O  O165  1  0.73503566  0.46102340  0.07433597  1  -1.127183  2.4e-05  -0.328518  -0.487888  2e-05  2.26852  0.0
O  O166  1  0.23510783  0.96096795  0.42567529  1  -1.127898  -2.4e-05  -0.328311  -0.487513  -2e-05  2.269529  0.0
O  O167  1  0.26494147  0.53901791  0.92568154  1  -1.126679  2.4e-05  -0.328373  -0.487603  2e-05  2.269461  0.0
O  O168  1  0.62082870  0.21309664  0.66909810  1  -1.246804  0.000399  -0.601123  -0.790608  0.000491  2.087925  0.001
O  O169  1  0.87916648  0.28690550  0.16907444  1  -1.247295  -0.000395  -0.601132  -0.790499  -0.000489  2.087684  -0.001
O  O170  1  0.37917236  0.78689330  0.33090582  1  -1.246645  0.0004  -0.600987  -0.790444  0.000492  2.087954  0.001
O  O171  1  0.12082026  0.71310428  0.83092171  1  -1.246283  -0.000397  -0.60114  -0.790501  -0.00049  2.087752  -0.001
