# generated using pymatgen
data_CdPH10C6NO6
_symmetry_space_group_name_H-M   'P 1'
_cell_length_a   6.83844350
_cell_length_b   7.57272538
_cell_length_c   10.09715178
_cell_angle_alpha   87.78003153
_cell_angle_beta   78.05673723
_cell_angle_gamma   70.04635128
_symmetry_Int_Tables_number   1
_chemical_formula_structural   CdPH10C6NO6
_chemical_formula_sum   'Cd2 P2 H20 C12 N2 O12'
_cell_volume   480.56957047
_cell_formula_units_Z   2
loop_
 _symmetry_equiv_pos_site_id
 _symmetry_equiv_pos_as_xyz
  1  'x, y, z'
loop_
 _atom_site_type_symbol
 _atom_site_label
 _atom_site_symmetry_multiplicity
 _atom_site_fract_x
 _atom_site_fract_y
 _atom_site_fract_z
 _atom_site_occupancy
 _atom_site_hle17_bader_spin_density
 _atom_site_hle17_ddec_charge
 _atom_site_hle17_ddec_spin_density
 _atom_site_hle17_ddec_sum_bond_order
 _atom_site_hle17_magmom
 _atom_site_hse06_10hf_bader_spin_density
 _atom_site_hse06_10hf_ddec_charge
 _atom_site_hse06_10hf_ddec_spin_density
 _atom_site_hse06_10hf_ddec_sum_bond_order
 _atom_site_hse06_10hf_magmom
 _atom_site_hse06_bader_spin_density
 _atom_site_hse06_ddec_charge
 _atom_site_hse06_ddec_spin_density
 _atom_site_hse06_ddec_sum_bond_order
 _atom_site_hse06_magmom
 _atom_site_pbe_bader_spin_density
 _atom_site_pbe_cm5_charge
 _atom_site_pbe_ddec_charge
 _atom_site_pbe_ddec_spin_density
 _atom_site_pbe_ddec_sum_bond_order
 _atom_site_pbe_magmom
Cd  Cd0  1  0.26025531  0.19027690  0.02752463  1  0  1.312497  0  1.604643  0  0  1.150424  0  2.041848  0  0  1.201092  0  1.984441  0  0  0.784297  1.114204  0  2.08134  0
Cd  Cd1  1  0.73974623  0.80972510  0.97247426  1  0  1.312493  0  1.60467  0  0  1.150416  0  2.041874  0  0  1.201081  0  1.984465  0  0  0.784303  1.114193  0  2.081368  0
P  P2  1  0.72688837  0.22411065  0.11516963  1  0  1.527377  0  4.842582  0  0  1.362049  0  5.34879  0  0  1.412908  0  5.31094  0  0  0.336217  1.326671  0  5.374117  0
P  P3  1  0.27311113  0.77589275  0.88483049  1  0  1.527244  0  4.842701  0  0  1.361964  0  5.348896  0  0  1.412809  0  5.311049  0  0  0.336165  1.326589  0  5.374217  0
H  H4  1  0.57367570  0.28765404  0.46832799  1  0  0.111341  0  0.943999  0  0  0.123231  0  1.001701  0  0  0.126021  0  1.000944  0  0  0.1102  0.121373  0  1.002178  0
H  H5  1  0.42632348  0.71234231  0.53167530  1  0  0.111304  0  0.944048  0  0  0.123224  0  1.001707  0  0  0.126015  0  1.000953  0  0  0.110197  0.121367  0  1.002185  0
H  H6  1  0.68691714  0.42109252  0.64908109  1  0  0.114012  0  0.975  0  0  0.122495  0  1.036904  0  0  0.126208  0  1.033527  0  0  0.11061  0.119789  0  1.039308  0
H  H7  1  0.31308558  0.57890243  0.35092077  1  0  0.114016  0  0.974974  0  0  0.122492  0  1.036888  0  0  0.126207  0  1.033507  0  0  0.110591  0.119785  0  1.039295  0
H  H8  1  0.07825073  0.35347469  0.63404272  1  0  0.126979  0  0.940327  0  0  0.134441  0  0.999774  0  0  0.138249  0  0.998344  0  0  0.113821  0.13163  0  1.001022  0
H  H9  1  0.92175392  0.64652310  0.36595584  1  0  0.126969  0  0.940398  0  0  0.134454  0  0.999814  0  0  0.138256  0  0.99839  0  0  0.113806  0.13164  0  1.001071  0
H  H10  1  0.33515279  0.16742778  0.42680879  1  0  0.101967  0  0.9389  0  0  0.113891  0  0.998498  0  0  0.117033  0  0.995196  0  0  0.127827  0.111538  0  1.001071  0
H  H11  1  0.66484888  0.83257002  0.57318919  1  0  0.102006  0  0.938845  0  0  0.113913  0  0.998457  0  0  0.117058  0  0.995158  0  0  0.127831  0.111561  0  1.001031  0
H  H12  1  0.70063830  0.01434454  0.29345538  1  0  0.144996  0  0.944654  0  0  0.158728  0  1.003427  0  0  0.161204  0  1.002674  0  0  0.110003  0.156859  0  1.00419  0
H  H13  1  0.29935536  0.98565467  0.70654365  1  0  0.144893  0  0.944678  0  0  0.158624  0  1.003483  0  0  0.161105  0  1.002727  0  0  0.109975  0.156754  0  1.004246  0
H  H14  1  0.96499855  0.94764160  0.19700575  1  0  0.168611  0  0.946267  0  0  0.173852  0  1.012269  0  0  0.178562  0  1.009165  0  0  0.115619  0.170463  0  1.014633  0
H  H15  1  0.03500096  0.05236182  0.80299239  1  0  0.168628  0  0.94612  0  0  0.173862  0  1.01214  0  0  0.178572  0  1.009035  0  0  0.115635  0.170474  0  1.014504  0
H  H16  1  0.32813231  0.45046425  0.16210140  1  0  0.417919  0  0.897297  0  0  0.384845  0  0.965128  0  0  0.395815  0  0.949346  0  0  0.28177  0.37716  0  0.976132  0
H  H17  1  0.67186366  0.54954057  0.83789916  1  0  0.417918  0  0.897295  0  0  0.384849  0  0.965119  0  0  0.395818  0  0.949339  0  0  0.281764  0.377165  0  0.976122  0
H  H18  1  0.14237582  0.57263401  0.08791206  1  0  0.427723  0  0.877464  0  0  0.397367  0  0.939673  0  0  0.408252  0  0.924033  0  0  0.285172  0.389679  0  0.950735  0
H  H19  1  0.85762368  0.42736939  0.91208806  1  0  0.427682  0  0.877508  0  0  0.397316  0  0.939743  0  0  0.408204  0  0.924097  0  0  0.285138  0.389627  0  0.950805  0
H  H20  1  0.39069771  0.39157571  0.80655919  1  0  0.431723  0  0.872294  0  0  0.397645  0  0.940519  0  0  0.408698  0  0.924647  0  0  0.28245  0.389872  0  0.951637  0
H  H21  1  0.60930384  0.60842629  0.19343870  1  0  0.431743  0  0.872267  0  0  0.397659  0  0.940499  0  0  0.408716  0  0.924622  0  0  0.282448  0.389888  0  0.951616  0
H  H22  1  0.51623202  0.17102602  0.77602690  1  0  0.413792  0  0.889684  0  0  0.381036  0  0.958388  0  0  0.39152  0  0.943222  0  0  0.285124  0.373721  0  0.968906  0
H  H23  1  0.48376952  0.82897598  0.22397199  1  0  0.413783  0  0.889697  0  0  0.381027  0  0.9584  0  0  0.39151  0  0.943235  0  0  0.285119  0.373711  0  0.968918  0
C  C24  1  0.88834315  0.15559666  0.35428622  1  0  0.215993  0  3.672595  0  0  0.205105  0  3.924923  0  0  0.214493  0  3.943771  0  0  0.118779  0.199128  0  3.912165  0
C  C25  1  0.11165497  0.84440252  0.64571518  1  0  0.21599  0  3.672544  0  0  0.205079  0  3.924936  0  0  0.214468  0  3.943782  0  0  0.118746  0.199103  0  3.912176  0
C  C26  1  0.74137492  0.26310779  0.46394596  1  0  -0.14519  0  3.714696  0  0  -0.164982  0  3.974131  0  0  -0.170972  0  3.992438  0  0  -0.0813  -0.161565  0  3.961936  0
C  C27  1  0.25862469  0.73689138  0.53605623  1  0  -0.145191  0  3.714725  0  0  -0.164999  0  3.974147  0  0  -0.170992  0  3.992457  0  0  -0.081324  -0.161581  0  3.961951  0
C  C28  1  0.80445876  0.33654412  0.56501597  1  0  -0.021633  0  3.7126  0  0  -0.051637  0  3.977843  0  0  -0.045644  0  3.99167  0  0  -0.078469  -0.055281  0  3.96841  0
C  C29  1  0.19554341  0.66345223  0.43498692  1  0  -0.021596  0  3.712695  0  0  -0.051585  0  3.97792  0  0  -0.045592  0  3.991746  0  0  -0.078415  -0.055229  0  3.968487  0
C  C30  1  0.02132527  0.30102805  0.55596832  1  0  -0.091878  0  3.761134  0  0  -0.104818  0  4.020345  0  0  -0.110732  0  4.040084  0  0  -0.079052  -0.100996  0  4.007073  0
C  C31  1  0.97867694  0.69896834  0.44402961  1  0  -0.091892  0  3.761242  0  0  -0.10486  0  4.020446  0  0  -0.110769  0  4.040187  0  0  -0.079065  -0.101039  0  4.007177  0
C  C32  1  0.16444017  0.19857289  0.44541151  1  0  0.010419  0  3.618789  0  0  -0.03322  0  3.884434  0  0  -0.026447  0  3.897926  0  0  0.037025  -0.037509  0  3.875237  0
C  C33  1  0.83555945  0.80142630  0.55458869  1  0  0.010348  0  3.618685  0  0  -0.033272  0  3.884331  0  0  -0.026504  0  3.897825  0  0  0.037016  -0.037562  0  3.875137  0
C  C34  1  0.82943870  0.06691903  0.24760867  1  0  -0.532155  0  3.723967  0  0  -0.549803  0  3.962986  0  0  -0.561002  0  3.968203  0  0  -0.174431  -0.542183  0  3.959425  0
C  C35  1  0.17055793  0.93308015  0.75239293  1  0  -0.532002  0  3.723731  0  0  -0.549654  0  3.962769  0  0  -0.560857  0  3.967986  0  0  -0.174383  -0.542037  0  3.959209  0
N  N36  1  0.09934009  0.12934176  0.34626310  1  0  0.222492  0  3.670451  0  0  0.273254  0  3.928199  0  0  0.270891  0  3.951092  0  0  -0.112597  0.274222  0  3.912574  0
N  N37  1  0.90066103  0.87065743  0.65373591  1  0  0.222488  0  3.670592  0  0  0.27326  0  3.928331  0  0  0.270896  0  3.951224  0  0  -0.112588  0.274226  0  3.912705  0
O  O38  1  0.91747521  0.25274773  0.01660911  1  0  -0.888354  0  2.005638  0  0  -0.786427  0  2.270596  0  0  -0.816171  0  2.248306  0  0  -0.382329  -0.765495  0  2.285481  0
O  O39  1  0.08252415  0.74725987  0.98339291  1  0  -0.88832  0  2.005731  0  0  -0.78638  0  2.270622  0  0  -0.816113  0  2.248327  0  0  -0.382276  -0.765446  0  2.285508  0
O  O40  1  0.61643016  0.11792988  0.04568855  1  0  -0.920887  0  2.061346  0  0  -0.818798  0  2.356459  0  0  -0.85028  0  2.332612  0  0  -0.396397  -0.796383  0  2.371907  0
O  O41  1  0.38357031  0.88207494  0.95430942  1  0  -0.92088  0  2.061335  0  0  -0.818804  0  2.356412  0  0  -0.850314  0  2.332629  0  0  -0.396428  -0.796389  0  2.371863  0
O  O42  1  0.56717661  0.40835962  0.18510719  1  0  -0.875233  0  1.96399  0  0  -0.782858  0  2.198889  0  0  -0.810548  0  2.180067  0  0  -0.37546  -0.763334  0  2.211416  0
O  O43  1  0.43282290  0.59164379  0.81489193  1  0  -0.875152  0  1.964  0  0  -0.782811  0  2.198903  0  0  -0.810483  0  2.180073  0  0  -0.375441  -0.763287  0  2.211429  0
O  O44  1  0.24336690  0.03420330  0.24143966  1  0  -0.575193  0  1.857292  0  0  -0.522074  0  2.100684  0  0  -0.546818  0  2.099127  0  0  -0.239816  -0.504304  0  2.1014  0
O  O45  1  0.75663274  0.96579590  0.75855856  1  0  -0.575177  0  1.857366  0  0  -0.522054  0  2.100736  0  0  -0.546796  0  2.099177  0  0  -0.239806  -0.504284  0  2.101462  0
O  O46  1  0.18227806  0.46266375  0.14791314  1  0  -0.855862  0  1.836571  0  0  -0.787646  0  2.03036  0  0  -0.812541  0  1.998331  0  0  -0.592478  -0.769857  0  2.05224  0
O  O47  1  0.81771996  0.53733966  0.85208619  1  0  -0.855847  0  1.836606  0  0  -0.78762  0  2.030375  0  0  -0.812516  0  1.998344  0  0  -0.592451  -0.769832  0  2.052253  0
O  O48  1  0.37190431  0.26556192  0.80262304  1  0  -0.841447  0  1.817751  0  0  -0.776092  0  2.003647  0  0  -0.799778  0  1.971287  0  0  -0.586571  -0.759391  0  2.025788  0
O  O49  1  0.62809670  0.73444150  0.19737489  1  0  -0.841457  0  1.817747  0  0  -0.776109  0  2.003669  0  0  -0.799794  0  1.971305  0  0  -0.586573  -0.759407  0  2.025811  0
