# generated using pymatgen
data_CoH24C42(N3Cl)2
_symmetry_space_group_name_H-M   'P 1'
_cell_length_a   9.28101491
_cell_length_b   19.12626471
_cell_length_c   19.12567955
_cell_angle_alpha   117.43439054
_cell_angle_beta   99.30038007
_cell_angle_gamma   99.32471672
_symmetry_Int_Tables_number   1
_chemical_formula_structural   CoH24C42(N3Cl)2
_chemical_formula_sum   'Co3 H72 C126 N18 Cl6'
_cell_volume   2863.16227787
_cell_formula_units_Z   3
loop_
 _symmetry_equiv_pos_site_id
 _symmetry_equiv_pos_as_xyz
  1  'x, y, z'
loop_
 _atom_site_type_symbol
 _atom_site_label
 _atom_site_symmetry_multiplicity
 _atom_site_fract_x
 _atom_site_fract_y
 _atom_site_fract_z
 _atom_site_occupancy
 _atom_site_pbe_bader_charge
 _atom_site_pbe_bader_spin_density
 _atom_site_pbe_cm5_charge
 _atom_site_pbe_ddec_charge
 _atom_site_pbe_ddec_spin_density
 _atom_site_pbe_ddec_sum_bond_order
 _atom_site_pbe_magmom
Co  Co0  1  0.50001577  0.00001924  0.50000549  1  1.115155  1.005527  0.667375  0.488238  1.099314  3.066184  0.997
Co  Co1  1  0.00000557  0.49999367  0.50001538  1  1.113112  1.005808  0.666737  0.487626  1.09981  3.067206  0.997
Co  Co2  1  0.49999725  0.49998660  0.99998072  1  1.113174  1.006205  0.666264  0.486678  1.100232  3.06921  0.998
H  H3  1  0.98242631  0.23290440  0.57713889  1  0.078347  5.8e-05  0.102302  0.122431  3e-05  1.014877  0.0
H  H4  1  0.40476730  0.42263264  0.65580560  1  0.077127  5.6e-05  0.102542  0.122301  2.9e-05  1.015934  0.0
H  H5  1  0.74936664  0.34421742  0.76700325  1  0.09012  6.1e-05  0.102092  0.121641  2.7e-05  1.016634  0.0
H  H6  1  0.01757858  0.76710926  0.42286130  1  0.078692  5.7e-05  0.102378  0.122468  2.9e-05  1.014987  0.0
H  H7  1  0.59523706  0.57737123  0.34420625  1  0.077377  5.5e-05  0.102499  0.122209  2.8e-05  1.015625  0.0
H  H8  1  0.25062569  0.65577116  0.23298388  1  0.090474  6e-05  0.102107  0.121709  2.7e-05  1.016558  0.0
H  H9  1  0.07848492  0.14684993  0.64625750  1  0.093007  2.5e-05  0.098261  0.111816  -1.4e-05  1.056304  0.0
H  H10  1  0.43177924  0.35348329  0.50062386  1  0.098468  3.4e-05  0.098447  0.11211  -1.1e-05  1.055699  0.0
H  H11  1  0.93117418  0.49950226  0.85293742  1  0.091837  2.7e-05  0.098251  0.112692  -1.1e-05  1.055726  0.0
H  H12  1  0.92150101  0.85315639  0.35373887  1  0.093066  2.5e-05  0.098277  0.11183  -1.4e-05  1.056151  0.0
H  H13  1  0.56821355  0.64652364  0.49938745  1  0.098106  3.4e-05  0.098443  0.112142  -1e-05  1.055655  0.0
H  H14  1  0.06880410  0.50048876  0.14705444  1  0.093835  2.9e-05  0.098236  0.112627  -1.1e-05  1.05563  0.0
H  H15  1  0.81755412  0.88714353  0.65707560  1  0.083011  2.8e-05  0.101088  0.120155  -4e-06  1.025318  0.0
H  H16  1  0.16106047  0.34301399  0.23025741  1  0.067329  1.8e-05  0.100691  0.118416  -6e-06  1.026457  0.0
H  H17  1  0.93064420  0.76988991  0.11269525  1  0.064644  1.8e-05  0.101043  0.119537  -4e-06  1.025585  0.0
H  H18  1  0.18246710  0.11285912  0.34293335  1  0.083274  2.8e-05  0.101116  0.120339  -4e-06  1.02555  0.0
H  H19  1  0.83894978  0.65697764  0.76973777  1  0.067554  1.8e-05  0.100753  0.118559  -6e-06  1.026472  0.0
H  H20  1  0.06937479  0.23011703  0.88730034  1  0.065039  1.8e-05  0.101067  0.119558  -5e-06  1.025753  0.0
H  H21  1  0.53314375  0.78855686  0.59931327  1  0.084264  1.1e-05  0.099048  0.118616  -7e-06  1.04444  0.0
H  H22  1  0.93436832  0.40065350  0.18930728  1  0.086841  1e-05  0.098977  0.118269  -9e-06  1.044093  0.0
H  H23  1  0.74501382  0.81076566  0.21139357  1  0.097588  1.3e-05  0.09904  0.119038  -9e-06  1.044395  0.0
H  H24  1  0.46686668  0.21144823  0.40069178  1  0.084102  1.1e-05  0.099056  0.118584  -7e-06  1.044605  0.0
H  H25  1  0.06562865  0.59933997  0.81069189  1  0.08667  1e-05  0.098979  0.118216  -9e-06  1.044326  0.0
H  H26  1  0.25499446  0.18923515  0.78859940  1  0.097471  1.3e-05  0.099051  0.119066  -9e-06  1.044673  0.0
H  H27  1  0.84965289  0.18313931  0.39505746  1  0.049448  0.001052  0.106552  0.120065  0.000419  0.99899  0.0
H  H28  1  0.45405175  0.60508830  0.78818044  1  0.084167  0.001033  0.106326  0.120311  0.000418  1.000733  0.0
H  H29  1  0.66620957  0.21193380  0.81688310  1  0.087684  0.001039  0.106457  0.120104  0.000416  1.000415  0.0
H  H30  1  0.15033609  0.81685783  0.60494590  1  0.050312  0.001051  0.106483  0.120025  0.000418  0.999078  0.0
H  H31  1  0.54593431  0.39490517  0.21181420  1  0.084623  0.001033  0.106327  0.120317  0.000417  1.000686  0.0
H  H32  1  0.33378771  0.78807558  0.18311923  1  0.087698  0.001039  0.106466  0.12006  0.000416  1.000338  0.0
H  H33  1  0.64370089  0.32023979  0.58299308  1  0.080445  0.001213  0.108837  0.120589  0.000492  0.990957  0.001
H  H34  1  0.06029797  0.41698693  0.73726639  1  0.076816  0.001216  0.108357  0.120224  0.000492  0.989613  0.001
H  H35  1  0.32325174  0.26263030  0.67961857  1  0.060885  0.001239  0.108728  0.120975  0.000499  0.989535  0.001
H  H36  1  0.35628796  0.67975490  0.41701385  1  0.080557  0.001212  0.108842  0.120599  0.000491  0.990993  0.001
H  H37  1  0.93968402  0.58300716  0.26272560  1  0.077009  0.001215  0.108285  0.12016  0.000492  0.989717  0.001
H  H38  1  0.67674694  0.73737969  0.32038519  1  0.06104  0.001239  0.108743  0.121021  0.000499  0.989543  0.001
H  H39  1  0.91696703  0.05398224  0.77494122  1  0.078176  1.9e-05  0.103203  0.10616  4e-06  0.986743  0.0
H  H40  1  0.14193804  0.22515923  0.27919245  1  0.060395  1.9e-05  0.103872  0.106798  4e-06  0.987144  0.0
H  H41  1  0.86307558  0.72097868  0.94589337  1  0.080434  1.8e-05  0.103221  0.106361  4e-06  0.987961  0.0
H  H42  1  0.08303030  0.94602285  0.22506333  1  0.078342  1.9e-05  0.103233  0.106257  4e-06  0.986654  0.0
H  H43  1  0.85805767  0.77483607  0.72081164  1  0.060336  1.9e-05  0.103908  0.106779  4e-06  0.987286  0.0
H  H44  1  0.13691668  0.27901846  0.05409979  1  0.080387  1.9e-05  0.103249  0.106461  4e-06  0.98789  0.0
H  H45  1  0.09551137  0.98128178  0.56511279  1  0.070789  -8e-05  0.100751  0.107158  -0.000121  1.030026  0.0
H  H46  1  0.53046847  0.43496185  0.41593074  1  0.04632  -8.1e-05  0.101069  0.107932  -0.00012  1.029936  0.0
H  H47  1  0.11391196  0.58379637  0.01866541  1  0.076199  -7.9e-05  0.100645  0.107272  -0.000118  1.03006  0.0
H  H48  1  0.90449151  0.01873004  0.43489582  1  0.070777  -8.1e-05  0.100761  0.107265  -0.000121  1.029808  0.0
H  H49  1  0.46952256  0.56503284  0.58406748  1  0.046199  -8.1e-05  0.101077  0.107893  -0.000121  1.029862  0.0
H  H50  1  0.88608060  0.41620139  0.98132440  1  0.076408  -7.9e-05  0.100652  0.107289  -0.000119  1.029919  0.0
H  H51  1  0.95118370  0.31252983  0.39497901  1  0.071988  0.001859  0.112205  0.07538  0.000539  1.037451  0.001
H  H52  1  0.55574317  0.60510026  0.91759428  1  0.117413  0.00187  0.111658  0.074779  0.000539  1.036387  0.001
H  H53  1  0.63867695  0.08253978  0.68750352  1  0.106517  0.001883  0.111549  0.074849  0.000551  1.036833  0.001
H  H54  1  0.04880280  0.68746669  0.60503381  1  0.071833  0.001858  0.112199  0.075484  0.000539  1.037267  0.001
H  H55  1  0.44424043  0.39488831  0.08239269  1  0.117221  0.00187  0.111685  0.074883  0.000539  1.036408  0.001
H  H56  1  0.36132305  0.91747939  0.31250196  1  0.106177  0.001882  0.111574  0.074842  0.00055  1.036656  0.001
H  H57  1  0.75340603  0.44386852  0.57496062  1  0.083518  0.002007  0.115338  0.084768  0.000655  1.012823  0.001
H  H58  1  0.17814043  0.42488912  0.86884505  1  0.105705  0.002011  0.115742  0.085853  0.000654  1.012415  0.001
H  H59  1  0.30969218  0.13107685  0.55599615  1  0.123012  0.00198  0.115543  0.086194  0.000642  1.013183  0.001
H  H60  1  0.24659544  0.55612740  0.42504786  1  0.083258  0.002007  0.115334  0.084838  0.000655  1.012725  0.001
H  H61  1  0.82185484  0.57510313  0.13114610  1  0.105897  0.002011  0.115749  0.085841  0.000654  1.012441  0.001
H  H62  1  0.69031275  0.86893253  0.44400887  1  0.122904  0.001979  0.115483  0.086144  0.000642  1.013167  0.001
H  H63  1  0.16161857  0.06137002  0.85777447  1  0.080822  -3e-05  0.105004  0.118627  -2.6e-05  0.986783  0.0
H  H64  1  0.30344185  0.14224999  0.20351300  1  0.080805  -2.9e-05  0.10471  0.118254  -2.6e-05  0.98736  0.0
H  H65  1  0.10058210  0.79647060  0.93871229  1  0.074347  -3e-05  0.104498  0.118066  -2.6e-05  0.986959  0.0
H  H66  1  0.83838160  0.93863202  0.14223045  1  0.080886  -3e-05  0.105042  0.118769  -2.6e-05  0.98669  0.0
H  H67  1  0.69655215  0.85774409  0.79648621  1  0.080989  -2.9e-05  0.104709  0.118284  -2.6e-05  0.98738  0.0
H  H68  1  0.89941308  0.20353021  0.06128227  1  0.07432  -3e-05  0.104521  0.118093  -2.6e-05  0.986973  0.0
H  H69  1  0.33680844  0.98583062  0.64649236  1  0.1036  -0.000124  0.104904  0.120846  -0.000176  1.029061  0.0
H  H70  1  0.69019499  0.35349086  0.33892236  1  0.1005  -0.000123  0.104629  0.119675  -0.000176  1.030015  0.0
H  H71  1  0.35088836  0.66059867  0.01424699  1  0.105915  -0.000126  0.105072  0.120374  -0.000179  1.029102  0.0
H  H72  1  0.66319151  0.01417754  0.35351380  1  0.10348  -0.000124  0.10492  0.120895  -0.000176  1.028983  0.0
H  H73  1  0.30979386  0.64650383  0.66107725  1  0.100348  -0.000123  0.104626  0.119735  -0.000176  1.029987  0.0
H  H74  1  0.64909857  0.33940092  0.98574427  1  0.106654  -0.000127  0.105052  0.120348  -0.000179  1.02907  0.0
C  C75  1  0.76053694  0.13760715  0.53084210  1  0.443893  -0.010013  0.085661  0.172318  -0.010489  4.070072  -0.007
C  C76  1  0.22943585  0.46906892  0.60683883  1  0.391755  -0.010065  0.085933  0.173229  -0.010508  4.065361  -0.007
C  C77  1  0.62272248  0.39314801  0.86228945  1  0.433598  -0.010002  0.086112  0.174462  -0.010471  4.06506  -0.007
C  C78  1  0.23947931  0.86240957  0.46916614  1  0.443654  -0.010005  0.085683  0.172184  -0.01048  4.070351  -0.007
C  C79  1  0.77056349  0.53092272  0.39316961  1  0.400088  -0.010049  0.085896  0.173092  -0.010496  4.065421  -0.007
C  C80  1  0.37727794  0.60684363  0.13769397  1  0.433666  -0.00999  0.0862  0.174476  -0.01046  4.065391  -0.007
C  C81  1  0.83888288  0.06759931  0.58621609  1  0.368378  -0.009502  0.083626  0.162049  -0.009768  4.063902  -0.006
C  C82  1  0.25259228  0.41371042  0.48147660  1  0.356528  -0.009516  0.084745  0.163685  -0.009771  4.063245  -0.006
C  C83  1  0.77095702  0.51858913  0.93222492  1  0.385309  -0.009487  0.082714  0.161945  -0.009782  4.061787  -0.006
C  C84  1  0.16111603  0.93241986  0.41378984  1  0.368398  -0.009504  0.083761  0.162298  -0.00977  4.064027  -0.006
C  C85  1  0.74739688  0.58628488  0.51853429  1  0.361027  -0.009514  0.084761  0.163789  -0.009772  4.062952  -0.006
C  C86  1  0.22902361  0.48140006  0.06775687  1  0.384549  -0.009488  0.082738  0.161921  -0.009783  4.061339  -0.006
C  C87  1  0.71432157  0.95241684  0.59862529  1  0.428606  -0.009201  0.081979  0.15754  -0.009485  4.072442  -0.006
C  C88  1  0.11603168  0.40147774  0.35392575  1  0.354058  -0.009295  0.080867  0.155324  -0.009523  4.071377  -0.006
C  C89  1  0.76196546  0.64618600  0.04753794  1  0.359858  -0.009295  0.081771  0.156949  -0.00952  4.072481  -0.006
C  C90  1  0.28569935  0.04760049  0.40138884  1  0.429964  -0.009202  0.082056  0.157878  -0.009487  4.072209  -0.006
C  C91  1  0.88396696  0.59850594  0.64607688  1  0.351037  -0.009301  0.08069  0.154885  -0.009524  4.071448  -0.006
C  C92  1  0.23803880  0.35381114  0.95244413  1  0.360897  -0.009296  0.08168  0.156669  -0.009523  4.072955  -0.006
C  C93  1  0.48310920  0.87138189  0.55040560  1  0.378292  -0.010196  0.08493  0.167039  -0.010623  4.06803  -0.007
C  C94  1  0.93302404  0.44960291  0.32101116  1  0.405423  -0.010178  0.084399  0.165726  -0.01063  4.068684  -0.007
C  C95  1  0.61206491  0.67904393  0.12869381  1  0.410693  -0.010193  0.084136  0.166934  -0.010654  4.068865  -0.007
C  C96  1  0.51689770  0.12863361  0.44960553  1  0.378722  -0.010205  0.084728  0.16668  -0.010634  4.068393  -0.007
C  C97  1  0.06696364  0.55038505  0.67899624  1  0.405298  -0.010192  0.084493  0.165902  -0.010644  4.068191  -0.007
C  C98  1  0.38792909  0.32095015  0.87128971  1  0.410999  -0.010202  0.08419  0.166792  -0.010664  4.068521  -0.007
C  C99  1  0.91854746  0.17811029  0.57381714  1  -0.120782  -0.005865  -0.111907  -0.193877  -0.006185  4.006715  -0.003
C  C100  1  0.34435254  0.42600374  0.60435386  1  -0.09936  -0.005878  -0.111405  -0.193587  -0.006203  4.006942  -0.003
C  C101  1  0.74026601  0.39567280  0.82178893  1  -0.100447  -0.005855  -0.1121  -0.194895  -0.006195  4.007823  -0.003
C  C102  1  0.08146394  0.82190765  0.42618763  1  -0.122091  -0.00587  -0.11199  -0.193892  -0.006189  4.0066  -0.003
C  C103  1  0.65564956  0.57399340  0.39566099  1  -0.107481  -0.00589  -0.111382  -0.193435  -0.00621  4.006413  -0.003
C  C104  1  0.25972947  0.60431333  0.17819261  1  -0.100014  -0.00586  -0.11215  -0.194948  -0.0062  4.007659  -0.003
C  C105  1  0.67009187  0.16604811  0.49013065  1  0.020838  -0.006286  -0.005995  -0.085559  -0.007009  3.999015  -0.003
C  C106  1  0.17964959  0.50990092  0.67597619  1  0.026899  -0.006307  -0.007504  -0.087969  -0.007033  3.997202  -0.003
C  C107  1  0.50371875  0.32399540  0.83386045  1  -0.009711  -0.006354  -0.006421  -0.086474  -0.007051  3.997455  -0.003
C  C108  1  0.32991630  0.83396555  0.50987921  1  0.020477  -0.006296  -0.005942  -0.085486  -0.007019  3.998388  -0.003
C  C109  1  0.82034494  0.49008766  0.32403046  1  0.027566  -0.006319  -0.007354  -0.08763  -0.007047  3.996647  -0.003
C  C110  1  0.49627276  0.67599808  0.16612208  1  -0.009314  -0.006364  -0.006312  -0.086633  -0.007062  3.997633  -0.003
C  C111  1  0.96714726  0.13459611  0.60817119  1  -0.036557  -0.006197  -0.11004  -0.185533  -0.00659  4.009636  -0.003
C  C112  1  0.35864439  0.39163745  0.52648973  1  -0.044709  -0.00621  -0.109483  -0.184407  -0.006596  4.008717  -0.003
C  C113  1  0.83219044  0.47359946  0.86522262  1  -0.071079  -0.006203  -0.109321  -0.18501  -0.006559  4.007185  -0.003
C  C114  1  0.03285370  0.86542061  0.39183481  1  -0.035177  -0.006189  -0.110124  -0.185638  -0.006582  4.009331  -0.003
C  C115  1  0.64135347  0.60836214  0.47352643  1  -0.049122  -0.006203  -0.109591  -0.184654  -0.006586  4.008729  -0.003
C  C116  1  0.16779426  0.52638911  0.13475973  1  -0.073689  -0.006197  -0.109293  -0.184832  -0.00655  4.006734  -0.003
C  C117  1  0.84282352  0.01237355  0.61467245  1  -0.028625  -0.006001  -0.006229  -0.082244  -0.006638  4.004561  -0.003
C  C118  1  0.22834445  0.38537211  0.39783412  1  0.023312  -0.005955  -0.005884  -0.082001  -0.006647  4.004998  -0.003
C  C119  1  0.83026708  0.60226234  0.98747626  1  0.017924  -0.005927  -0.006392  -0.082448  -0.0066  4.004667  -0.003
C  C120  1  0.15718736  0.98764990  0.38533848  1  -0.029527  -0.005997  -0.00641  -0.082647  -0.006635  4.005065  -0.003
C  C121  1  0.77164803  0.61461891  0.60217924  1  0.026795  -0.005948  -0.005649  -0.081592  -0.006646  4.004551  -0.003
C  C122  1  0.16971809  0.39772501  0.01249876  1  0.018282  -0.005924  -0.006378  -0.082339  -0.006597  4.004446  -0.003
C  C123  1  0.71753785  0.89117163  0.62255858  1  -0.080659  -0.006315  -0.111231  -0.190988  -0.006703  4.013797  -0.003
C  C124  1  0.09552138  0.37753490  0.26876006  1  -0.066789  -0.006304  -0.110615  -0.18665  -0.006699  4.012501  -0.003
C  C125  1  0.82663545  0.73136142  0.10874404  1  -0.023473  -0.006284  -0.110522  -0.1876  -0.006711  4.011347  -0.003
C  C126  1  0.28248154  0.10884264  0.37744931  1  -0.080672  -0.006323  -0.111304  -0.19146  -0.006712  4.014197  -0.003
C  C127  1  0.90447957  0.62245123  0.73124596  1  -0.06744  -0.006316  -0.110609  -0.186732  -0.00671  4.012745  -0.003
C  C128  1  0.17336789  0.26863389  0.89123608  1  -0.023046  -0.006292  -0.110525  -0.187454  -0.006719  4.011297  -0.003
C  C129  1  0.57415498  0.84108595  0.59287287  1  -0.068505  -0.005732  -0.110844  -0.185101  -0.006107  4.00514  -0.003
C  C130  1  0.98181779  0.40715150  0.24829696  1  -0.056093  -0.005751  -0.109848  -0.184414  -0.006133  4.005204  -0.003
C  C131  1  0.73346618  0.75178916  0.15889187  1  -0.118777  -0.005791  -0.110935  -0.187274  -0.006137  4.005455  -0.003
C  C132  1  0.42585957  0.15892954  0.40713729  1  -0.06901  -0.00573  -0.110709  -0.184728  -0.006104  4.005162  -0.003
C  C133  1  0.01817333  0.59283463  0.75170881  1  -0.055578  -0.005745  -0.109855  -0.18433  -0.006127  4.005441  -0.003
C  C134  1  0.26653328  0.24820493  0.84108946  1  -0.119868  -0.005788  -0.110932  -0.187321  -0.006133  4.005568  -0.003
C  C135  1  0.73890669  0.24152210  0.48971836  1  -0.020645  -0.0027  0.01349  0.130172  -0.002715  4.005962  -0.002
C  C136  1  0.24872930  0.51033952  0.75186922  1  0.025592  -0.002712  0.015198  0.133657  -0.002729  4.00748  -0.002
C  C137  1  0.49705535  0.24812185  0.75842343  1  0.028144  -0.002724  0.015126  0.133318  -0.002746  4.007438  -0.002
C  C138  1  0.26110344  0.75848238  0.51029266  1  -0.019518  -0.002699  0.013332  0.130108  -0.002715  4.005665  -0.002
C  C139  1  0.75127286  0.48964905  0.24812652  1  0.021722  -0.002712  0.01527  0.133647  -0.002728  4.006945  -0.002
C  C140  1  0.50295289  0.75188325  0.24157047  1  0.0284  -0.002723  0.015019  0.133219  -0.002745  4.007053  -0.002
C  C141  1  0.98905302  0.01730076  0.66424166  1  0.018269  -6.8e-05  -0.008362  0.076402  -5e-05  4.009307  0.0
C  C142  1  0.32493978  0.33578853  0.35311148  1  0.032902  -6.6e-05  -0.008385  0.076762  -5e-05  4.009376  0.0
C  C143  1  0.97163994  0.64690183  0.98255769  1  0.001689  -7.1e-05  -0.007678  0.076302  -4.9e-05  4.009042  0.0
C  C144  1  0.01096153  0.98273003  0.33576771  1  0.018608  -6.8e-05  -0.00823  0.076568  -5e-05  4.00914  0.0
C  C145  1  0.67506236  0.66420433  0.64690871  1  0.033025  -6.6e-05  -0.008508  0.076521  -5e-05  4.009361  0.0
C  C146  1  0.02834313  0.35307695  0.01741008  1  0.000647  -7.1e-05  -0.007682  0.076241  -4.9e-05  4.008956  0.0
C  C147  1  0.82730316  0.24005379  0.43660733  1  0.052541  0.003492  -0.083616  -0.177476  0.001833  3.932095  0.003
C  C148  1  0.39023423  0.56345848  0.80349404  1  -0.052157  0.003566  -0.083873  -0.179117  0.001829  3.933978  0.003
C  C149  1  0.58702179  0.19655511  0.75993714  1  -0.038924  0.003564  -0.083663  -0.178351  0.00185  3.934429  0.003
C  C150  1  0.17270160  0.75994213  0.56340402  1  0.050875  0.003492  -0.083298  -0.177251  0.001832  3.932037  0.003
C  C151  1  0.60976186  0.43652888  0.19649335  1  -0.052683  0.003564  -0.083883  -0.179097  0.001828  3.933611  0.003
C  C152  1  0.41299415  0.80346100  0.24006662  1  -0.037942  0.003561  -0.083636  -0.178206  0.001849  3.934115  0.003
C  C153  1  0.71218734  0.31619356  0.54065893  1  -0.025502  0.003613  -0.086323  -0.188965  0.001878  3.953599  0.003
C  C154  1  0.17109818  0.45933394  0.77555770  1  -0.046712  0.003637  -0.08691  -0.190609  0.001883  3.954399  0.003
C  C155  1  0.39580912  0.22438669  0.68371068  1  -0.026544  0.003607  -0.086698  -0.189652  0.00187  3.952662  0.003
C  C156  1  0.28781489  0.68380603  0.45935340  1  -0.025713  0.003613  -0.086459  -0.189145  0.001878  3.953563  0.003
C  C157  1  0.82889761  0.54065280  0.22443042  1  -0.042979  0.003638  -0.086849  -0.190517  0.001883  3.954421  0.003
C  C158  1  0.60419795  0.77562697  0.31629074  1  -0.026496  0.003607  -0.086721  -0.189644  0.00187  3.952388  0.003
C  C159  1  0.00922758  0.03909010  0.74675878  1  -0.034072  -0.000279  -0.088021  -0.116949  -0.00028  3.977801  0.0
C  C160  1  0.26240168  0.25328253  0.29237388  1  0.005252  -0.000271  -0.08702  -0.11498  -0.000274  3.977195  0.0
C  C161  1  0.97018005  0.70766195  0.96081547  1  -0.027683  -0.000265  -0.087373  -0.115363  -0.000266  3.977991  0.0
C  C162  1  0.99077154  0.96092295  0.25324382  1  -0.034417  -0.000278  -0.088097  -0.117042  -0.000279  3.977869  0.0
C  C163  1  0.73760076  0.74671094  0.70763930  1  0.005844  -0.000271  -0.087087  -0.114882  -0.000274  3.97741  0.0
C  C164  1  0.02980591  0.29232479  0.03916508  1  -0.027087  -0.000266  -0.087377  -0.115488  -0.000267  3.978157  0.0
C  C165  1  0.10910436  0.99881726  0.62917947  1  -0.050163  -0.000295  -0.085611  -0.109764  -0.00032  3.949287  0.0
C  C166  1  0.47997684  0.37085930  0.36948031  1  -0.027296  -0.000298  -0.087282  -0.114424  -0.000324  3.949343  0.0
C  C167  1  0.11013528  0.63033310  0.00112243  1  -0.04204  -0.000305  -0.087034  -0.113663  -0.000332  3.95149  0.0
C  C168  1  0.89091071  0.00120803  0.37083054  1  -0.050752  -0.000294  -0.085618  -0.10989  -0.000319  3.949079  0.0
C  C169  1  0.52002421  0.62913356  0.63053300  1  -0.027512  -0.000298  -0.087206  -0.11418  -0.000323  3.949179  0.0
C  C170  1  0.88985553  0.36965242  0.99885533  1  -0.04117  -0.000304  -0.087087  -0.113749  -0.000332  3.951632  0.0
C  C171  1  0.88350654  0.31184999  0.43631710  1  0.47768  -0.001308  0.045017  0.096011  -0.00225  3.957986  -0.001
C  C172  1  0.44677364  0.56369503  0.87554637  1  0.461133  -0.001393  0.045423  0.097586  -0.002259  3.957349  -0.001
C  C173  1  0.57161534  0.12450829  0.68815016  1  0.464528  -0.001285  0.045744  0.097157  -0.002205  3.956941  -0.001
C  C174  1  0.11649948  0.68814410  0.56369821  1  0.477932  -0.00131  0.044838  0.095708  -0.00225  3.957847  -0.001
C  C175  1  0.55322420  0.43628927  0.12443608  1  0.460579  -0.001393  0.045449  0.097417  -0.002258  3.9576  -0.001
C  C176  1  0.42840287  0.87551455  0.31185478  1  0.463656  -0.001284  0.045709  0.097033  -0.002204  3.956381  -0.001
C  C177  1  0.77285618  0.38502599  0.53624274  1  0.482552  -0.000653  0.04612  0.096538  -0.001658  3.950425  -0.001
C  C178  1  0.23625774  0.46367134  0.84875432  1  0.480193  -0.000722  0.045735  0.096297  -0.001656  3.955272  -0.001
C  C179  1  0.38783668  0.15117790  0.61487131  1  0.450805  -0.000783  0.046045  0.094426  -0.001734  3.953612  -0.001
C  C180  1  0.22715543  0.61497054  0.46377466  1  0.482882  -0.000654  0.046229  0.09657  -0.001656  3.950087  -0.001
C  C181  1  0.76374154  0.53630928  0.15122603  1  0.480392  -0.000722  0.045798  0.096348  -0.001655  3.955499  -0.001
C  C182  1  0.61218468  0.84884249  0.38513014  1  0.450649  -0.000784  0.046222  0.094501  -0.001733  3.953552  -0.001
C  C183  1  0.14537696  0.04274537  0.79333096  1  -0.022504  -4.2e-05  -0.09966  -0.156442  -3.8e-05  4.01739  0.0
C  C184  1  0.35183629  0.20668523  0.24933968  1  -0.026237  -4.5e-05  -0.101127  -0.158675  -4e-05  4.017467  0.0
C  C185  1  0.10284680  0.75062324  0.95730417  1  -0.01281  -4.6e-05  -0.100703  -0.158329  -4.1e-05  4.01614  0.0
C  C186  1  0.85462434  0.95726768  0.20667494  1  -0.022441  -4.2e-05  -0.099751  -0.156721  -3.8e-05  4.017429  0.0
C  C187  1  0.64816427  0.79330885  0.75066737  1  -0.026639  -4.5e-05  -0.101159  -0.158745  -4e-05  4.017716  0.0
C  C188  1  0.89714144  0.24937023  0.04268176  1  -0.013593  -4.6e-05  -0.100849  -0.158438  -4e-05  4.01661  0.0
C  C189  1  0.24516811  0.00112081  0.67462733  1  -0.020803  -3.3e-05  -0.100163  -0.154774  -6.4e-05  3.99432  0.0
C  C190  1  0.57045833  0.32536026  0.32623736  1  -0.059377  -3.5e-05  -0.099292  -0.150887  -6.6e-05  3.992027  0.0
C  C191  1  0.24402724  0.67346568  0.99888788  1  -0.030656  -3.8e-05  -0.099382  -0.150987  -6.9e-05  3.991806  0.0
C  C192  1  0.75484032  0.99889775  0.32538220  1  -0.020565  -3.3e-05  -0.100085  -0.154568  -6.5e-05  3.993866  0.0
C  C193  1  0.42954131  0.67463199  0.67377190  1  -0.059493  -3.5e-05  -0.099274  -0.151004  -6.6e-05  3.99234  0.0
C  C194  1  0.75596164  0.32652474  0.00109146  1  -0.031169  -3.8e-05  -0.099334  -0.150892  -6.9e-05  3.991881  0.0
C  C195  1  0.26288481  0.02354933  0.75669398  1  0.013144  -0.000164  0.007641  0.146337  -0.000157  4.067383  0.0
C  C196  1  0.50595208  0.24328847  0.26664789  1  0.038108  -0.000166  0.008408  0.147388  -0.000159  4.065378  0.0
C  C197  1  0.23951411  0.73316168  0.97653171  1  0.010194  -0.000158  0.008525  0.147264  -0.000151  4.064392  0.0
C  C198  1  0.73712160  0.97646739  0.24331350  1  0.013274  -0.000163  0.007605  0.146279  -0.000156  4.066947  0.0
C  C199  1  0.49404987  0.75670622  0.73336321  1  0.038063  -0.000165  0.008404  0.147207  -0.000159  4.065641  0.0
C  C200  1  0.76047430  0.26682996  0.02345286  1  0.010213  -0.000158  0.008554  0.147259  -0.000151  4.064612  0.0
N  N201  1  0.71263277  0.06949195  0.53805676  1  -1.119693  -0.003028  -0.345612  -0.307229  -0.002996  3.45823  0.0
N  N202  1  0.17448915  0.46188006  0.53150621  1  -1.104591  -0.002934  -0.346536  -0.308813  -0.002937  3.457785  0.0
N  N203  1  0.64288075  0.46850263  0.93036734  1  -1.11044  -0.003092  -0.345856  -0.307987  -0.003042  3.457224  0.0
N  N204  1  0.28736526  0.93052110  0.46194837  1  -1.11982  -0.003045  -0.345559  -0.3072  -0.003009  3.45813  0.0
N  N205  1  0.82549455  0.53811525  0.46850216  1  -1.10525  -0.00295  -0.346506  -0.308956  -0.002949  3.457654  0.0
N  N206  1  0.35710268  0.53148778  0.06961890  1  -1.11019  -0.003109  -0.345901  -0.308142  -0.003054  3.457085  0.0
N  N207  1  0.56904836  0.94032415  0.55495968  1  -1.131633  -0.002588  -0.350213  -0.315496  -0.002803  3.477597  0.0
N  N208  1  0.01431514  0.44508398  0.38543254  1  -1.141243  -0.002692  -0.350071  -0.31538  -0.002885  3.479027  0.0
N  N209  1  0.62882862  0.61463882  0.05969939  1  -1.13151  -0.002622  -0.349842  -0.315685  -0.002822  3.479677  0.0
N  N210  1  0.43096933  0.05968890  0.44505587  1  -1.132316  -0.002571  -0.350258  -0.315448  -0.002791  3.477658  0.0
N  N211  1  0.98568240  0.55489970  0.61456581  1  -1.141436  -0.002677  -0.350093  -0.315104  -0.002872  3.478954  0.0
N  N212  1  0.37117997  0.38536260  0.94028761  1  -1.132342  -0.002605  -0.349936  -0.315583  -0.00281  3.48011  0.0
N  N213  1  0.85755148  0.38344236  0.48509815  1  -1.215513  0.070606  -0.308516  -0.21605  0.037737  3.510934  0.061
N  N214  1  0.37211496  0.51482485  0.89830222  1  -1.216111  0.070552  -0.308307  -0.217559  0.037688  3.515281  0.061
N  N215  1  0.47417287  0.10167880  0.61650971  1  -1.214256  0.070558  -0.30911  -0.21695  0.03765  3.512862  0.061
N  N216  1  0.14247511  0.61655356  0.51492433  1  -1.215781  0.070576  -0.308487  -0.216025  0.037724  3.510713  0.061
N  N217  1  0.62789388  0.48515088  0.10167296  1  -1.215706  0.070534  -0.308453  -0.217668  0.037675  3.515649  0.061
N  N218  1  0.52586325  0.89834710  0.38349229  1  -1.214417  0.070533  -0.309229  -0.216978  0.03764  3.512652  0.061
Cl  Cl219  1  0.43332923  0.02866464  0.81398480  1  -0.222798  8e-06  -0.026898  -0.108197  -1.4e-05  1.504106  0.0
Cl  Cl220  1  0.61887211  0.18585558  0.21442617  1  -0.219675  8e-06  -0.02748  -0.109315  -1.4e-05  1.504022  0.0
Cl  Cl221  1  0.40494029  0.78528944  0.97140444  1  -0.220133  9e-06  -0.026919  -0.108517  -1.3e-05  1.50354  0.0
Cl  Cl222  1  0.56666872  0.97135698  0.18603106  1  -0.222818  8e-06  -0.026893  -0.108197  -1.4e-05  1.50394  0.0
Cl  Cl223  1  0.38111635  0.81413177  0.78558101  1  -0.219704  8e-06  -0.027503  -0.109259  -1.4e-05  1.504028  0.0
Cl  Cl224  1  0.59504091  0.21470526  0.02857314  1  -0.220247  9e-06  -0.026833  -0.108388  -1.3e-05  1.503626  0.0
