# generated using pymatgen
data_ZnH9C12N5Cl2
_symmetry_space_group_name_H-M   'P 1'
_cell_length_a   5.20745551
_cell_length_b   12.39431808
_cell_length_c   21.65483971
_cell_angle_alpha   89.99943718
_cell_angle_beta   90.00027327
_cell_angle_gamma   97.07927128
_symmetry_Int_Tables_number   1
_chemical_formula_structural   ZnH9C12N5Cl2
_chemical_formula_sum   'Zn4 H36 C48 N20 Cl8'
_cell_volume   1387.01031222
_cell_formula_units_Z   4
loop_
 _symmetry_equiv_pos_site_id
 _symmetry_equiv_pos_as_xyz
  1  'x, y, z'
loop_
 _atom_site_type_symbol
 _atom_site_label
 _atom_site_symmetry_multiplicity
 _atom_site_fract_x
 _atom_site_fract_y
 _atom_site_fract_z
 _atom_site_occupancy
 _atom_site_hle17_bader_spin_density
 _atom_site_hle17_ddec_charge
 _atom_site_hle17_ddec_spin_density
 _atom_site_hle17_ddec_sum_bond_order
 _atom_site_hle17_magmom
 _atom_site_hse06_10hf_bader_spin_density
 _atom_site_hse06_10hf_ddec_charge
 _atom_site_hse06_10hf_ddec_spin_density
 _atom_site_hse06_10hf_ddec_sum_bond_order
 _atom_site_hse06_10hf_magmom
 _atom_site_hse06_bader_spin_density
 _atom_site_hse06_ddec_charge
 _atom_site_hse06_ddec_spin_density
 _atom_site_hse06_ddec_sum_bond_order
 _atom_site_hse06_magmom
 _atom_site_pbe_bader_spin_density
 _atom_site_pbe_cm5_charge
 _atom_site_pbe_ddec_charge
 _atom_site_pbe_ddec_spin_density
 _atom_site_pbe_ddec_sum_bond_order
 _atom_site_pbe_magmom
Zn  Zn0  1  0.90521119  0.35402754  0.64882117  1  0  0.842504  0  2.106605  0  0  0.663498  0  2.599657  0  0  0.702338  0  2.556161  0  0  0.563452  0.636793  0  2.629268  0
Zn  Zn1  1  0.09477259  0.14597117  0.14882134  1  0  0.842546  0  2.106462  0  0  0.66347  0  2.599539  0  0  0.702279  0  2.556116  0  0  0.5634  0.636759  0  2.629151  0
Zn  Zn2  1  0.09478008  0.64598661  0.35117704  1  0  0.842402  0  2.10669  0  0  0.663333  0  2.599802  0  0  0.702141  0  2.556378  0  0  0.563364  0.636633  0  2.629392  0
Zn  Zn3  1  0.90523175  0.85401580  0.85117641  1  0  0.842458  0  2.106601  0  0  0.663366  0  2.599739  0  0  0.702179  0  2.556314  0  0  0.563361  0.636652  0  2.629366  0
H  H4  1  0.96549620  0.95356902  0.35907508  1  0  0.285174  0  0.935862  0  0  0.264323  0  1.005594  0  0  0.272635  0  0.998605  0  0  0.296265  0.258439  0  1.010582  0
H  H5  1  0.03454821  0.54643163  0.85908084  1  0  0.285178  0  0.935771  0  0  0.264301  0  1.00555  0  0  0.272611  0  0.998564  0  0  0.296269  0.258417  0  1.010538  0
H  H6  1  0.03452815  0.04644755  0.64091897  1  0  0.285316  0  0.935871  0  0  0.264411  0  1.005689  0  0  0.272723  0  0.998698  0  0  0.296214  0.258528  0  1.010672  0
H  H7  1  0.96546116  0.45355062  0.14091599  1  0  0.285524  0  0.935931  0  0  0.264624  0  1.005692  0  0  0.272937  0  0.9987  0  0  0.296331  0.258739  0  1.010684  0
H  H8  1  0.47734521  0.43941197  0.56937521  1  0  0.079443  0  0.958565  0  0  0.086275  0  1.025547  0  0  0.08864  0  1.023592  0  0  0.107379  0.08449  0  1.02707  0
H  H9  1  0.52260946  0.06058334  0.06936795  1  0  0.079534  0  0.958597  0  0  0.086225  0  1.025725  0  0  0.088594  0  1.023754  0  0  0.107355  0.084436  0  1.027252  0
H  H10  1  0.52261465  0.56059818  0.43062485  1  0  0.079638  0  0.958345  0  0  0.086331  0  1.025462  0  0  0.0887  0  1.023493  0  0  0.107409  0.084542  0  1.026987  0
H  H11  1  0.47739076  0.93940191  0.93062426  1  0  0.079574  0  0.958438  0  0  0.086315  0  1.025519  0  0  0.088689  0  1.023535  0  0  0.107424  0.084527  0  1.027046  0
H  H12  1  0.17664149  0.36336311  0.48576902  1  0  0.127346  0  0.933808  0  0  0.134713  0  0.99533  0  0  0.138441  0  0.994028  0  0  0.111296  0.132031  0  0.996442  0
H  H13  1  0.82331315  0.13662590  0.98576165  1  0  0.127381  0  0.933799  0  0  0.134707  0  0.995337  0  0  0.138441  0  0.99402  0  0  0.111321  0.132015  0  0.99646  0
H  H14  1  0.82331531  0.63663968  0.51423566  1  0  0.127268  0  0.933956  0  0  0.134693  0  0.995381  0  0  0.13843  0  0.994058  0  0  0.111317  0.132  0  0.996506  0
H  H15  1  0.17670328  0.86336460  0.01423518  1  0  0.127335  0  0.934015  0  0  0.134762  0  0.995424  0  0  0.1385  0  0.994102  0  0  0.111369  0.132071  0  0.996545  0
H  H16  1  0.56321107  0.07427411  0.49103626  1  0  0.109034  0  0.974909  0  0  0.115281  0  1.042606  0  0  0.119105  0  1.040162  0  0  0.107924  0.112568  0  1.044475  0
H  H17  1  0.43680349  0.42572841  0.99103801  1  0  0.109068  0  0.974823  0  0  0.115313  0  1.042489  0  0  0.119142  0  1.040046  0  0  0.107939  0.1126  0  1.044358  0
H  H18  1  0.43675563  0.92573055  0.50897396  1  0  0.109191  0  0.974956  0  0  0.115389  0  1.042636  0  0  0.119212  0  1.040192  0  0  0.107982  0.112674  0  1.044509  0
H  H19  1  0.56323082  0.57426577  0.00897221  1  0  0.109195  0  0.974765  0  0  0.115376  0  1.042489  0  0  0.119193  0  1.040054  0  0  0.107991  0.112668  0  1.044334  0
H  H20  1  0.84185361  0.16013285  0.57433393  1  0  0.066339  0  0.99559  0  0  0.069814  0  1.070285  0  0  0.072937  0  1.066934  0  0  0.101023  0.067488  0  1.072801  0
H  H21  1  0.15814645  0.33986914  0.07433079  1  0  0.066356  0  0.995642  0  0  0.069845  0  1.070332  0  0  0.072968  0  1.066978  0  0  0.101051  0.067526  0  1.072841  0
H  H22  1  0.15811075  0.83988145  0.42567259  1  0  0.066276  0  0.995646  0  0  0.06981  0  1.070298  0  0  0.072935  0  1.066941  0  0  0.100986  0.067479  0  1.072821  0
H  H23  1  0.84187102  0.66011573  0.92567065  1  0  0.066295  0  0.995702  0  0  0.069815  0  1.070378  0  0  0.072943  0  1.067015  0  0  0.101023  0.067482  0  1.072901  0
H  H24  1  0.74917992  0.97344494  0.27374204  1  0  0.113757  0  0.966954  0  0  0.12248  0  1.029567  0  0  0.125793  0  1.028553  0  0  0.102219  0.120066  0  1.030499  0
H  H25  1  0.25080811  0.52655093  0.77374442  1  0  0.11376  0  0.966953  0  0  0.122471  0  1.029565  0  0  0.125786  0  1.028548  0  0  0.102226  0.120082  0  1.030468  0
H  H26  1  0.25084920  0.02656527  0.72625848  1  0  0.113877  0  0.967063  0  0  0.122601  0  1.029659  0  0  0.125912  0  1.028644  0  0  0.102291  0.12022  0  1.030552  0
H  H27  1  0.74916932  0.47343619  0.22626257  1  0  0.113881  0  0.967169  0  0  0.122626  0  1.029746  0  0  0.125941  0  1.028729  0  0  0.1023  0.120244  0  1.030643  0
H  H28  1  0.41859064  0.99005589  0.19356299  1  0  0.081789  0  0.948853  0  0  0.089996  0  1.013131  0  0  0.092599  0  1.010607  0  0  0.110365  0.088067  0  1.014994  0
H  H29  1  0.58137084  0.50994071  0.69356116  1  0  0.081811  0  0.948855  0  0  0.090022  0  1.013129  0  0  0.092626  0  1.010603  0  0  0.110364  0.088096  0  1.014983  0
H  H30  1  0.58143079  0.00994201  0.80643615  1  0  0.081723  0  0.948961  0  0  0.089944  0  1.013243  0  0  0.092546  0  1.010719  0  0  0.110325  0.08802  0  1.015092  0
H  H31  1  0.41860166  0.49006408  0.30644167  1  0  0.081714  0  0.948961  0  0  0.089946  0  1.013217  0  0  0.09255  0  1.010689  0  0  0.110292  0.088014  0  1.015083  0
H  H32  1  0.24542766  0.28357133  0.26372838  1  0  0.081839  0  0.943704  0  0  0.089104  0  1.009573  0  0  0.091832  0  1.007146  0  0  0.110538  0.087099  0  1.011352  0
H  H33  1  0.75456425  0.21642724  0.76372466  1  0  0.081824  0  0.943723  0  0  0.089032  0  1.009645  0  0  0.091756  0  1.007228  0  0  0.110521  0.087028  0  1.011421  0
H  H34  1  0.75456930  0.71643002  0.73626568  1  0  0.081754  0  0.943849  0  0  0.089054  0  1.009647  0  0  0.091782  0  1.007223  0  0  0.110545  0.087049  0  1.01143  0
H  H35  1  0.24544740  0.78356962  0.23626617  1  0  0.081833  0  0.943847  0  0  0.089138  0  1.00967  0  0  0.091873  0  1.007227  0  0  0.110565  0.087137  0  1.011444  0
H  H36  1  0.57876370  0.28190162  0.34797945  1  0  0.128184  0  0.934542  0  0  0.137913  0  0.9932  0  0  0.141253  0  0.991954  0  0  0.110965  0.135485  0  0.994296  0
H  H37  1  0.42125896  0.21809787  0.84798094  1  0  0.128197  0  0.934576  0  0  0.137929  0  0.993216  0  0  0.141268  0  0.99197  0  0  0.110992  0.135502  0  0.994303  0
H  H38  1  0.42123466  0.71810866  0.65201691  1  0  0.128174  0  0.934596  0  0  0.137897  0  0.993285  0  0  0.141241  0  0.992028  0  0  0.110981  0.135469  0  0.994384  0
H  H39  1  0.57875220  0.78188361  0.15201496  1  0  0.128294  0  0.934549  0  0  0.137999  0  0.993221  0  0  0.14134  0  0.991969  0  0  0.111025  0.135571  0  0.994311  0
C  C40  1  0.48987707  0.35853588  0.55069693  1  0  0.133342  0  3.687964  0  0  0.102904  0  3.936129  0  0  0.11001  0  3.954364  0  0  0.048067  0.098293  0  3.92381  0
C  C41  1  0.51009568  0.14145452  0.05069107  1  0  0.133406  0  3.687985  0  0  0.103037  0  3.936078  0  0  0.110143  0  3.954304  0  0  0.048066  0.098429  0  3.923751  0
C  C42  1  0.51008704  0.64147679  0.44930543  1  0  0.13339  0  3.687516  0  0  0.103057  0  3.935664  0  0  0.110162  0  3.953895  0  0  0.048196  0.098449  0  3.923329  0
C  C43  1  0.48991574  0.85852858  0.94930530  1  0  0.133482  0  3.687556  0  0  0.103097  0  3.935724  0  0  0.110206  0  3.953959  0  0  0.048148  0.098489  0  3.923385  0
C  C44  1  0.32089106  0.31560872  0.50452207  1  0  -0.133807  0  3.656515  0  0  -0.153115  0  3.902156  0  0  -0.160855  0  3.922337  0  0  -0.074019  -0.148145  0  3.888667  0
C  C45  1  0.67907132  0.18438303  0.00451752  1  0  -0.134002  0  3.656449  0  0  -0.15321  0  3.90211  0  0  -0.160956  0  3.922306  0  0  -0.07405  -0.148234  0  3.888609  0
C  C46  1  0.67907846  0.68440166  0.49548353  1  0  -0.134004  0  3.656319  0  0  -0.15324  0  3.902035  0  0  -0.160978  0  3.922217  0  0  -0.074082  -0.148272  0  3.888562  0
C  C47  1  0.32093314  0.81560475  0.99548346  1  0  -0.134042  0  3.656474  0  0  -0.153274  0  3.902159  0  0  -0.161015  0  3.92234  0  0  -0.074085  -0.148303  0  3.888673  0
C  C48  1  0.33873756  0.20999258  0.48305188  1  0  0.072834  0  3.748414  0  0  0.086407  0  3.978704  0  0  0.09101  0  3.998434  0  0  0.02145  0.083451  0  3.965257  0
C  C49  1  0.66124764  0.29000773  0.98304905  1  0  0.07286  0  3.748184  0  0  0.086317  0  3.978636  0  0  0.090917  0  3.998369  0  0  0.021361  0.083362  0  3.965188  0
C  C50  1  0.66123595  0.79001870  0.51695510  1  0  0.073268  0  3.748112  0  0  0.086531  0  3.97883  0  0  0.09113  0  3.998567  0  0  0.021348  0.083567  0  3.965383  0
C  C51  1  0.33877097  0.70998444  0.01695655  1  0  0.073176  0  3.748274  0  0  0.086502  0  3.978905  0  0  0.091103  0  3.998638  0  0  0.02136  0.083545  0  3.96545  0
C  C52  1  0.53345152  0.15426187  0.50782165  1  0  -0.131191  0  3.704691  0  0  -0.158202  0  3.96167  0  0  -0.164498  0  3.980508  0  0  -0.080641  -0.154161  0  3.949021  0
C  C53  1  0.46654154  0.34574109  0.00782154  1  0  -0.131217  0  3.704509  0  0  -0.158157  0  3.961552  0  0  -0.164459  0  3.980394  0  0  -0.080661  -0.15411  0  3.948896  0
C  C54  1  0.46651968  0.84574694  0.49218857  1  0  -0.131517  0  3.704493  0  0  -0.158343  0  3.961551  0  0  -0.164636  0  3.980387  0  0  -0.080717  -0.154313  0  3.948936  0
C  C55  1  0.53347796  0.65425677  0.99218729  1  0  -0.131467  0  3.704495  0  0  -0.15829  0  3.961525  0  0  -0.164584  0  3.980367  0  0  -0.080723  -0.154264  0  3.948922  0
C  C56  1  0.69167052  0.20211901  0.55376329  1  0  0.130763  0  3.722494  0  0  0.097604  0  3.976642  0  0  0.104944  0  3.993504  0  0  0.03775  0.092912  0  3.965123  0
C  C57  1  0.30831938  0.29788228  0.05376191  1  0  0.13076  0  3.722829  0  0  0.097523  0  3.97699  0  0  0.104861  0  3.993843  0  0  0.037738  0.092819  0  3.965476  0
C  C58  1  0.30829874  0.79788975  0.44624324  1  0  0.130894  0  3.722661  0  0  0.097643  0  3.976796  0  0  0.104981  0  3.993646  0  0  0.037841  0.092958  0  3.965274  0
C  C59  1  0.69170091  0.70210832  0.94624231  1  0  0.130813  0  3.722687  0  0  0.097583  0  3.976797  0  0  0.104925  0  3.993645  0  0  0.037754  0.092897  0  3.965277  0
C  C60  1  0.16569288  0.15561909  0.43651962  1  0  0.266082  0  3.79461  0  0  0.249285  0  4.069674  0  0  0.256979  0  4.086357  0  0  0.212832  0.244279  0  4.058131  0
C  C61  1  0.83431904  0.34437377  0.93651805  1  0  0.266108  0  3.794462  0  0  0.249337  0  4.069525  0  0  0.257032  0  4.086212  0  0  0.212839  0.244321  0  4.057989  0
C  C62  1  0.83428281  0.84439386  0.56348136  1  0  0.266051  0  3.795055  0  0  0.249315  0  4.070162  0  0  0.257007  0  4.086846  0  0  0.212994  0.244315  0  4.058617  0
C  C63  1  0.16573217  0.65560545  0.06348201  1  0  0.265989  0  3.794879  0  0  0.2492  0  4.07004  0  0  0.256891  0  4.086722  0  0  0.212865  0.244197  0  4.058492  0
C  C64  1  0.88423906  0.12149881  0.36617089  1  0  0.300069  0  3.757446  0  0  0.269249  0  4.027601  0  0  0.281086  0  4.041978  0  0  0.227423  0.261612  0  4.017502  0
C  C65  1  0.11577814  0.37850024  0.86617352  1  0  0.300217  0  3.757267  0  0  0.26945  0  4.027323  0  0  0.281287  0  4.041697  0  0  0.227514  0.26182  0  4.017215  0
C  C66  1  0.11576560  0.87851486  0.63382409  1  0  0.300385  0  3.757213  0  0  0.269447  0  4.027493  0  0  0.281288  0  4.041862  0  0  0.227494  0.261809  0  4.017399  0
C  C67  1  0.88425079  0.62148410  0.13382562  1  0  0.300052  0  3.757477  0  0  0.269219  0  4.027625  0  0  0.28106  0  4.041997  0  0  0.227466  0.261576  0  4.017532  0
C  C68  1  0.68752958  0.12630723  0.31880216  1  0  0.06068  0  3.763773  0  0  0.071164  0  4.005759  0  0  0.075067  0  4.02456  0  0  0.017905  0.068537  0  3.993045  0
C  C69  1  0.31248289  0.37369251  0.81880500  1  0  0.060683  0  3.763834  0  0  0.071138  0  4.005808  0  0  0.075038  0  4.024609  0  0  0.017782  0.068509  0  3.993097  0
C  C70  1  0.31248216  0.87370256  0.68119190  1  0  0.06058  0  3.763425  0  0  0.071134  0  4.005435  0  0  0.075035  0  4.024238  0  0  0.017867  0.068509  0  3.99273  0
C  C71  1  0.68752119  0.62629284  0.18119552  1  0  0.060609  0  3.763348  0  0  0.07112  0  4.005331  0  0  0.075024  0  4.02413  0  0  0.01781  0.068493  0  3.992624  0
C  C72  1  0.64103251  0.04328580  0.27467966  1  0  -0.144619  0  3.696689  0  0  -0.166627  0  3.946757  0  0  -0.173294  0  3.966426  0  0  -0.083876  -0.162297  0  3.933706  0
C  C73  1  0.35896179  0.45671425  0.77468256  1  0  -0.144697  0  3.696643  0  0  -0.166708  0  3.946767  0  0  -0.173374  0  3.966435  0  0  -0.083877  -0.162403  0  3.933709  0
C  C74  1  0.35898617  0.95673144  0.72532132  1  0  -0.144823  0  3.696812  0  0  -0.166867  0  3.946949  0  0  -0.17353  0  3.966614  0  0  -0.083987  -0.162562  0  3.933881  0
C  C75  1  0.64103239  0.54326924  0.22532166  1  0  -0.144695  0  3.696691  0  0  -0.166798  0  3.946864  0  0  -0.173465  0  3.966528  0  0  -0.083951  -0.162492  0  3.933801  0
C  C76  1  0.45691677  0.05176335  0.22935666  1  0  0.130098  0  3.71153  0  0  0.099881  0  3.960498  0  0  0.106892  0  3.97803  0  0  0.043941  0.095278  0  3.948675  0
C  C77  1  0.54305546  0.44823693  0.72935885  1  0  0.130029  0  3.711319  0  0  0.099828  0  3.960305  0  0  0.106831  0  3.977839  0  0  0.043932  0.095228  0  3.948489  0
C  C78  1  0.54309023  0.94824066  0.77064109  1  0  0.130159  0  3.711554  0  0  0.099914  0  3.960494  0  0  0.106922  0  3.978022  0  0  0.043981  0.095311  0  3.948682  0
C  C79  1  0.45692554  0.55176079  0.27064352  1  0  0.130096  0  3.711364  0  0  0.099883  0  3.960326  0  0  0.106891  0  3.977854  0  0  0.043961  0.095283  0  3.9485  0
C  C80  1  0.36263268  0.21685487  0.26849706  1  0  0.138503  0  3.681343  0  0  0.10488  0  3.936804  0  0  0.112302  0  3.953459  0  0  0.046452  0.100049  0  3.925479  0
C  C81  1  0.63736524  0.28314456  0.76849517  1  0  0.138447  0  3.681353  0  0  0.104874  0  3.936816  0  0  0.112297  0  3.953463  0  0  0.046437  0.100043  0  3.925492  0
C  C82  1  0.63737651  0.78315082  0.73150068  1  0  0.138401  0  3.681461  0  0  0.104744  0  3.936938  0  0  0.112169  0  3.953587  0  0  0.046437  0.099916  0  3.925613  0
C  C83  1  0.36264074  0.71685296  0.23149842  1  0  0.138422  0  3.681207  0  0  0.104736  0  3.936668  0  0  0.112158  0  3.953326  0  0  0.046458  0.099897  0  3.925352  0
C  C84  1  0.54432152  0.21496609  0.31524698  1  0  -0.114578  0  3.646857  0  0  -0.137776  0  3.898867  0  0  -0.14356  0  3.917547  0  0  -0.072016  -0.134156  0  3.886555  0
C  C85  1  0.45568484  0.28503194  0.81525045  1  0  -0.114636  0  3.646797  0  0  -0.1378  0  3.898759  0  0  -0.14358  0  3.917433  0  0  -0.072011  -0.134178  0  3.886435  0
C  C86  1  0.45567851  0.78504261  0.68474707  1  0  -0.114378  0  3.646585  0  0  -0.137618  0  3.898636  0  0  -0.143401  0  3.917316  0  0  -0.071961  -0.134  0  3.886327  0
C  C87  1  0.54432206  0.71495914  0.18474545  1  0  -0.114574  0  3.646569  0  0  -0.137731  0  3.898549  0  0  -0.143516  0  3.917229  0  0  -0.072029  -0.134106  0  3.886222  0
N  N88  1  0.67012461  0.30229224  0.57569436  1  0  -0.323314  0  3.331231  0  0  -0.235056  0  3.598566  0  0  -0.254488  0  3.61561  0  0  -0.334973  -0.221976  0  3.586801  0
N  N89  1  0.32985436  0.19771002  0.07568939  1  0  -0.32339  0  3.331247  0  0  -0.234999  0  3.598431  0  0  -0.254414  0  3.615454  0  0  -0.334924  -0.221918  0  3.586664  0
N  N90  1  0.32983601  0.69772277  0.42430755  1  0  -0.323412  0  3.331322  0  0  -0.235103  0  3.598628  0  0  -0.25452  0  3.615663  0  0  -0.335025  -0.222024  0  3.586853  0
N  N91  1  0.67016581  0.80227977  0.92430651  1  0  -0.323471  0  3.331159  0  0  -0.235189  0  3.598521  0  0  -0.254614  0  3.615564  0  0  -0.335024  -0.222103  0  3.586748  0
N  N92  1  0.31999155  0.13690539  0.22607072  1  0  -0.322607  0  3.333222  0  0  -0.237902  0  3.606996  0  0  -0.256526  0  3.623553  0  0  -0.337559  -0.225295  0  3.595565  0
N  N93  1  0.67999556  0.36309208  0.72606797  1  0  -0.32238  0  3.332944  0  0  -0.237744  0  3.606765  0  0  -0.256381  0  3.623361  0  0  -0.337505  -0.225148  0  3.595349  0
N  N94  1  0.68001405  0.86308970  0.77392657  1  0  -0.322523  0  3.333248  0  0  -0.237711  0  3.606882  0  0  -0.256348  0  3.623474  0  0  -0.337556  -0.225107  0  3.595456  0
N  N95  1  0.32000115  0.63690765  0.27393070  1  0  -0.322462  0  3.332844  0  0  -0.237721  0  3.606562  0  0  -0.25636  0  3.62316  0  0  -0.337498  -0.225123  0  3.595143  0
N  N96  1  0.98428738  0.20156366  0.40369351  1  0  -0.418061  0  2.912144  0  0  -0.392847  0  3.178497  0  0  -0.406354  0  3.192088  0  0  -0.317612  -0.383693  0  3.169059  0
N  N97  1  0.01570065  0.29842837  0.90369740  1  0  -0.418131  0  2.912343  0  0  -0.392943  0  3.178691  0  0  -0.406447  0  3.192278  0  0  -0.317664  -0.38379  0  3.169245  0
N  N98  1  0.01569886  0.79845521  0.59630701  1  0  -0.418284  0  2.912217  0  0  -0.393007  0  3.17857  0  0  -0.406519  0  3.192165  0  0  -0.317749  -0.383849  0  3.169133  0
N  N99  1  0.98431220  0.70155153  0.09631097  1  0  -0.418058  0  2.911714  0  0  -0.39281  0  3.178041  0  0  -0.406326  0  3.191649  0  0  -0.31763  -0.383647  0  3.168594  0
N  N100  1  0.00242232  0.03113045  0.37744487  1  0  -0.201007  0  3.46435  0  0  -0.138715  0  3.697255  0  0  -0.152744  0  3.714642  0  0  -0.257537  -0.129314  0  3.685445  0
N  N101  1  0.99760306  0.46887022  0.87744923  1  0  -0.200867  0  3.464231  0  0  -0.138555  0  3.697094  0  0  -0.152578  0  3.714487  0  0  -0.257422  -0.129162  0  3.685282  0
N  N102  1  0.99759006  0.96888340  0.62255103  1  0  -0.201257  0  3.464575  0  0  -0.138891  0  3.697511  0  0  -0.152926  0  3.714902  0  0  -0.257474  -0.129481  0  3.685676  0
N  N103  1  0.00241815  0.53111393  0.12255036  1  0  -0.20147  0  3.465169  0  0  -0.139119  0  3.698058  0  0  -0.153158  0  3.715444  0  0  -0.257624  -0.129718  0  3.686256  0
N  N104  1  0.18006517  0.05060382  0.42194858  1  0  -0.243474  0  2.865343  0  0  -0.234623  0  3.136658  0  0  -0.241314  0  3.152433  0  0  -0.210851  -0.229956  0  3.125908  0
N  N105  1  0.81993975  0.44940772  0.92195011  1  0  -0.243613  0  2.864906  0  0  -0.234769  0  3.136187  0  0  -0.241465  0  3.151964  0  0  -0.210867  -0.230095  0  3.125429  0
N  N106  1  0.81994120  0.94939614  0.57805194  1  0  -0.243491  0  2.866031  0  0  -0.234641  0  3.137319  0  0  -0.241326  0  3.153091  0  0  -0.210936  -0.229977  0  3.126574  0
N  N107  1  0.18005500  0.55060409  0.07805318  1  0  -0.243361  0  2.8664  0  0  -0.234522  0  3.137731  0  0  -0.2412  0  3.153503  0  0  -0.210871  -0.229863  0  3.126995  0
Cl  Cl108  1  0.12880341  0.21184216  0.67110673  1  0  -0.549206  0  0.99611  0  0  -0.492039  0  1.271897  0  0  -0.506968  0  1.252408  0  0  -0.284602  -0.481392  0  1.285372  0
Cl  Cl109  1  0.87117884  0.28815613  0.17110549  1  0  -0.54921  0  0.996078  0  0  -0.492067  0  1.27189  0  0  -0.506995  0  1.252412  0  0  -0.284609  -0.481408  0  1.285349  0
Cl  Cl110  1  0.87120343  0.78817317  0.32888732  1  0  -0.54909  0  0.996143  0  0  -0.491957  0  1.271944  0  0  -0.506884  0  1.252467  0  0  -0.28457  -0.481293  0  1.285393  0
Cl  Cl111  1  0.12881017  0.71183128  0.82888857  1  0  -0.549083  0  0.996109  0  0  -0.491957  0  1.271943  0  0  -0.506883  0  1.252461  0  0  -0.284567  -0.48129  0  1.285392  0
Cl  Cl112  1  0.07437769  0.52374089  0.62812516  1  0  -0.565979  0  0.909328  0  0  -0.507873  0  1.176017  0  0  -0.523257  0  1.15376  0  0  -0.323524  -0.496554  0  1.191173  0
Cl  Cl113  1  0.92560745  0.97625578  0.12813078  1  0  -0.566029  0  0.909352  0  0  -0.507899  0  1.176041  0  0  -0.523279  0  1.153792  0  0  -0.32353  -0.496583  0  1.191197  0
Cl  Cl114  1  0.92562273  0.47627024  0.37187120  1  0  -0.565975  0  0.909334  0  0  -0.507863  0  1.176037  0  0  -0.523236  0  1.153784  0  0  -0.323515  -0.496547  0  1.191187  0
Cl  Cl115  1  0.07438362  0.02373248  0.87186789  1  0  -0.565984  0  0.909353  0  0  -0.50787  0  1.17607  0  0  -0.523248  0  1.153817  0  0  -0.323519  -0.496555  0  1.19123  0
