# generated using pymatgen
data_Cu2Mo4H20C28N4O17
_symmetry_space_group_name_H-M   'P 1'
_cell_length_a   7.43361878
_cell_length_b   9.94330928
_cell_length_c   12.02158554
_cell_angle_alpha   68.95518962
_cell_angle_beta   76.69241921
_cell_angle_gamma   76.52109961
_symmetry_Int_Tables_number   1
_chemical_formula_structural   Cu2Mo4H20C28N4O17
_chemical_formula_sum   'Cu2 Mo4 H20 C28 N4 O17'
_cell_volume   795.89001385
_cell_formula_units_Z   1
loop_
 _symmetry_equiv_pos_site_id
 _symmetry_equiv_pos_as_xyz
  1  'x, y, z'
loop_
 _atom_site_type_symbol
 _atom_site_label
 _atom_site_symmetry_multiplicity
 _atom_site_fract_x
 _atom_site_fract_y
 _atom_site_fract_z
 _atom_site_occupancy
 _atom_site_hle17_ddec_charge
 _atom_site_hle17_ddec_spin_density
 _atom_site_hle17_ddec_sum_bond_order
 _atom_site_hle17_magmom
 _atom_site_hse06_10hf_ddec_charge
 _atom_site_hse06_10hf_ddec_spin_density
 _atom_site_hse06_10hf_ddec_sum_bond_order
 _atom_site_hse06_10hf_magmom
 _atom_site_hse06_ddec_charge
 _atom_site_hse06_ddec_spin_density
 _atom_site_hse06_ddec_sum_bond_order
 _atom_site_hse06_magmom
 _atom_site_pbe_cm5_charge
 _atom_site_pbe_ddec_charge
 _atom_site_pbe_ddec_spin_density
 _atom_site_pbe_ddec_sum_bond_order
 _atom_site_pbe_magmom
Cu  Cu0  1  0.39678460  0.70207979  0.29955868  1  0.922263  -0.734866  1.848742  -0.511  0.91218  -0.811147  2.24733  -0.623  0.997551  -0.890609  2.177129  -0.712  0.750689  0.860848  -0.749541  2.296569  -0.561
Cu  Cu1  1  0.60321901  0.29791691  0.70044172  1  0.922202  0.734852  1.848803  0.511  0.912127  0.811147  2.247474  0.623  0.997529  0.890613  2.177269  0.712  0.750647  0.860743  0.749542  2.296749  0.561
Mo  Mo2  1  0.02354751  0.95925879  0.14275434  1  2.227906  0.003521  4.019208  0.004  2.229728  0.002428  4.563793  0.003  2.331975  0.001882  4.523961  0.002  1.517791  2.153811  0.002793  4.599929  0.003
Mo  Mo3  1  0.97645036  0.04074556  0.85724629  1  2.227976  -0.003518  4.019237  -0.004  2.229837  -0.002399  4.56379  -0.003  2.33207  -0.00189  4.523987  -0.003  1.51787  2.153926  -0.002793  4.599944  -0.003
Mo  Mo4  1  0.41597690  0.98465427  0.86753002  1  2.272544  -0.004329  3.998615  -0.004  2.290351  0.007891  4.513578  0.011  2.397499  0.005048  4.476505  0.007  1.545608  2.21711  0.011638  4.53838  0.015
Mo  Mo5  1  0.58402488  0.01534461  0.13247083  1  2.272512  0.004337  3.99855  0.004  2.290315  -0.007869  4.513511  -0.011  2.397461  -0.005051  4.476432  -0.007  1.545576  2.217074  -0.011636  4.538312  -0.015
H  H6  1  0.26422655  0.92500995  0.43101327  1  0.098792  -0.001437  0.935826  -0.003  0.110799  -0.00112  0.992238  -0.002  0.112563  -0.000772  0.990854  -0.001  0.123906  0.109523  -0.001458  0.992787  -0.002
H  H7  1  0.73577500  0.07499003  0.56898811  1  0.098767  0.001437  0.9358  0.003  0.110795  0.00112  0.992201  0.002  0.112558  0.000773  0.990819  0.001  0.123903  0.109513  0.001459  0.992755  0.002
H  H8  1  0.33736609  0.52091140  0.96423522  1  0.10841  8.1e-05  0.938818  0.0  0.120322  4.5e-05  0.995616  0.0  0.123817  3.6e-05  0.993074  0.0  0.109468  0.117968  3.2e-05  0.997401  0.0
H  H9  1  0.66264911  0.47908963  0.03577055  1  0.108369  -8.1e-05  0.938942  0.0  0.120289  -4.5e-05  0.995747  0.0  0.123777  -3.6e-05  0.993203  0.0  0.109416  0.117937  -3.2e-05  0.997532  0.0
H  H10  1  0.16220917  0.28870445  0.64941389  1  0.131122  -0.000881  0.970725  -0.001  0.13713  -0.000695  1.035366  -0.001  0.140552  -0.000477  1.03373  -0.001  0.111698  0.134643  -0.00089  1.036776  -0.001
H  H11  1  0.83778544  0.71129555  0.35058350  1  0.131101  0.000881  0.970761  0.001  0.137093  0.000695  1.035436  0.001  0.140514  0.000477  1.033803  0.001  0.111687  0.134606  0.00089  1.036838  0.001
H  H12  1  0.90163086  0.31917593  0.93720597  1  0.113592  -4.1e-05  0.964522  0.0  0.119104  -3.6e-05  1.030787  0.0  0.122797  -1.7e-05  1.028149  0.0  0.104378  0.116074  -6e-05  1.033336  0.0
H  H13  1  0.09838733  0.68082399  0.06280052  1  0.11363  4.2e-05  0.964457  0.0  0.119131  3.6e-05  1.030719  0.0  0.122852  1.7e-05  1.028043  0.0  0.104374  0.116093  6e-05  1.033268  0.0
H  H14  1  0.03402358  0.47436567  0.70538214  1  0.124142  -0.000835  0.94426  -0.001  0.134633  -0.000661  1.001775  -0.001  0.136753  -0.000452  1.00227  -0.001  0.114487  0.132896  -0.000822  1.001908  -0.001
H  H15  1  0.96597264  0.52563324  0.29461534  1  0.12418  0.00084  0.944222  0.001  0.134666  0.00066  1.00173  0.001  0.136784  0.000452  1.002226  0.001  0.114487  0.132927  0.000822  1.00186  0.001
H  H16  1  0.45561331  0.16325180  0.33786349  1  0.119827  -0.000619  0.957898  0.0  0.127127  -0.000595  1.018745  0.0  0.130348  -0.000444  1.017538  0.0  0.113028  0.124406  -0.000577  1.020462  -0.001
H  H17  1  0.54436858  0.83674933  0.66212959  1  0.119765  0.000619  0.957981  0.001  0.127099  0.000595  1.018813  0.0  0.130319  0.000445  1.017605  0.0  0.112986  0.12437  0.000577  1.020545  0.001
H  H18  1  0.49967257  0.42268791  0.23167409  1  0.101107  -0.001547  0.947162  -0.003  0.108736  -0.001193  1.008353  -0.002  0.110867  -0.000783  1.006026  -0.002  0.126766  0.106901  -0.001553  1.01021  -0.003
H  H19  1  0.50031949  0.57731101  0.76832233  1  0.101115  0.001543  0.947238  0.003  0.108759  0.001192  1.008384  0.002  0.110897  0.000783  1.006063  0.002  0.126783  0.106932  0.001552  1.010244  0.003
H  H20  1  0.28798169  0.09504474  0.55681914  1  0.107773  -0.000292  0.94532  0.0  0.12118  -2.2e-05  1.000078  0.0  0.123924  1.6e-05  0.998127  0.0  0.11044  0.119377  -9.1e-05  1.000961  0.0
H  H21  1  0.71200576  0.90495636  0.44317647  1  0.107681  0.000293  0.945392  0.0  0.121076  2.2e-05  1.000187  0.0  0.123819  -1.6e-05  0.998236  0.0  0.110407  0.119272  9.1e-05  1.001062  0.0
H  H22  1  0.06448986  0.92593171  0.63351084  1  0.112036  -0.000564  0.968636  -0.001  0.117237  -0.000493  1.036742  -0.001  0.120266  -0.000352  1.035624  0.0  0.109842  0.115183  -0.000606  1.03729  -0.001
H  H23  1  0.93550961  0.07406499  0.36649098  1  0.112025  0.000566  0.968722  0.001  0.117231  0.000493  1.036823  0.001  0.120261  0.000352  1.035704  0.0  0.109851  0.115177  0.000606  1.037361  0.001
H  H24  1  0.94542218  0.69890065  0.76975504  1  0.120617  -0.000253  0.934264  0.0  0.131182  -1.3e-05  0.990178  0.0  0.13313  1.6e-05  0.989511  0.0  0.117241  0.129691  -4.3e-05  0.990737  0.0
H  H25  1  0.05457128  0.30109826  0.23024367  1  0.120636  0.000252  0.934204  0.0  0.131181  1.2e-05  0.990136  0.0  0.133128  -1.6e-05  0.989471  0.0  0.117239  0.129688  4.3e-05  0.990695  0.0
C  C26  1  0.13459655  0.41048449  0.94385764  1  -0.052213  0.013515  3.735841  0.014  -0.031909  0.006372  3.96571  0.007  -0.039703  0.004541  3.987678  0.005  -0.011244  -0.026504  0.008129  3.950795  0.009
C  C27  1  0.86541540  0.58951874  0.05614545  1  -0.0523  -0.013511  3.736153  -0.014  -0.031895  -0.006367  3.965873  -0.007  -0.039694  -0.004543  3.987854  -0.005  -0.01123  -0.026483  -0.008128  3.950947  -0.009
C  C28  1  0.21104984  0.82845429  0.49656346  1  0.13071  0.005811  3.690873  0.007  0.103435  0.000538  3.94388  0.002  0.112765  0.001628  3.963055  0.003  0.052986  0.097856  -0.000255  3.929885  0.001
C  C29  1  0.78895056  0.17154460  0.50343842  1  0.130805  -0.005767  3.690723  -0.007  0.103512  -0.000541  3.943745  -0.002  0.112843  -0.001623  3.962924  -0.003  0.052994  0.097937  0.000254  3.929738  -0.001
C  C30  1  0.20074510  0.58229684  0.53756733  1  0.171263  0.001941  3.770463  0.002  0.166591  -0.001174  4.019028  -0.001  0.174506  -3.3e-05  4.040858  0.001  0.116936  0.161488  -0.002029  4.004166  -0.001
C  C31  1  0.79925550  0.41770096  0.46243068  1  0.171234  -0.001899  3.770385  -0.002  0.166497  0.001175  4.019029  0.001  0.174412  3.6e-05  4.040861  -0.001  0.116863  0.161387  0.00203  4.004171  0.001
C  C32  1  0.27459640  0.31575519  0.88116108  1  0.669059  -0.003003  3.849893  -0.007  0.630048  0.001027  4.145559  -0.002  0.670357  0.000349  4.134324  -0.001  0.220758  0.602603  0.001589  4.151758  -0.002
C  C33  1  0.72541579  0.68424038  0.11884506  1  0.669223  0.003003  3.84968  0.007  0.630179  -0.001014  4.145347  0.002  0.670488  -0.000344  4.134103  0.001  0.22078  0.602726  -0.00159  4.15156  0.002
C  C34  1  0.18960951  0.51243000  0.97943807  1  -0.06582  -0.003796  3.703017  -0.004  -0.088456  -0.000956  3.950608  -0.001  -0.088245  -0.000923  3.969325  -0.001  -0.078798  -0.088918  -0.001119  3.937865  -0.001
C  C35  1  0.81040406  0.48757212  0.02056677  1  -0.065841  0.003792  3.70328  0.004  -0.088519  0.000955  3.950843  0.001  -0.088301  0.000924  3.969547  0.001  -0.078779  -0.088981  0.00112  3.938105  0.001
C  C36  1  0.23746953  0.31567374  0.55719480  1  -0.121087  -0.0067  3.65677  -0.006  -0.145565  -0.003132  3.91741  -0.003  -0.151834  -0.002833  3.934673  -0.003  -0.073347  -0.142501  -0.003386  3.907153  -0.003
C  C37  1  0.76252485  0.68432735  0.44280231  1  -0.121028  0.006712  3.656698  0.006  -0.1455  0.003131  3.917346  0.003  -0.151768  0.002833  3.934606  0.003  -0.073341  -0.142434  0.003386  3.907079  0.003
C  C38  1  0.26612615  0.45847493  0.49084338  1  0.156576  0.00217  3.780425  0.003  0.149875  -0.00115  4.038647  -0.001  0.157053  2.7e-05  4.059786  0.001  0.112938  0.14522  -0.00208  4.024726  -0.002
C  C39  1  0.73387053  0.54152179  0.50915468  1  0.156548  -0.002182  3.780322  -0.003  0.149878  0.001152  4.038568  0.001  0.157057  -2.8e-05  4.059707  -0.001  0.11298  0.145227  0.00208  4.024646  0.002
C  C40  1  0.94425772  0.39844090  0.96483153  1  -0.063425  -0.001633  3.693681  -0.001  -0.087852  0.000233  3.946035  0.0  -0.088789  -0.000177  3.965444  0.0  -0.079465  -0.086562  0.000485  3.932963  0.001
C  C41  1  0.05575769  0.60155904  0.03517369  1  -0.063468  0.001633  3.69371  0.001  -0.087912  -0.000239  3.946038  0.0  -0.08886  0.000177  3.965425  0.0  -0.0795  -0.086616  -0.000485  3.932955  -0.001
C  C42  1  0.08530770  0.57536456  0.64847714  1  -0.134621  -0.005873  3.674603  -0.006  -0.152817  -0.002706  3.920956  -0.003  -0.161042  -0.002387  3.94407  -0.002  -0.073762  -0.147623  -0.002946  3.905566  -0.003
C  C43  1  0.91469014  0.42463325  0.35152043  1  -0.134689  0.005811  3.674654  0.006  -0.152847  0.002707  3.920985  0.003  -0.161073  0.002385  3.944102  0.002  -0.073751  -0.147646  0.002945  3.905583  0.003
C  C44  1  0.40104069  0.24306995  0.38508290  1  -0.112352  -0.010523  3.701854  -0.011  -0.121736  -0.004765  3.947228  -0.006  -0.129526  -0.004028  3.967663  -0.005  -0.074903  -0.116552  -0.005514  3.933758  -0.007
C  C45  1  0.59894628  0.75693335  0.61491046  1  -0.112245  0.010536  3.701986  0.011  -0.121666  0.004764  3.947344  0.006  -0.129456  0.004028  3.967782  0.005  -0.074891  -0.116477  0.005513  3.933878  0.007
C  C46  1  0.42595337  0.38770718  0.32400027  1  0.154352  0.006278  3.647492  0.007  0.127476  0.000474  3.896876  0.002  0.137785  0.001764  3.914475  0.003  0.06018  0.120716  -0.000616  3.885565  0.001
C  C47  1  0.57403664  0.61229501  0.67599798  1  0.154249  -0.006283  3.647541  -0.007  0.127406  -0.000472  3.89688  -0.002  0.137702  -0.001763  3.914491  -0.003  0.060138  0.12064  0.000616  3.885593  -0.001
C  C48  1  0.30719238  0.20677990  0.50362220  1  0.010499  0.007917  3.683631  0.007  -0.009163  0.002676  3.932102  0.003  -0.00423  0.002826  3.948757  0.003  -0.062615  -0.012421  0.002429  3.920822  0.002
C  C49  1  0.69279807  0.79322011  0.49637413  1  0.010631  -0.007924  3.683592  -0.007  -0.009042  -0.002676  3.93212  -0.003  -0.004107  -0.002825  3.948772  -0.003  -0.06254  -0.012297  -0.002428  3.920833  -0.002
C  C50  1  0.09976274  0.82807221  0.60699863  1  -0.111573  -0.008765  3.698388  -0.009  -0.124092  -0.004044  3.947725  -0.005  -0.131964  -0.003435  3.968669  -0.004  -0.076184  -0.118897  -0.004456  3.932809  -0.005
C  C51  1  0.90023488  0.17192669  0.39300032  1  -0.111613  0.008713  3.698349  0.009  -0.124161  0.004048  3.94771  0.005  -0.132024  0.00343  3.968633  0.004  -0.076184  -0.118958  0.004456  3.93278  0.005
C  C52  1  0.03492318  0.69984169  0.68387639  1  0.018224  0.006809  3.67242  0.006  0.002071  0.002317  3.914053  0.002  0.006776  0.002481  3.932769  0.002  -0.053712  -0.000901  0.002147  3.901588  0.002
C  C53  1  0.96507328  0.30015612  0.31612305  1  0.018271  -0.006757  3.672491  -0.006  0.002149  -0.002319  3.914098  -0.002  0.006856  -0.002478  3.932813  -0.002  -0.053694  -0.000828  -0.002147  3.901624  -0.002
N  N54  1  0.26049291  0.70819588  0.46345117  1  -0.325876  -0.084026  3.32385  -0.102  -0.282494  -0.059911  3.610373  -0.078  -0.31356  -0.049337  3.633051  -0.068  -0.341096  -0.263638  -0.065355  3.596691  -0.082
N  N55  1  0.73950609  0.29180302  0.53654841  1  -0.325888  0.083985  3.32376  0.102  -0.282487  0.059905  3.610315  0.078  -0.313563  0.049331  3.633008  0.068  -0.341102  -0.263624  0.065353  3.596627  0.082
N  N56  1  0.36174666  0.49197550  0.37624340  1  -0.334148  -0.088161  3.309693  -0.107  -0.294787  -0.061378  3.604771  -0.08  -0.325323  -0.050567  3.625576  -0.07  -0.341045  -0.276634  -0.067177  3.592841  -0.084
N  N57  1  0.63824910  0.50802559  0.62375350  1  -0.334117  0.088174  3.309576  0.107  -0.294781  0.061373  3.604668  0.08  -0.325327  0.050566  3.625488  0.07  -0.341018  -0.276619  0.067177  3.592744  0.084
O  O58  1  0.16198246  0.93930961  0.98855345  1  -1.010339  0.005994  1.831353  0.008  -1.003373  0.003442  2.138785  0.005  -1.047385  0.00222  2.131116  0.003  -0.610736  -0.970487  0.0046  2.143811  0.006
O  O59  1  0.83802231  0.06069473  0.01144618  1  -1.010281  -0.005993  1.831317  -0.008  -1.003316  -0.003451  2.138754  -0.005  -1.047323  -0.00222  2.131079  -0.003  -0.610703  -0.970427  -0.0046  2.143774  -0.006
O  O60  1  0.77825363  0.98730668  0.23040670  1  -0.903901  -0.001306  1.688009  -0.002  -0.8986  -0.000718  1.973232  -0.001  -0.938943  -0.000405  1.966628  -0.001  -0.592513  -0.869397  -0.000954  1.977718  -0.001
O  O61  1  0.22174700  0.01269766  0.76959437  1  -0.90396  0.001305  1.688046  0.002  -0.898665  0.000707  1.973266  0.001  -0.939008  0.000407  1.966658  0.001  -0.592538  -0.869472  0.000955  1.977768  0.001
O  O62  1  0.43829250  0.35105992  0.83768273  1  -0.5813  0.09624  2.066857  0.124  -0.564312  0.055077  2.3548  0.078  -0.606444  0.040483  2.345027  0.061  -0.31153  -0.534755  0.06578  2.360766  0.09
O  O63  1  0.56172037  0.64893894  0.16232152  1  -0.581298  -0.096232  2.066851  -0.124  -0.564301  -0.055079  2.354761  -0.078  -0.606418  -0.040486  2.344973  -0.061  -0.311521  -0.534751  -0.065778  2.360732  -0.09
O  O64  1  0.55506147  0.10003268  0.74597115  1  -0.799767  0.069832  1.745545  0.088  -0.816207  0.041404  2.077146  0.056  -0.862223  0.032165  2.064694  0.045  -0.551636  -0.786417  0.047917  2.086927  0.062
O  O65  1  0.44493868  0.89996730  0.25402795  1  -0.799771  -0.069835  1.745551  -0.088  -0.816197  -0.041412  2.077095  -0.056  -0.862225  -0.032166  2.064687  -0.045  -0.551634  -0.786433  -0.04792  2.086902  -0.062
O  O66  1  0.51602956  0.81110449  0.86959537  1  -0.644718  0.005341  1.382746  0.006  -0.636136  0.003699  1.603116  0.005  -0.660022  0.0024  1.593457  0.003  -0.503243  -0.621025  0.004378  1.610104  0.005
O  O67  1  0.48396553  0.18889331  0.13040677  1  -0.644716  -0.005346  1.382726  -0.006  -0.636127  -0.003698  1.603091  -0.005  -0.660018  -0.002399  1.593441  -0.003  -0.503248  -0.621022  -0.004379  1.610084  -0.005
O  O68  1  0.22219003  0.20878010  0.87129820  1  -0.689948  0.002887  2.185178  0.005  -0.66052  0.001211  2.455496  0.003  -0.691213  0.000269  2.448888  0.001  -0.325378  -0.638184  0.00226  2.458321  0.004
O  O69  1  0.77780971  0.79122204  0.12870780  1  -0.690142  -0.002887  2.185037  -0.005  -0.660704  -0.00122  2.455356  -0.003  -0.691397  -0.000268  2.448744  -0.001  -0.32544  -0.63838  -0.00226  2.458222  -0.004
O  O70  1  0.12056306  0.08636773  0.16299145  1  -0.678923  0.001487  1.485021  0.002  -0.67065  0.000857  1.743477  0.001  -0.695565  0.000613  1.734862  0.001  -0.505577  -0.652092  0.001212  1.750229  0.001
O  O71  1  0.87944079  0.91363443  0.83700813  1  -0.678968  -0.001488  1.485024  -0.002  -0.670706  -0.000861  1.743475  -0.001  -0.695608  -0.000608  1.734839  -0.001  -0.505618  -0.652149  -0.001212  1.750238  -0.001
O  O72  1  0.11842019  0.78707156  0.23386806  1  -0.790852  -0.000561  1.533733  -0.002  -0.794397  -4.7e-05  1.824077  -0.001  -0.826361  0.000185  1.807533  -0.001  -0.557509  -0.771723  -0.000187  1.837092  -0.001
O  O73  1  0.88158618  0.21293170  0.76612917  1  -0.790835  0.000561  1.533707  0.002  -0.794412  4.2e-05  1.824107  0.001  -0.826381  -0.000185  1.807569  0.001  -0.557517  -0.77174  0.000186  1.837136  0.001
O  O74  1  0.49999764  0.00000071  0.00000244  1  -0.89971  -1e-06  1.784918  0.0  -0.912124  -8e-06  2.099682  0.0  -0.957686  -2e-06  2.094439  0.0  -0.589573  -0.881917  0.0  2.10367  0.0
