# generated using pymatgen
data_PrH7(C3O4)2
_symmetry_space_group_name_H-M   'P 1'
_cell_length_a   8.57846734
_cell_length_b   9.26452876
_cell_length_c   14.78839284
_cell_angle_alpha   90.00206368
_cell_angle_beta   90.00042276
_cell_angle_gamma   114.56270343
_symmetry_Int_Tables_number   1
_chemical_formula_structural   PrH7(C3O4)2
_chemical_formula_sum   'Pr4 H28 C24 O32'
_cell_volume   1068.95644254
_cell_formula_units_Z   4
loop_
 _symmetry_equiv_pos_site_id
 _symmetry_equiv_pos_as_xyz
  1  'x, y, z'
loop_
 _atom_site_type_symbol
 _atom_site_label
 _atom_site_symmetry_multiplicity
 _atom_site_fract_x
 _atom_site_fract_y
 _atom_site_fract_z
 _atom_site_occupancy
 _atom_site_hle17_bader_spin_density
 _atom_site_hle17_ddec_charge
 _atom_site_hle17_ddec_spin_density
 _atom_site_hle17_ddec_sum_bond_order
 _atom_site_hle17_magmom
 _atom_site_hse06_10hf_bader_spin_density
 _atom_site_hse06_10hf_ddec_charge
 _atom_site_hse06_10hf_ddec_spin_density
 _atom_site_hse06_10hf_ddec_sum_bond_order
 _atom_site_hse06_10hf_magmom
 _atom_site_hse06_bader_spin_density
 _atom_site_hse06_ddec_charge
 _atom_site_hse06_ddec_spin_density
 _atom_site_hse06_ddec_sum_bond_order
 _atom_site_hse06_magmom
 _atom_site_pbe_bader_spin_density
 _atom_site_pbe_cm5_charge
 _atom_site_pbe_ddec_charge
 _atom_site_pbe_ddec_spin_density
 _atom_site_pbe_ddec_sum_bond_order
 _atom_site_pbe_magmom
Pr  Pr0  1  0.20554544  0.19770284  0.26326520  1  0  2.303659  0  1.618493  0  0  2.135457  0  2.076038  0  0  2.228467  0  1.937709  0  0  1.472665  2.101024  0  2.112071  0
Pr  Pr1  1  0.29443834  0.80228266  0.76327350  1  0  2.303557  0  1.618432  0  0  2.135165  0  2.076245  0  0  2.228352  0  1.937622  0  0  1.472547  2.100851  0  2.112057  0
Pr  Pr2  1  0.79444566  0.80229798  0.73674009  1  0  2.303673  0  1.618293  0  0  2.135408  0  2.075914  0  0  2.22849  0  1.937475  0  0  1.472655  2.100962  0  2.111975  0
Pr  Pr3  1  0.70554231  0.19770506  0.23672774  1  0  2.303635  0  1.618251  0  0  2.135329  0  2.075983  0  0  2.228456  0  1.937461  0  0  1.472561  2.100928  0  2.111946  0
H  H4  1  0.15641360  0.10413597  0.07287350  1  0  0.432801  0  0.82848  0  0  0.413119  0  0.886399  0  0  0.421919  0  0.873603  0  0  0.320466  0.406802  0  0.894612  0
H  H5  1  0.34356160  0.89585483  0.57287872  1  0  0.432671  0  0.828579  0  0  0.41298  0  0.886573  0  0  0.421779  0  0.873779  0  0  0.320461  0.406662  0  0.894755  0
H  H6  1  0.84359790  0.89590048  0.92714599  1  0  0.432853  0  0.828234  0  0  0.413207  0  0.886232  0  0  0.422005  0  0.873437  0  0  0.320556  0.406887  0  0.894315  0
H  H7  1  0.65644694  0.10412481  0.42713807  1  0  0.432688  0  0.828523  0  0  0.413124  0  0.88636  0  0  0.421923  0  0.873565  0  0  0.32051  0.406803  0  0.894498  0
H  H8  1  0.96516982  0.06477672  0.09743493  1  0  0.451127  0  0.838145  0  0  0.423969  0  0.893917  0  0  0.434066  0  0.879301  0  0  0.306015  0.416867  0  0.904289  0
H  H9  1  0.53481430  0.93520610  0.59743264  1  0  0.451078  0  0.838185  0  0  0.423949  0  0.89392  0  0  0.434049  0  0.8793  0  0  0.306031  0.416871  0  0.904262  0
H  H10  1  0.03482304  0.93521227  0.90257239  1  0  0.451231  0  0.837996  0  0  0.424075  0  0.893773  0  0  0.434173  0  0.879154  0  0  0.306108  0.416998  0  0.904111  0
H  H11  1  0.46519642  0.06476528  0.40257806  1  0  0.451064  0  0.838201  0  0  0.423938  0  0.893919  0  0  0.434034  0  0.879305  0  0  0.306029  0.41686  0  0.90426  0
H  H12  1  0.16593122  0.99554590  0.41215614  1  0  0.436858  0  0.855859  0  0  0.409066  0  0.912902  0  0  0.418854  0  0.898659  0  0  0.308688  0.401888  0  0.923455  0
H  H13  1  0.33408011  0.00445542  0.91217422  1  0  0.436961  0  0.855677  0  0  0.409174  0  0.912707  0  0  0.418959  0  0.89847  0  0  0.308774  0.401995  0  0.923266  0
H  H14  1  0.83407564  0.00446685  0.58784104  1  0  0.436946  0  0.855758  0  0  0.409171  0  0.912755  0  0  0.418959  0  0.898513  0  0  0.308729  0.401993  0  0.923311  0
H  H15  1  0.66591049  0.99552055  0.08782093  1  0  0.436952  0  0.855717  0  0  0.409185  0  0.912699  0  0  0.41897  0  0.898461  0  0  0.308728  0.402009  0  0.923251  0
H  H16  1  0.24768255  0.16079419  0.46143627  1  0  0.445845  0  0.81776  0  0  0.422162  0  0.875512  0  0  0.430978  0  0.862763  0  0  0.323232  0.415768  0  0.88487  0
H  H17  1  0.25235529  0.83920139  0.96144503  1  0  0.446169  0  0.817572  0  0  0.422398  0  0.875292  0  0  0.431216  0  0.86254  0  0  0.323307  0.416006  0  0.884649  0
H  H18  1  0.75229523  0.83919233  0.53858458  1  0  0.446153  0  0.81748  0  0  0.422414  0  0.875222  0  0  0.431233  0  0.86247  0  0  0.323318  0.416025  0  0.884574  0
H  H19  1  0.74767516  0.16079616  0.03857514  1  0  0.445951  0  0.817782  0  0  0.422239  0  0.875461  0  0  0.431057  0  0.86271  0  0  0.323258  0.415842  0  0.884825  0
H  H20  1  0.66323787  0.48281945  0.96868694  1  0  0.126931  0  0.939761  0  0  0.134199  0  1.000245  0  0  0.138409  0  0.997509  0  0  0.113209  0.131282  0  1.00201  0
H  H21  1  0.83670980  0.51710017  0.46869202  1  0  0.126969  0  0.939889  0  0  0.134194  0  1.000372  0  0  0.138407  0  0.997629  0  0  0.113193  0.131279  0  1.002141  0
H  H22  1  0.33676994  0.51714007  0.03131362  1  0  0.126903  0  0.939629  0  0  0.134161  0  1.000127  0  0  0.138375  0  0.997384  0  0  0.113178  0.131241  0  1.001898  0
H  H23  1  0.16324844  0.48293709  0.53131260  1  0  0.126742  0  0.939724  0  0  0.134026  0  1.000206  0  0  0.13824  0  0.997462  0  0  0.113074  0.131107  0  1.001972  0
H  H24  1  0.81798064  0.60182676  0.31995957  1  0  0.134709  0  0.945202  0  0  0.138291  0  1.011973  0  0  0.14279  0  1.009299  0  0  0.118156  0.135047  0  1.014087  0
H  H25  1  0.68203516  0.39818542  0.81996515  1  0  0.134753  0  0.945128  0  0  0.138303  0  1.011926  0  0  0.142804  0  1.009252  0  0  0.118179  0.13507  0  1.014035  0
H  H26  1  0.18204889  0.39820035  0.68005181  1  0  0.134789  0  0.945096  0  0  0.138314  0  1.011919  0  0  0.142813  0  1.009246  0  0  0.118183  0.13508  0  1.014032  0
H  H27  1  0.31794915  0.60181060  0.18002053  1  0  0.134644  0  0.945258  0  0  0.138232  0  1.012028  0  0  0.142726  0  1.009365  0  0  0.118153  0.135001  0  1.014137  0
H  H28  1  0.58732763  0.78357956  0.30628913  1  0  0.139198  0  0.941569  0  0  0.143336  0  1.005248  0  0  0.147819  0  1.002591  0  0  0.118445  0.140121  0  1.007304  0
H  H29  1  0.91272360  0.21646949  0.80630132  1  0  0.139101  0  0.94157  0  0  0.143296  0  1.005175  0  0  0.147783  0  1.002507  0  0  0.118387  0.140082  0  1.007237  0
H  H30  1  0.41271416  0.21645947  0.69369655  1  0  0.139126  0  0.94172  0  0  0.143328  0  1.005318  0  0  0.147816  0  1.002651  0  0  0.118404  0.140112  0  1.007379  0
H  H31  1  0.08727088  0.78353371  0.19369316  1  0  0.139098  0  0.941712  0  0  0.143303  0  1.005307  0  0  0.147788  0  1.002642  0  0  0.118422  0.14009  0  1.007368  0
C  C32  1  0.70459301  0.76589750  0.31308505  1  0  -0.149732  0  3.603136  0  0  -0.168185  0  3.853488  0  0  -0.173145  0  3.865542  0  0  -0.068385  -0.164781  0  3.844985  0
C  C33  1  0.79543181  0.23412003  0.81309038  1  0  -0.149585  0  3.60329  0  0  -0.16809  0  3.853505  0  0  -0.173047  0  3.865557  0  0  -0.068259  -0.164686  0  3.845011  0
C  C34  1  0.29542159  0.23410111  0.68691889  1  0  -0.149653  0  3.603329  0  0  -0.168217  0  3.85356  0  0  -0.173173  0  3.865607  0  0  -0.068391  -0.16481  0  3.845061  0
C  C35  1  0.20456138  0.76588553  0.18691356  1  0  -0.149523  0  3.603409  0  0  -0.168102  0  3.853605  0  0  -0.173059  0  3.865657  0  0  -0.068373  -0.164696  0  3.845113  0
C  C36  1  0.50316705  0.33833401  0.08057178  1  0  0.751677  0  3.863167  0  0  0.711508  0  4.148401  0  0  0.747181  0  4.138453  0  0  0.230777  0.687376  0  4.156171  0
C  C37  1  0.99679031  0.66163116  0.58058421  1  0  0.75128  0  3.863735  0  0  0.71113  0  4.148856  0  0  0.746791  0  4.138938  0  0  0.230624  0.686999  0  4.156622  0
C  C38  1  0.49684319  0.66164683  0.91941931  1  0  0.751425  0  3.863506  0  0  0.711421  0  4.148473  0  0  0.74708  0  4.138563  0  0  0.230908  0.687348  0  4.156146  0
C  C39  1  0.00319240  0.33838496  0.41940215  1  0  0.751127  0  3.864137  0  0  0.711254  0  4.148898  0  0  0.746916  0  4.138986  0  0  0.230748  0.687176  0  4.156573  0
C  C40  1  0.86802992  0.90892825  0.30613349  1  0  0.731044  0  3.867678  0  0  0.68978  0  4.151328  0  0  0.725085  0  4.144002  0  0  0.223229  0.665705  0  4.158586  0
C  C41  1  0.63198767  0.09109212  0.80612494  1  0  0.731113  0  3.868122  0  0  0.68999  0  4.151529  0  0  0.725294  0  4.144212  0  0  0.223423  0.665923  0  4.158784  0
C  C42  1  0.13197807  0.09107386  0.69387653  1  0  0.730798  0  3.868223  0  0  0.689736  0  4.151545  0  0  0.725041  0  4.144226  0  0  0.223321  0.665674  0  4.158782  0
C  C43  1  0.36799943  0.90891813  0.19387832  1  0  0.730954  0  3.868114  0  0  0.690007  0  4.15125  0  0  0.725311  0  4.143926  0  0  0.223393  0.66593  0  4.158508  0
C  C44  1  0.53668876  0.47582058  0.30912010  1  0  0.714156  0  3.881574  0  0  0.676247  0  4.163102  0  0  0.710832  0  4.157474  0  0  0.215139  0.652603  0  4.169545  0
C  C45  1  0.96332333  0.52419345  0.80914439  1  0  0.714201  0  3.88175  0  0  0.676323  0  4.163199  0  0  0.710913  0  4.157577  0  0  0.215051  0.652674  0  4.16966  0
C  C46  1  0.46331753  0.52418034  0.69087640  1  0  0.714204  0  3.881584  0  0  0.676192  0  4.163241  0  0  0.710779  0  4.157625  0  0  0.215128  0.65255  0  4.169684  0
C  C47  1  0.03667396  0.47580031  0.19084873  1  0  0.714376  0  3.881589  0  0  0.676586  0  4.162917  0  0  0.711176  0  4.157284  0  0  0.215172  0.652945  0  4.169371  0
C  C48  1  0.70024372  0.61956872  0.31736355  1  0  -0.138699  0  3.596951  0  0  -0.159009  0  3.84945  0  0  -0.163979  0  3.861701  0  0  -0.064724  -0.155632  0  3.840893  0
C  C49  1  0.79977338  0.38044041  0.81737940  1  0  -0.138764  0  3.597009  0  0  -0.159079  0  3.849554  0  0  -0.164056  0  3.861804  0  0  -0.064802  -0.155715  0  3.841006  0
C  C50  1  0.29976802  0.38042868  0.68264174  1  0  -0.138709  0  3.596726  0  0  -0.158955  0  3.849283  0  0  -0.163929  0  3.861534  0  0  -0.064711  -0.155595  0  3.840735  0
C  C51  1  0.20021811  0.61956395  0.18262048  1  0  -0.138674  0  3.596979  0  0  -0.159045  0  3.849482  0  0  -0.164019  0  3.861731  0  0  -0.064706  -0.155688  0  3.840938  0
C  C52  1  0.54774647  0.45947663  0.00795358  1  0  -0.149787  0  3.610924  0  0  -0.168981  0  3.857149  0  0  -0.174179  0  3.869969  0  0  -0.073245  -0.165242  0  3.847629  0
C  C53  1  0.95222730  0.54050854  0.50794795  1  0  -0.149769  0  3.610872  0  0  -0.168852  0  3.856952  0  0  -0.174046  0  3.869777  0  0  -0.073236  -0.165115  0  3.847438  0
C  C54  1  0.45227135  0.54051609  0.99204765  1  0  -0.14955  0  3.610826  0  0  -0.168699  0  3.856921  0  0  -0.173893  0  3.86975  0  0  -0.073143  -0.164972  0  3.847377  0
C  C55  1  0.04775259  0.45951703  0.49203300  1  0  -0.149371  0  3.610541  0  0  -0.168623  0  3.856536  0  0  -0.17382  0  3.869365  0  0  -0.07309  -0.164895  0  3.846996  0
O  O56  1  0.60224127  0.26830340  0.09238692  1  0  -0.757631  0  2.006708  0  0  -0.705294  0  2.246397  0  0  -0.735206  0  2.231034  0  0  -0.389958  -0.687926  0  2.255228  0
O  O57  1  0.89771746  0.73166017  0.59241329  1  0  -0.757473  0  2.006712  0  0  -0.70513  0  2.246341  0  0  -0.735032  0  2.23099  0  0  -0.389905  -0.687755  0  2.255163  0
O  O58  1  0.39777833  0.73167750  0.90758659  1  0  -0.757532  0  2.006982  0  0  -0.705226  0  2.246608  0  0  -0.735142  0  2.231255  0  0  -0.390045  -0.68789  0  2.255401  0
O  O59  1  0.10226344  0.26835713  0.40757171  1  0  -0.757451  0  2.007154  0  0  -0.705246  0  2.246682  0  0  -0.735145  0  2.23134  0  0  -0.390021  -0.68789  0  2.255476  0
O  O60  1  0.36903526  0.31255124  0.12674800  1  0  -0.755331  0  2.066738  0  0  -0.700078  0  2.311143  0  0  -0.731806  0  2.298952  0  0  -0.398254  -0.6818  0  2.317744  0
O  O61  1  0.13091808  0.68739684  0.62676104  1  0  -0.755127  0  2.066888  0  0  -0.699867  0  2.311265  0  0  -0.731613  0  2.299079  0  0  -0.398142  -0.681602  0  2.317852  0
O  O62  1  0.63097711  0.68741068  0.87324648  1  0  -0.755304  0  2.066726  0  0  -0.700111  0  2.311043  0  0  -0.731842  0  2.298858  0  0  -0.398346  -0.681853  0  2.317609  0
O  O63  1  0.86904793  0.31260261  0.37323411  1  0  -0.755004  0  2.066766  0  0  -0.699869  0  2.311068  0  0  -0.731611  0  2.298888  0  0  -0.398155  -0.681614  0  2.31763  0
O  O64  1  0.01018397  0.90719261  0.32921416  1  0  -0.699646  0  1.964777  0  0  -0.645566  0  2.187032  0  0  -0.673679  0  2.175058  0  0  -0.346063  -0.628536  0  2.19447  0
O  O65  1  0.48983671  0.09283894  0.82920433  1  0  -0.699733  0  1.964658  0  0  -0.64572  0  2.186847  0  0  -0.673847  0  2.174874  0  0  -0.346203  -0.628701  0  2.19428  0
O  O66  1  0.98983265  0.09282376  0.67078911  1  0  -0.699585  0  1.964824  0  0  -0.645604  0  2.186967  0  0  -0.67372  0  2.174991  0  0  -0.346183  -0.628575  0  2.1944  0
O  O67  1  0.51014975  0.90717249  0.17079691  1  0  -0.699669  0  1.964632  0  0  -0.645732  0  2.18673  0  0  -0.673854  0  2.174751  0  0  -0.346155  -0.6287  0  2.194164  0
O  O68  1  0.39398837  0.48551379  0.30767528  1  0  -0.662953  0  1.94676  0  0  -0.615709  0  2.1702  0  0  -0.644319  0  2.161319  0  0  -0.356223  -0.598855  0  2.175234  0
O  O69  1  0.10603134  0.51450971  0.80773177  1  0  -0.66304  0  1.946882  0  0  -0.615789  0  2.170318  0  0  -0.644424  0  2.161435  0  0  -0.356162  -0.598946  0  2.175353  0
O  O70  1  0.60603087  0.51450851  0.69231040  1  0  -0.662968  0  1.946805  0  0  -0.615685  0  2.170317  0  0  -0.644308  0  2.161437  0  0  -0.356196  -0.59882  0  2.175336  0
O  O71  1  0.89395902  0.48547099  0.19228029  1  0  -0.663239  0  1.946702  0  0  -0.616043  0  2.170145  0  0  -0.644672  0  2.161259  0  0  -0.356301  -0.599189  0  2.175184  0
O  O72  1  0.86412959  0.03440920  0.27127033  1  0  -0.805387  0  2.120585  0  0  -0.744289  0  2.373777  0  0  -0.780515  0  2.361464  0  0  -0.424422  -0.725592  0  2.380443  0
O  O73  1  0.63588579  0.96560196  0.77126721  1  0  -0.80542  0  2.12073  0  0  -0.744346  0  2.373808  0  0  -0.780586  0  2.361509  0  0  -0.424525  -0.725668  0  2.380504  0
O  O74  1  0.13586046  0.96558923  0.72874173  1  0  -0.805281  0  2.120811  0  0  -0.744168  0  2.373742  0  0  -0.780427  0  2.361477  0  0  -0.424388  -0.725495  0  2.380422  0
O  O75  1  0.36410336  0.03440239  0.22874146  1  0  -0.805396  0  2.12081  0  0  -0.744377  0  2.373772  0  0  -0.780597  0  2.361469  0  0  -0.424547  -0.725689  0  2.38047  0
O  O76  1  0.54337244  0.33937453  0.30083333  1  0  -0.821137  0  2.080297  0  0  -0.762332  0  2.332474  0  0  -0.797554  0  2.318575  0  0  -0.434608  -0.744443  0  2.340275  0
O  O77  1  0.95664553  0.66063735  0.80083233  1  0  -0.821093  0  2.080365  0  0  -0.762294  0  2.33251  0  0  -0.797512  0  2.318589  0  0  -0.434552  -0.744398  0  2.340298  0
O  O78  1  0.45661667  0.66061917  0.69916385  1  0  -0.821204  0  2.080319  0  0  -0.762311  0  2.332463  0  0  -0.797543  0  2.318555  0  0  -0.43462  -0.744424  0  2.340242  0
O  O79  1  0.04336609  0.33936242  0.19915470  1  0  -0.821099  0  2.080317  0  0  -0.7623  0  2.332349  0  0  -0.797505  0  2.318434  0  0  -0.434544  -0.744402  0  2.340135  0
O  O80  1  0.06709176  0.04784321  0.11692642  1  0  -0.871413  0  1.811355  0  0  -0.826637  0  1.986126  0  0  -0.849306  0  1.954102  0  0  -0.620276  -0.813642  0  2.005064  0
O  O81  1  0.43287915  0.95210241  0.61694424  1  0  -0.871243  0  1.811617  0  0  -0.826478  0  1.986474  0  0  -0.849166  0  1.954429  0  0  -0.620278  -0.813515  0  2.005324  0
O  O82  1  0.93290199  0.95213988  0.88307482  1  0  -0.871493  0  1.811095  0  0  -0.826755  0  1.985945  0  0  -0.849426  0  1.953909  0  0  -0.620407  -0.813774  0  2.004717  0
O  O83  1  0.56714036  0.04789151  0.38306375  1  0  -0.871225  0  1.811623  0  0  -0.826562  0  1.986327  0  0  -0.84924  0  1.954288  0  0  -0.62027  -0.813591  0  2.005139  0
O  O84  1  0.27669955  0.08459759  0.42735710  1  0  -0.856329  0  1.824272  0  0  -0.801116  0  1.978918  0  0  -0.822817  0  1.947268  0  0  -0.573855  -0.788115  0  1.999868  0
O  O85  1  0.22332225  0.91540781  0.92738630  1  0  -0.856755  0  1.823912  0  0  -0.80146  0  1.978367  0  0  -0.823177  0  1.946715  0  0  -0.574012  -0.788473  0  1.999308  0
O  O86  1  0.72329769  0.91544349  0.57262249  1  0  -0.8567  0  1.823847  0  0  -0.801491  0  1.978471  0  0  -0.823191  0  1.946792  0  0  -0.573962  -0.788493  0  1.999416  0
O  O87  1  0.77668233  0.08455760  0.07261696  1  0  -0.856508  0  1.824172  0  0  -0.801266  0  1.978779  0  0  -0.822979  0  1.947131  0  0  -0.573893  -0.788263  0  1.999727  0
