# generated using pymatgen
data_Sm2CuH26C22(NO11)2
_symmetry_space_group_name_H-M   'P 1'
_cell_length_a   6.09664174
_cell_length_b   8.98919336
_cell_length_c   13.55307017
_cell_angle_alpha   85.05046125
_cell_angle_beta   86.00178604
_cell_angle_gamma   87.49647127
_symmetry_Int_Tables_number   1
_chemical_formula_structural   Sm2CuH26C22(NO11)2
_chemical_formula_sum   'Sm2 Cu1 H26 C22 N2 O22'
_cell_volume   737.65999520
_cell_formula_units_Z   1
loop_
 _symmetry_equiv_pos_site_id
 _symmetry_equiv_pos_as_xyz
  1  'x, y, z'
loop_
 _atom_site_type_symbol
 _atom_site_label
 _atom_site_symmetry_multiplicity
 _atom_site_fract_x
 _atom_site_fract_y
 _atom_site_fract_z
 _atom_site_occupancy
 _atom_site_hle17_ddec_charge
 _atom_site_hle17_ddec_spin_density
 _atom_site_hle17_ddec_sum_bond_order
 _atom_site_hle17_magmom
 _atom_site_hse06_10hf_ddec_charge
 _atom_site_hse06_10hf_ddec_spin_density
 _atom_site_hse06_10hf_ddec_sum_bond_order
 _atom_site_hse06_10hf_magmom
 _atom_site_hse06_ddec_charge
 _atom_site_hse06_ddec_spin_density
 _atom_site_hse06_ddec_sum_bond_order
 _atom_site_hse06_magmom
 _atom_site_pbe_cm5_charge
 _atom_site_pbe_ddec_charge
 _atom_site_pbe_ddec_spin_density
 _atom_site_pbe_ddec_sum_bond_order
 _atom_site_pbe_magmom
Sm  Sm0  1  0.39056930  0.65369290  0.10774321  1  2.298703  4.2e-05  1.544797  0.0  2.205336  3.3e-05  1.876937  0.0  2.247746  1.4e-05  1.837793  0.0  1.476597  2.103811  6e-05  2.033768  0.0
Sm  Sm1  1  0.60942370  0.34631451  0.89225513  1  2.298675  4.4e-05  1.544739  0.0  2.205291  3.4e-05  1.876881  0.0  2.2477  1.4e-05  1.837737  0.0  1.476578  2.103747  6e-05  2.033759  0.0
Cu  Cu2  1  0.00001393  0.99998671  0.49999956  1  0.838698  0.69305  1.840532  0.513  0.800395  0.775212  2.24734  0.621  0.89081  0.837446  2.176325  0.702  0.752888  0.744952  0.730916  2.295593  0.568
H  H3  1  0.05107444  0.77163625  0.25411578  1  0.431982  5.4e-05  0.873254  0.0  0.401103  4.2e-05  0.936157  0.0  0.413427  4e-05  0.918285  0.0  0.292617  0.392595  4.2e-05  0.948183  0.0
H  H4  1  0.94892682  0.22837085  0.74588600  1  0.432024  5.4e-05  0.873213  0.0  0.401129  4.2e-05  0.936145  0.0  0.413452  4e-05  0.918273  0.0  0.292651  0.392623  4.2e-05  0.948166  0.0
H  H5  1  0.90476020  0.79732276  0.15583344  1  0.434774  -2e-06  0.862887  0.0  0.408376  -1e-06  0.919221  0.0  0.418797  -1e-06  0.903948  0.0  0.303065  0.400635  -2e-06  0.930356  0.0
H  H6  1  0.09523745  0.20269428  0.84417037  1  0.434817  -1e-06  0.862848  0.0  0.408379  -1e-06  0.919252  0.0  0.418804  -1e-06  0.903968  0.0  0.303062  0.400636  -2e-06  0.930391  0.0
H  H7  1  0.84668943  0.57739929  0.18267778  1  0.443966  -2e-06  0.842078  0.0  0.418778  0.0  0.896702  0.0  0.429002  -1e-06  0.881438  0.0  0.310325  0.411379  0.0  0.907463  0.0
H  H8  1  0.15329682  0.42261274  0.81731916  1  0.443958  1e-06  0.842092  0.0  0.418782  -0.0  0.896688  0.0  0.429004  -0.0  0.881428  0.0  0.310354  0.411389  0.0  0.907442  0.0
H  H9  1  0.80792288  0.46382324  0.10389288  1  0.438119  -1e-06  0.864368  0.0  0.406803  -1e-06  0.929358  0.0  0.417266  -1e-06  0.914269  0.0  0.306151  0.399272  -1e-06  0.939867  0.0
H  H10  1  0.19207462  0.53619561  0.89609980  1  0.438146  -0.0  0.864326  0.0  0.406792  -0.0  0.929358  0.0  0.417275  -1e-06  0.914251  0.0  0.306126  0.399265  -1e-06  0.939862  0.0
H  H11  1  0.60068428  0.91007884  0.18920530  1  0.435191  1.2e-05  0.871635  0.0  0.403165  4.5e-05  0.938535  0.0  0.413651  1.4e-05  0.923388  0.0  0.302131  0.395893  7.9e-05  0.948743  0.0
H  H12  1  0.39930055  0.08992833  0.81079849  1  0.435211  1.1e-05  0.871618  0.0  0.403195  4.4e-05  0.938491  0.0  0.41368  1.4e-05  0.923346  0.0  0.302183  0.395918  7.9e-05  0.948702  0.0
H  H13  1  0.66420066  0.96015597  0.07625391  1  0.44048  -4e-06  0.856931  0.0  0.411791  -4e-06  0.916968  0.0  0.422669  -4e-06  0.901241  0.0  0.299756  0.403269  -5e-06  0.929213  0.0
H  H14  1  0.33577900  0.03985799  0.92374910  1  0.440474  -4e-06  0.856935  0.0  0.411794  -4e-06  0.916954  0.0  0.42267  -4e-06  0.901229  0.0  0.299773  0.403271  -5e-06  0.929203  0.0
H  H15  1  0.28710302  0.58948372  0.52961672  1  0.106089  9.8e-05  0.91541  0.0  0.121235  -5.6e-05  0.964105  0.0  0.123701  -6.5e-05  0.963198  0.0  0.117179  0.119255  -5e-05  0.965155  0.0
H  H16  1  0.71291053  0.41050000  0.47038240  1  0.106039  0.0001  0.915439  0.0  0.121215  -5.6e-05  0.964103  0.0  0.123683  -6.5e-05  0.963192  0.0  0.117135  0.119239  -5e-05  0.96515  0.0
H  H17  1  0.53239654  0.58108248  0.67116766  1  0.127143  0.000456  0.955549  0.001  0.133037  0.000411  1.018698  0.0  0.137309  0.000306  1.016369  0.0  0.119858  0.13023  0.000499  1.019545  0.001
H  H18  1  0.46760359  0.41890910  0.32883315  1  0.127199  0.000455  0.955534  0.001  0.13309  0.000411  1.018679  0.0  0.137362  0.000306  1.016352  0.0  0.119869  0.130284  0.000499  1.01952  0.001
H  H19  1  0.85188144  0.75065388  0.65683217  1  0.102997  0.000895  0.94076  0.002  0.109715  0.000784  1.004554  0.002  0.11275  0.000573  1.001212  0.001  0.127048  0.107115  0.000948  1.007523  0.002
H  H20  1  0.14813060  0.24932643  0.34316859  1  0.102972  0.000895  0.940777  0.002  0.109703  0.000783  1.004553  0.002  0.11274  0.000573  1.001208  0.001  0.127043  0.107106  0.000948  1.00751  0.002
H  H21  1  0.10721901  0.78632677  0.79197324  1  0.130702  9.3e-05  0.914225  0.0  0.14435  0.000102  0.971765  0.0  0.147993  7.1e-05  0.968922  0.0  0.112704  0.141498  0.000135  0.974562  0.0
H  H22  1  0.89277516  0.21369500  0.20802685  1  0.130737  9.8e-05  0.914011  0.0  0.144305  0.000102  0.971698  0.0  0.14794  7.1e-05  0.968858  0.0  0.112741  0.141456  0.000135  0.974473  0.0
H  H23  1  0.05770711  0.96524139  0.83378835  1  0.104069  -2.6e-05  0.959124  0.0  0.117419  -1e-05  1.019172  0.0  0.120018  -7e-06  1.01805  0.0  0.103264  0.115353  -1e-05  1.020653  0.0
H  H24  1  0.94227235  0.03477909  0.16621742  1  0.104022  -2.7e-05  0.959067  0.0  0.117405  -1e-05  1.019105  0.0  0.120009  -7e-06  1.017965  0.0  0.103247  0.115334  -1e-05  1.020582  0.0
H  H25  1  0.70121019  0.88321682  0.92302668  1  0.108561  6e-06  0.946256  0.0  0.121236  5e-06  1.008897  0.0  0.123886  2e-06  1.007907  0.0  0.106733  0.119413  6e-06  1.009541  0.0
H  H26  1  0.29876960  0.11679188  0.07697132  1  0.108577  5e-06  0.946403  0.0  0.121229  5e-06  1.009054  0.0  0.123879  3e-06  1.008063  0.0  0.106774  0.119409  6e-06  1.009694  0.0
H  H27  1  0.71047087  0.87237523  0.79351136  1  0.129099  -4.2e-05  0.928095  0.0  0.143742  -2.6e-05  0.985736  0.0  0.146444  -2.5e-05  0.984607  0.0  0.112573  0.141799  -2.6e-05  0.986845  0.0
H  H28  1  0.28952050  0.12763121  0.20648485  1  0.129072  -4.6e-05  0.928197  0.0  0.143715  -2.6e-05  0.985842  0.0  0.146418  -2.5e-05  0.984714  0.0  0.112558  0.14177  -2.7e-05  0.986956  0.0
C  C29  1  0.64130689  0.85742106  0.44290182  1  0.067737  -0.006702  3.716527  -0.004  0.062459  -0.002  3.961236  -0.001  0.066016  -0.003317  3.981126  -0.002  0.107195  0.059589  -0.001031  3.948699  0.0
C  C30  1  0.35871164  0.14256141  0.55709867  1  0.067925  -0.006729  3.716207  -0.004  0.062734  -0.002001  3.96104  -0.001  0.066296  -0.003324  3.980922  -0.002  0.107196  0.059803  -0.001031  3.948587  0.0
C  C31  1  0.47133351  0.75878209  0.44118559  1  -0.077064  0.004076  3.680099  0.004  -0.064598  0.001707  3.92283  0.002  -0.072364  0.001681  3.941758  0.002  0.006324  -0.061455  0.001717  3.91253  0.002
C  C32  1  0.52868181  0.24119822  0.55881433  1  -0.077024  0.004094  3.679686  0.004  -0.06488  0.001708  3.92288  0.002  -0.072651  0.001684  3.941814  0.002  0.006387  -0.061721  0.001717  3.912612  0.002
C  C33  1  0.42680616  0.66177459  0.52616159  1  -0.010883  -0.01016  3.674077  -0.006  -0.038633  -0.004347  3.926621  -0.002  -0.034069  -0.00489  3.942405  -0.003  -0.054339  -0.042555  -0.003886  3.917067  -0.002
C  C34  1  0.57320746  0.33820694  0.47383686  1  -0.010823  -0.010186  3.674042  -0.006  -0.038521  -0.00435  3.926684  -0.002  -0.033953  -0.004894  3.94247  -0.003  -0.054336  -0.042446  -0.003887  3.917131  -0.002
C  C35  1  0.56130198  0.65736970  0.60518604  1  -0.07986  0.008086  3.657707  0.009  -0.095677  0.003895  3.912214  0.005  -0.100348  0.00351  3.927579  0.004  -0.065743  -0.091865  0.004169  3.901513  0.005
C  C36  1  0.43869835  0.34261630  0.39481493  1  -0.079945  0.0081  3.657891  0.009  -0.095734  0.003895  3.912369  0.005  -0.100411  0.003512  3.927741  0.004  -0.065756  -0.091922  0.004168  3.901661  0.005
C  C37  1  0.73733920  0.75251221  0.59863029  1  0.147863  -0.009086  3.640969  -0.006  0.11549  -0.002653  3.900193  -0.002  0.126272  -0.00425  3.914825  -0.003  0.059853  0.108354  -0.001387  3.890649  -0.001
C  C38  1  0.26267291  0.24746586  0.40137053  1  0.147787  -0.009104  3.64096  -0.006  0.115428  -0.002651  3.900186  -0.002  0.126211  -0.004254  3.914812  -0.003  0.059848  0.108299  -0.001387  3.890629  -0.001
C  C39  1  0.68790658  0.98346688  0.36464964  1  0.619877  -0.006764  3.897505  -0.006  0.571709  -0.00097  4.200413  -0.001  0.607241  -0.001165  4.195039  -0.001  0.213426  0.547516  -0.000867  4.203576  -0.001
C  C40  1  0.31210691  0.01651987  0.63535457  1  0.619729  -0.006756  3.897374  -0.006  0.571566  -0.000971  4.200305  -0.001  0.607096  -0.001163  4.194933  -0.001  0.213323  0.54739  -0.000867  4.203481  -0.001
C  C41  1  0.33806788  0.75244847  0.35208050  1  0.698099  0.000751  3.899955  0.001  0.645827  0.000621  4.207171  0.001  0.681723  0.000359  4.196184  0.0  0.224921  0.62156  0.000974  4.211705  0.001
C  C42  1  0.66194092  0.24753061  0.64792262  1  0.698007  0.000749  3.89962  0.001  0.645826  0.00062  4.206838  0.001  0.681722  0.000358  4.195856  0.0  0.224769  0.621549  0.000974  4.211396  0.001
C  C43  1  0.14180558  0.79292195  0.94559754  1  0.719971  -1.2e-05  3.78809  0.0  0.672164  -1.4e-05  4.087883  0.0  0.705099  -3e-06  4.080763  0.0  0.214609  0.650411  4e-06  4.086268  0.0
C  C44  1  0.85818234  0.20709077  0.05440597  1  0.719989  4e-06  3.787704  0.0  0.672027  -1.6e-05  4.08773  0.0  0.704961  -3e-06  4.080612  0.0  0.214452  0.650272  4e-06  4.086113  0.0
C  C45  1  0.02898460  0.84704340  0.85306247  1  -0.240175  4.7e-05  3.650743  0.0  -0.276066  4.7e-05  3.89303  0.0  -0.281118  2.1e-05  3.899285  0.0  -0.160633  -0.27354  7.4e-05  3.890781  0.0
C  C46  1  0.97100480  0.15297381  0.14694013  1  -0.240157  1.6e-05  3.650601  0.0  -0.276015  4.9e-05  3.893008  0.0  -0.281065  1.9e-05  3.899271  0.0  -0.160716  -0.273474  7.3e-05  3.89073  0.0
C  C47  1  0.78080465  0.82378679  0.86225358  1  -0.241458  -6.3e-05  3.628296  0.0  -0.280034  -2e-05  3.872649  0.0  -0.285448  -2.2e-05  3.87918  0.0  -0.156218  -0.276679  -1.6e-05  3.869488  0.0
C  C48  1  0.21918181  0.17621952  0.13774575  1  -0.241412  -2e-05  3.628635  0.0  -0.279947  -2.1e-05  3.872944  0.0  -0.285362  -1.9e-05  3.879472  0.0  -0.156187  -0.276604  -1.6e-05  3.869789  0.0
C  C49  1  0.72177461  0.66205290  0.87589826  1  0.75378  1.8e-05  3.805439  0.0  0.709895  4e-06  4.10754  0.0  0.744382  1e-05  4.096891  0.0  0.219769  0.686791  1.1e-05  4.106274  0.0
C  C50  1  0.27822180  0.33795202  0.12410374  1  0.753818  1e-05  3.805366  0.0  0.709922  3e-06  4.107494  0.0  0.74441  9e-06  4.096846  0.0  0.219754  0.686817  1.1e-05  4.106233  0.0
N  N51  1  0.77021444  0.85224731  0.52034788  1  -0.303773  0.070267  3.382508  0.091  -0.261108  0.049002  3.683874  0.067  -0.290128  0.040573  3.704017  0.059  -0.350589  -0.242951  0.05352  3.67115  0.07
N  N52  1  0.22980277  0.14772619  0.47965365  1  -0.303818  0.070279  3.382335  0.091  -0.261203  0.049004  3.683749  0.067  -0.290217  0.040577  3.703879  0.059  -0.350613  -0.243026  0.053521  3.671037  0.07
O  O53  1  0.03359117  0.74243318  0.18419166  1  -0.944037  7.4e-05  1.912327  0.0  -0.894192  3.1e-05  2.094597  0.0  -0.913679  2.5e-05  2.060203  0.0  -0.634054  -0.870829  5.4e-05  2.121991  0.0
O  O54  1  0.96640660  0.25757963  0.81580858  1  -0.944103  7.1e-05  1.912162  0.0  -0.894255  3.1e-05  2.094503  0.0  -0.913729  2.4e-05  2.060086  0.0  -0.634094  -0.870886  5.4e-05  2.121899  0.0
O  O55  1  0.83941942  0.07091120  0.38252790  1  -0.568373  0.086538  2.059559  0.12  -0.54189  0.058504  2.34574  0.088  -0.584715  0.045108  2.339565  0.073  -0.314305  -0.513799  0.06724  2.350307  0.096
O  O56  1  0.16060749  0.92906677  0.61747170  1  -0.568438  0.086546  2.059588  0.12  -0.54191  0.058511  2.345719  0.088  -0.584733  0.045112  2.339539  0.073  -0.314268  -0.513831  0.067239  2.350324  0.096
O  O57  1  0.73059107  0.52338485  0.15533448  1  -0.906662  5e-06  1.852341  0.0  -0.87126  1e-05  2.040877  0.0  -0.888881  7e-06  2.009238  0.0  -0.645548  -0.849728  2.6e-05  2.068105  0.0
O  O58  1  0.26940163  0.47662967  0.84465701  1  -0.906671  2e-06  1.852314  0.0  -0.871218  1e-05  2.040932  0.0  -0.888865  6e-06  2.009247  0.0  -0.645549  -0.849676  2.6e-05  2.068134  0.0
O  O59  1  0.57607995  0.00144472  0.28997233  1  -0.589725  0.013557  2.000882  0.018  -0.539818  0.006963  2.224131  0.01  -0.566204  0.003186  2.217511  0.005  -0.296829  -0.520881  0.011158  2.227822  0.015
O  O60  1  0.42392344  0.99854879  0.71003275  1  -0.589588  0.013554  2.000928  0.018  -0.539706  0.006964  2.224197  0.01  -0.566095  0.003186  2.21758  0.005  -0.296746  -0.520768  0.011156  2.227891  0.015
O  O61  1  0.63635287  0.86877235  0.12317256  1  -0.923255  5e-05  1.882941  0.0  -0.878294  3.7e-05  2.071571  0.0  -0.897965  2e-06  2.039195  0.0  -0.616947  -0.855318  7.3e-05  2.098332  0.0
O  O62  1  0.36362845  0.13124057  0.87682895  1  -0.923289  5.2e-05  1.882937  0.0  -0.878314  3.7e-05  2.071582  0.0  -0.897981  3e-06  2.039195  0.0  -0.617013  -0.855321  7.4e-05  2.098365  0.0
O  O63  1  0.14005317  0.80007376  0.35886754  1  -0.613567  -0.000123  1.965559  0.001  -0.571756  -0.000649  2.196683  0.0  -0.599435  -0.001011  2.185808  0.0  -0.301408  -0.552777  -0.000221  2.203879  0.001
O  O64  1  0.85996339  0.19991868  0.64113418  1  -0.613529  -0.000121  1.965374  0.001  -0.571699  -0.000647  2.196452  0.0  -0.599377  -0.001011  2.18557  0.0  -0.301349  -0.552715  -0.00022  2.203661  0.001
O  O65  1  0.43508787  0.69051547  0.27899009  1  -0.729225  0.00129  2.014261  0.002  -0.679283  0.000841  2.260581  0.001  -0.705237  0.00051  2.249931  0.001  -0.399548  -0.651971  0.001188  2.269364  0.001
O  O66  1  0.56491869  0.30947967  0.72100597  1  -0.729199  0.001292  2.014162  0.002  -0.679249  0.00084  2.260436  0.001  -0.705201  0.000511  2.249779  0.001  -0.399461  -0.651928  0.001188  2.269227  0.001
O  O67  1  0.26814456  0.87621676  0.98651237  1  -0.705771  1.7e-05  1.976263  0.0  -0.654977  1.3e-05  2.210004  0.0  -0.680451  1e-06  2.200743  0.0  -0.348744  -0.630207  1.2e-05  2.216371  0.0
O  O68  1  0.73184166  0.12379728  0.01348821  1  -0.705725  1.5e-05  1.976184  0.0  -0.654885  1.3e-05  2.210022  0.0  -0.680348  2e-06  2.200735  0.0  -0.348618  -0.630113  1.2e-05  2.216392  0.0
O  O69  1  0.11348754  0.65838492  0.98260530  1  -0.698294  9e-06  2.007117  0.0  -0.638672  9e-06  2.235784  0.0  -0.663612  4e-06  2.226766  0.0  -0.361578  -0.614208  1.2e-05  2.241942  0.0
O  O70  1  0.88650540  0.34162374  0.01739079  1  -0.698386  8e-06  2.00694  0.0  -0.638646  9e-06  2.235595  0.0  -0.663578  3e-06  2.226573  0.0  -0.361543  -0.614178  1.2e-05  2.241756  0.0
O  O71  1  0.59549404  0.61501188  0.95108873  1  -0.830722  -2e-06  2.12835  0.0  -0.785837  1e-06  2.392486  0.0  -0.811168  -4e-06  2.381528  0.0  -0.434515  -0.752193  3e-06  2.399263  0.0
O  O72  1  0.40448734  0.38499802  0.04890770  1  -0.830805  -2e-06  2.128311  0.0  -0.785924  1e-06  2.392458  0.0  -0.811256  -4e-06  2.381499  0.0  -0.434541  -0.752285  3e-06  2.399245  0.0
O  O73  1  0.79010324  0.57192918  0.81234054  1  -0.695653  2.1e-05  1.931753  0.0  -0.651676  3.5e-05  2.167523  0.0  -0.675938  2.7e-05  2.157565  0.0  -0.371523  -0.627207  4.1e-05  2.174605  0.0
O  O74  1  0.20990122  0.42808021  0.18765958  1  -0.695672  2.3e-05  1.93171  0.0  -0.651676  3.5e-05  2.167475  0.0  -0.675939  2.6e-05  2.157519  0.0  -0.371504  -0.627208  4e-05  2.174552  0.0
