# generated using pymatgen
data_ZnH28C31(NO2)2
_symmetry_space_group_name_H-M   'P 1'
_cell_length_a   8.51746774
_cell_length_b   10.93894852
_cell_length_c   14.38794691
_cell_angle_alpha   102.29872648
_cell_angle_beta   107.21287492
_cell_angle_gamma   90.00669237
_symmetry_Int_Tables_number   1
_chemical_formula_structural   ZnH28C31(NO2)2
_chemical_formula_sum   'Zn2 H56 C62 N4 O8'
_cell_volume   1248.25999120
_cell_formula_units_Z   2
loop_
 _symmetry_equiv_pos_site_id
 _symmetry_equiv_pos_as_xyz
  1  'x, y, z'
loop_
 _atom_site_type_symbol
 _atom_site_label
 _atom_site_symmetry_multiplicity
 _atom_site_fract_x
 _atom_site_fract_y
 _atom_site_fract_z
 _atom_site_occupancy
 _atom_site_hle17_bader_spin_density
 _atom_site_hle17_ddec_charge
 _atom_site_hle17_ddec_spin_density
 _atom_site_hle17_ddec_sum_bond_order
 _atom_site_hle17_magmom
 _atom_site_hse06_10hf_bader_spin_density
 _atom_site_hse06_10hf_ddec_charge
 _atom_site_hse06_10hf_ddec_spin_density
 _atom_site_hse06_10hf_ddec_sum_bond_order
 _atom_site_hse06_10hf_magmom
 _atom_site_hse06_bader_spin_density
 _atom_site_hse06_ddec_charge
 _atom_site_hse06_ddec_spin_density
 _atom_site_hse06_ddec_sum_bond_order
 _atom_site_hse06_magmom
 _atom_site_pbe_bader_spin_density
 _atom_site_pbe_cm5_charge
 _atom_site_pbe_ddec_charge
 _atom_site_pbe_ddec_spin_density
 _atom_site_pbe_ddec_sum_bond_order
 _atom_site_pbe_magmom
Zn  Zn0  1  0.71734827  0.16918006  0.68354664  1  0  0.988967  0  1.830699  0  0  0.798834  0  2.290206  0  0  0.850695  0  2.232955  0  0  0.688312  0.762656  0  2.329508  0
Zn  Zn1  1  0.96623432  0.66912474  0.68355707  1  0  0.988737  0  1.831492  0  0  0.798318  0  2.291203  0  0  0.850162  0  2.233953  0  0  0.688569  0.762209  0  2.330513  0
H  H2  1  0.69832436  0.83427598  0.36349925  1  0  0.10229  0  0.964789  0  0  0.11025  0  1.033607  0  0  0.113403  0  1.03154  0  0  0.104585  0.107933  0  1.035217  0
H  H3  1  0.66485197  0.33418094  0.36355746  1  0  0.102493  0  0.965558  0  0  0.110636  0  1.03404  0  0  0.113682  0  1.032124  0  0  0.10515  0.108417  0  1.035472  0
H  H4  1  0.89373269  0.21653168  0.44429603  1  0  0.104516  0  0.971305  0  0  0.111984  0  1.039467  0  0  0.115582  0  1.036555  0  0  0.10374  0.109406  0  1.041559  0
H  H5  1  0.55090156  0.71654826  0.44445280  1  0  0.104153  0  0.971511  0  0  0.112145  0  1.039072  0  0  0.11564  0  1.036289  0  0  0.103756  0.109631  0  1.041091  0
H  H6  1  0.95481219  0.19320252  0.28208782  1  0  0.091133  0  0.950642  0  0  0.10499  0  1.007571  0  0  0.108107  0  1.005936  0  0  0.101597  0.102741  0  1.008857  0
H  H7  1  0.32780104  0.69347064  0.28221705  1  0  0.09204  0  0.948894  0  0  0.105322  0  1.006315  0  0  0.108424  0  1.004723  0  0  0.101738  0.103084  0  1.007572  0
H  H8  1  0.97985699  0.12020071  0.10026716  1  0  0.085035  0  0.983514  0  0  0.094912  0  1.048656  0  0  0.097665  0  1.047526  0  0  0.099056  0.09293  0  1.049525  0
H  H9  1  0.12078454  0.62056726  0.10026292  1  0  0.085477  0  0.982576  0  0  0.095204  0  1.047916  0  0  0.098054  0  1.046683  0  0  0.099126  0.093176  0  1.048846  0
H  H10  1  0.98158085  0.00707616  0.93094046  1  0  0.106096  0  0.979419  0  0  0.110099  0  1.053146  0  0  0.114284  0  1.049414  0  0  0.101601  0.107046  0  1.055909  0
H  H11  1  0.94927608  0.50733919  0.93107248  1  0  0.105981  0  0.979122  0  0  0.110307  0  1.052484  0  0  0.114477  0  1.048782  0  0  0.101827  0.107231  0  1.055284  0
H  H12  1  0.79504157  0.66523636  0.97465857  1  0  0.100564  0  0.957387  0  0  0.109879  0  1.02455  0  0  0.113194  0  1.022255  0  0  0.104143  0.107491  0  1.026229  0
H  H13  1  0.17926623  0.16544437  0.97473628  1  0  0.100606  0  0.957532  0  0  0.109884  0  1.024726  0  0  0.113234  0  1.022369  0  0  0.103954  0.107478  0  1.026449  0
H  H14  1  0.86441031  0.59564683  0.13755968  1  0  0.066904  0  0.945271  0  0  0.087531  0  1.006719  0  0  0.087587  0  1.008281  0  0  0.089351  0.087402  0  1.005746  0
H  H15  1  0.27280623  0.09589372  0.13773534  1  0  0.066826  0  0.946168  0  0  0.087056  0  1.00791  0  0  0.087124  0  1.009431  0  0  0.089173  0.086941  0  1.006936  0
H  H16  1  0.01026407  0.70872151  0.22681689  1  0  0.059659  0  0.938989  0  0  0.077796  0  1.002822  0  0  0.078418  0  1.003183  0  0  0.085196  0.077283  0  1.002639  0
H  H17  1  0.21660643  0.20903839  0.22711825  1  0  0.060593  0  0.938987  0  0  0.07817  0  1.003174  0  0  0.078805  0  1.003513  0  0  0.08565  0.077681  0  1.002973  0
H  H18  1  0.72657926  0.57844171  0.26732731  1  0  0.051195  0  0.979983  0  0  0.067732  0  1.047841  0  0  0.067187  0  1.050812  0  0  0.082011  0.068024  0  1.045907  0
H  H19  1  0.54065679  0.07858417  0.26730034  1  0  0.050964  0  0.979084  0  0  0.067553  0  1.046806  0  0  0.067017  0  1.049771  0  0  0.08176  0.067842  0  1.044882  0
H  H20  1  0.87459317  0.69000505  0.35580629  1  0  0.048294  0  0.966621  0  0  0.068325  0  1.029031  0  0  0.067803  0  1.031242  0  0  0.081373  0.068643  0  1.027541  0
H  H21  1  0.48135272  0.19013297  0.35586729  1  0  0.048699  0  0.966112  0  0  0.068481  0  1.028673  0  0  0.068022  0  1.030842  0  0  0.081337  0.06875  0  1.027227  0
H  H22  1  0.95030078  0.47391277  0.37108198  1  0  0.09718  0  0.978345  0  0  0.116749  0  1.042436  0  0  0.117981  0  1.042798  0  0  0.080865  0.115811  0  1.042225  0
H  H23  1  0.42044787  0.97407648  0.37111622  1  0  0.097555  0  0.977677  0  0  0.116457  0  1.042635  0  0  0.117636  0  1.043047  0  0  0.081003  0.115556  0  1.042373  0
H  H24  1  0.10112407  0.55018512  0.33573192  1  0  0.084706  0  0.970506  0  0  0.104884  0  1.035803  0  0  0.105653  0  1.037291  0  0  0.076607  0.10431  0  1.034776  0
H  H25  1  0.23450214  0.05064598  0.33579736  1  0  0.0843  0  0.971876  0  0  0.104675  0  1.036864  0  0  0.105399  0  1.038401  0  0  0.076734  0.104127  0  1.035802  0
H  H26  1  0.95565083  0.43632410  0.24532092  1  0  0.085621  0  0.958496  0  0  0.107668  0  1.020668  0  0  0.108606  0  1.021315  0  0  0.079228  0.106952  0  1.02024  0
H  H27  1  0.28930117  0.93668695  0.24535532  1  0  0.085461  0  0.957748  0  0  0.107266  0  1.020314  0  0  0.108144  0  1.021012  0  0  0.078999  0.10656  0  1.019882  0
H  H28  1  0.53932451  0.70078376  0.17907977  1  0  0.071254  0  0.9531  0  0  0.090098  0  1.015026  0  0  0.090354  0  1.016691  0  0  0.088376  0.089832  0  1.013953  0
H  H29  1  0.63952914  0.20089530  0.17909408  1  0  0.070929  0  0.953176  0  0  0.090046  0  1.014895  0  0  0.090266  0  1.016628  0  0  0.088441  0.089817  0  1.013772  0
H  H30  1  0.57679035  0.65018498  0.06314150  1  0  0.067519  0  0.928509  0  0  0.088335  0  0.986758  0  0  0.089102  0  0.987383  0  0  0.088309  0.087743  0  0.986377  0
H  H31  1  0.48604276  0.15004527  0.06321840  1  0  0.067988  0  0.928695  0  0  0.088877  0  0.986733  0  0  0.089627  0  0.987382  0  0  0.088419  0.088282  0  0.98634  0
H  H32  1  0.48052395  0.91215330  0.14617682  1  0  0.056556  0  0.960904  0  0  0.078728  0  1.019419  0  0  0.078619  0  1.021467  0  0  0.085967  0.078723  0  1.018088  0
H  H33  1  0.66500469  0.41216494  0.14588341  1  0  0.056292  0  0.960831  0  0  0.077809  0  1.020001  0  0  0.077646  0  1.022097  0  0  0.085968  0.077819  0  1.018678  0
H  H34  1  0.54222930  0.87527756  0.03826293  1  0  0.0448  0  0.965211  0  0  0.063348  0  1.028306  0  0  0.063761  0  1.029278  0  0  0.080161  0.062989  0  1.027696  0
H  H35  1  0.49564846  0.37485711  0.03786281  1  0  0.04534  0  0.965298  0  0  0.063017  0  1.029399  0  0  0.063424  0  1.030351  0  0  0.080111  0.0627  0  1.028756  0
H  H36  1  0.24234593  0.86313485  0.98607000  1  0  0.08812  0  0.971431  0  0  0.109135  0  1.035239  0  0  0.109813  0  1.036218  0  0  0.080126  0.108582  0  1.034609  0
H  H37  1  0.74387380  0.36274138  0.98611804  1  0  0.08954  0  0.970184  0  0  0.109965  0  1.03442  0  0  0.110605  0  1.035424  0  0  0.080775  0.109432  0  1.03377  0
H  H38  1  0.23243696  0.76437877  0.06643460  1  0  0.083936  0  0.977358  0  0  0.105352  0  1.040912  0  0  0.106  0  1.041941  0  0  0.079303  0.104809  0  1.040285  0
H  H39  1  0.83380505  0.26414658  0.06671845  1  0  0.083471  0  0.978309  0  0  0.104284  0  1.04261  0  0  0.10489  0  1.043657  0  0  0.07866  0.103757  0  1.041985  0
H  H40  1  0.30109365  0.70675702  0.96150183  1  0  0.086774  0  0.964836  0  0  0.108123  0  1.027408  0  0  0.108755  0  1.029324  0  0  0.077925  0.10764  0  1.026105  0
H  H41  1  0.66051890  0.20639493  0.96162045  1  0  0.087003  0  0.964669  0  0  0.107997  0  1.027533  0  0  0.108631  0  1.029437  0  0  0.077901  0.107514  0  1.026235  0
H  H42  1  0.60244850  0.34263593  0.53498561  1  0  0.087838  0  0.94677  0  0  0.095456  0  1.011231  0  0  0.097353  0  1.009934  0  0  0.121754  0.093979  0  1.012314  0
H  H43  1  0.93265871  0.84269433  0.53489721  1  0  0.087807  0  0.944864  0  0  0.095899  0  1.009076  0  0  0.097831  0  1.007738  0  0  0.12179  0.094365  0  1.010208  0
H  H44  1  0.33702957  0.43667421  0.46001145  1  0  0.10686  0  0.958129  0  0  0.116021  0  1.018771  0  0  0.118063  0  1.020498  0  0  0.109451  0.114536  0  1.017745  0
H  H45  1  0.12329296  0.93662955  0.45997911  1  0  0.10694  0  0.957188  0  0  0.116243  0  1.017756  0  0  0.118283  0  1.019471  0  0  0.109504  0.114769  0  1.01668  0
H  H46  1  0.08444763  0.38069943  0.50484906  1  0  0.114816  0  0.963584  0  0  0.125123  0  1.02313  0  0  0.128182  0  1.020327  0  0  0.112144  0.122824  0  1.025252  0
H  H47  1  0.42071187  0.88074267  0.50497905  1  0  0.1147  0  0.965349  0  0  0.125895  0  1.023773  0  0  0.128962  0  1.02096  0  0  0.112454  0.123573  0  1.025906  0
H  H48  1  0.10216413  0.22885539  0.61159955  1  0  0.126784  0  0.952935  0  0  0.134587  0  1.013996  0  0  0.138506  0  1.011974  0  0  0.113422  0.131722  0  1.015618  0
H  H49  1  0.50954172  0.72895929  0.61179992  1  0  0.126495  0  0.953847  0  0  0.134601  0  1.014338  0  0  0.138422  0  1.012417  0  0  0.113385  0.131788  0  1.015915  0
H  H50  1  0.14456450  0.11224674  0.71543068  1  0  0.124952  0  0.952049  0  0  0.133121  0  1.0128  0  0  0.136388  0  1.011964  0  0  0.114042  0.130755  0  1.013542  0
H  H51  1  0.57096161  0.61246842  0.71537477  1  0  0.124907  0  0.952941  0  0  0.133116  0  1.013554  0  0  0.136338  0  1.012804  0  0  0.114307  0.130743  0  1.014316  0
H  H52  1  0.20869280  0.96317117  0.82544506  1  0  0.117295  0  0.936109  0  0  0.12662  0  0.996171  0  0  0.130135  0  0.992847  0  0  0.114539  0.123972  0  0.998712  0
H  H53  1  0.61689358  0.46312434  0.82513919  1  0  0.116849  0  0.936393  0  0  0.125807  0  0.996995  0  0  0.129234  0  0.993787  0  0  0.114333  0.123215  0  0.999443  0
H  H54  1  0.50011342  0.89195218  0.87662925  1  0  0.105734  0  0.949707  0  0  0.118058  0  1.005201  0  0  0.120532  0  1.005957  0  0  0.109417  0.116253  0  1.004866  0
H  H55  1  0.37676863  0.39165660  0.87633579  1  0  0.106043  0  0.95007  0  0  0.118548  0  1.005255  0  0  0.12096  0  1.006059  0  0  0.109625  0.116789  0  1.004845  0
H  H56  1  0.71007229  0.97680545  0.81110124  1  0  0.091386  0  0.954349  0  0  0.097951  0  1.020873  0  0  0.09995  0  1.01955  0  0  0.121805  0.096398  0  1.021917  0
H  H57  1  0.10129892  0.47666380  0.81113999  1  0  0.09226  0  0.952134  0  0  0.098102  0  1.019417  0  0  0.100083  0  1.018142  0  0  0.121861  0.096559  0  1.020417  0
C  C58  1  0.76010610  0.90921917  0.34553378  1  0  -0.110164  0  3.718387  0  0  -0.139747  0  3.966002  0  0  -0.139112  0  3.984466  0  0  -0.081306  -0.139965  0  3.953499  0
C  C59  1  0.58537408  0.40922874  0.34551147  1  0  -0.111504  0  3.719902  0  0  -0.141393  0  3.967659  0  0  -0.140683  0  3.986147  0  0  -0.081783  -0.141652  0  3.955152  0
C  C60  1  0.79953412  0.02539226  0.41431741  1  0  -0.070486  0  3.771718  0  0  -0.04645  0  4.005565  0  0  -0.054613  0  4.028822  0  0  -0.02062  -0.041167  0  3.989862  0
C  C61  1  0.61479314  0.52534571  0.41432444  1  0  -0.07024  0  3.77058  0  0  -0.046387  0  4.004966  0  0  -0.05455  0  4.028175  0  0  -0.020723  -0.041106  0  3.989313  0
C  C62  1  0.87067518  0.12642468  0.39121241  1  0  -0.082643  0  3.748095  0  0  -0.112773  0  4.008792  0  0  -0.11193  0  4.027726  0  0  -0.087884  -0.113111  0  3.995914  0
C  C63  1  0.52080303  0.62649020  0.39130014  1  0  -0.08284  0  3.748829  0  0  -0.113251  0  4.009347  0  0  -0.112338  0  4.028327  0  0  -0.088035  -0.113637  0  3.996437  0
C  C64  1  0.90371331  0.11313199  0.30038215  1  0  -0.1144  0  3.764316  0  0  -0.132598  0  4.021567  0  0  -0.134922  0  4.039413  0  0  -0.090681  -0.131041  0  4.009411  0
C  C65  1  0.39709589  0.61332474  0.30042721  1  0  -0.114776  0  3.764658  0  0  -0.13221  0  4.021828  0  0  -0.134532  0  4.039646  0  0  -0.090568  -0.130652  0  4.009671  0
C  C66  1  0.94022673  0.02104980  0.07393007  1  0  -0.09825  0  3.750745  0  0  -0.116145  0  4.003437  0  0  -0.118903  0  4.023822  0  0  -0.087494  -0.114251  0  3.989518  0
C  C67  1  0.13405384  0.52141362  0.07395611  1  0  -0.098999  0  3.747438  0  0  -0.117035  0  4.000441  0  0  -0.119862  0  4.020774  0  0  -0.0877  -0.11511  0  3.986566  0
C  C68  1  0.94235381  0.95781277  0.97954240  1  0  -0.086943  0  3.746496  0  0  -0.115096  0  4.003959  0  0  -0.114907  0  4.023233  0  0  -0.087875  -0.11497  0  3.99082  0
C  C69  1  0.03723917  0.45811042  0.97962890  1  0  -0.08753  0  3.745628  0  0  -0.115922  0  4.002476  0  0  -0.115753  0  4.0218  0  0  -0.088298  -0.115794  0  3.98935  0
C  C70  1  0.89285831  0.82936800  0.94465365  1  0  -0.069114  0  3.78555  0  0  -0.04353  0  4.017755  0  0  -0.051861  0  4.041728  0  0  -0.020371  -0.038117  0  4.001514  0
C  C71  1  0.05157883  0.32963349  0.94474116  1  0  -0.06912  0  3.785995  0  0  -0.042644  0  4.016784  0  0  -0.050957  0  4.040766  0  0  -0.021365  -0.03724  0  4.000527  0
C  C72  1  0.83590629  0.76414487  0.00383851  1  0  -0.112258  0  3.724053  0  0  -0.1457  0  3.975431  0  0  -0.145619  0  3.994854  0  0  -0.085894  -0.14553  0  3.962195  0
C  C73  1  0.16778093  0.26439711  0.00385731  1  0  -0.112662  0  3.724306  0  0  -0.146387  0  3.975182  0  0  -0.146305  0  3.994572  0  0  -0.085622  -0.146218  0  3.961954  0
C  C74  1  0.77108074  0.77744463  0.17217482  1  0  0.060177  0  3.601261  0  0  0.0738  0  3.832205  0  0  0.073935  0  3.849628  0  0  -0.005344  0.073795  0  3.820192  0
C  C75  1  0.40091897  0.27758889  0.17217071  1  0  0.059993  0  3.601874  0  0  0.074374  0  3.830684  0  0  0.074554  0  3.848047  0  0  -0.005053  0.074338  0  3.81873  0
C  C76  1  0.79799488  0.89372390  0.25648727  1  0  0.011063  0  3.670239  0  0  0.02639  0  3.901461  0  0  0.025044  0  3.923868  0  0  -0.001178  0.027192  0  3.886257  0
C  C77  1  0.45853891  0.39385836  0.25644522  1  0  0.011616  0  3.670008  0  0  0.027235  0  3.900519  0  0  0.025894  0  3.92288  0  0  -0.001255  0.028034  0  3.885344  0
C  C78  1  0.86823277  0.99623154  0.23315740  1  0  0.019561  0  3.781555  0  0  0.024287  0  4.021512  0  0  0.025399  0  4.043063  0  0  -0.00446  0.023617  0  4.006827  0
C  C79  1  0.36527733  0.49647656  0.23314612  1  0  0.019155  0  3.781823  0  0  0.023262  0  4.02216  0  0  0.02436  0  4.043723  0  0  -0.005043  0.022627  0  4.007451  0
C  C80  1  0.88675955  0.95540332  0.13359034  1  0  0.01943  0  3.784259  0  0  0.024126  0  4.020582  0  0  0.024633  0  4.042957  0  0  -0.007715  0.023873  0  4.005314  0
C  C81  1  0.24720061  0.45573021  0.13356585  1  0  0.019739  0  3.7822  0  0  0.024509  0  4.018634  0  0  0.024981  0  4.041065  0  0  -0.007689  0.024242  0  4.00338  0
C  C82  1  0.83265988  0.82737117  0.09749291  1  0  0.003769  0  3.719581  0  0  0.018915  0  3.953438  0  0  0.017451  0  3.97649  0  0  -0.003426  0.019806  0  3.937778  0
C  C83  1  0.26477740  0.32762391  0.09747933  1  0  0.004061  0  3.718148  0  0  0.019221  0  3.951365  0  0  0.017768  0  3.974403  0  0  -0.002723  0.020108  0  3.935749  0
C  C84  1  0.75861210  0.04153524  0.51039757  1  0  0.620064  0  3.941341  0  0  0.573634  0  4.232018  0  0  0.607405  0  4.225587  0  0  0.195386  0.550769  0  4.235525  0
C  C85  1  0.75175296  0.54137122  0.51037056  1  0  0.622521  0  3.938526  0  0  0.576061  0  4.229139  0  0  0.609863  0  4.222618  0  0  0.196332  0.553184  0  4.232717  0
C  C86  1  0.90812854  0.76037469  0.84685420  1  0  0.611249  0  3.935196  0  0  0.567298  0  4.216237  0  0  0.600942  0  4.211476  0  0  0.192415  0.544592  0  4.21847  0
C  C87  1  0.93842722  0.26057200  0.84696525  1  0  0.611313  0  3.937011  0  0  0.567168  0  4.217791  0  0  0.600809  0  4.21305  0  0  0.192472  0.54446  0  4.220025  0
C  C88  1  0.88088402  0.67154656  0.20446386  1  0  -0.145835  0  3.646641  0  0  -0.190395  0  3.901683  0  0  -0.191781  0  3.915981  0  0  -0.157804  -0.189253  0  3.891712  0
C  C89  1  0.32345296  0.17181195  0.20460227  1  0  -0.147226  0  3.650663  0  0  -0.190945  0  3.90404  0  0  -0.19232  0  3.9184  0  0  -0.158482  -0.189836  0  3.894068  0
C  C90  1  0.85484435  0.61603217  0.28770962  1  0  -0.065495  0  3.71716  0  0  -0.099466  0  3.973422  0  0  -0.100023  0  3.98937  0  0  -0.175888  -0.098954  0  3.962383  0
C  C91  1  0.43286288  0.11621533  0.28775764  1  0  -0.066177  0  3.71786  0  0  -0.099918  0  3.97343  0  0  -0.100565  0  3.989411  0  0  -0.175957  -0.099372  0  3.962405  0
C  C92  1  0.97184476  0.51314693  0.31139683  1  0  -0.286963  0  3.706081  0  0  -0.356486  0  3.945083  0  0  -0.359171  0  3.956169  0  0  -0.252302  -0.354369  0  3.937372  0
C  C93  1  0.33938066  0.01343604  0.31145699  1  0  -0.285975  0  3.705549  0  0  -0.355192  0  3.944897  0  0  -0.357722  0  3.956084  0  0  -0.251948  -0.353142  0  3.937118  0
C  C94  1  0.58648005  0.73289678  0.12433083  1  0  -0.143417  0  3.618451  0  0  -0.185808  0  3.868228  0  0  -0.187285  0  3.881974  0  0  -0.158184  -0.184627  0  3.858648  0
C  C95  1  0.53756257  0.23286362  0.12429949  1  0  -0.143089  0  3.619596  0  0  -0.185679  0  3.868797  0  0  -0.187183  0  3.88256  0  0  -0.158087  -0.184487  0  3.859202  0
C  C96  1  0.48171797  0.83468287  0.08363392  1  0  -0.065774  0  3.718588  0  0  -0.100435  0  3.976962  0  0  -0.100952  0  3.991863  0  0  -0.174501  -0.099907  0  3.966568  0
C  C97  1  0.60153155  0.33447353  0.08343578  1  0  -0.065906  0  3.720759  0  0  -0.099781  0  3.979223  0  0  -0.100189  0  3.994005  0  0  -0.174321  -0.099329  0  3.968883  0
C  C98  1  0.30550838  0.78959592  0.02117128  1  0  -0.280545  0  3.720683  0  0  -0.352148  0  3.962546  0  0  -0.354624  0  3.974423  0  0  -0.253365  -0.350208  0  3.954308  0
C  C99  1  0.71564240  0.28928585  0.02125489  1  0  -0.281392  0  3.721135  0  0  -0.351647  0  3.96298  0  0  -0.354037  0  3.974859  0  0  -0.253531  -0.349758  0  3.954741  0
C  C100  1  0.48826567  0.32090360  0.54975556  1  0  0.146333  0  3.68773  0  0  0.115427  0  3.937091  0  0  0.122489  0  3.955299  0  0  0.059022  0.110807  0  3.924825  0
C  C101  1  0.06159975  0.82093388  0.54972153  1  0  0.145776  0  3.684261  0  0  0.114298  0  3.933845  0  0  0.12132  0  3.952099  0  0  0.058455  0.10974  0  3.921557  0
C  C102  1  0.34083962  0.37218873  0.50870522  1  0  -0.116473  0  3.713527  0  0  -0.127926  0  3.963595  0  0  -0.134941  0  3.985755  0  0  -0.079557  -0.123462  0  3.948743  0
C  C103  1  0.16810587  0.87217367  0.50870822  1  0  -0.11699  0  3.710812  0  0  -0.128804  0  3.961488  0  0  -0.135834  0  3.983689  0  0  -0.079738  -0.124304  0  3.946574  0
C  C104  1  0.20136652  0.33989805  0.53249992  1  0  0.004278  0  3.683069  0  0  -0.01476  0  3.93084  0  0  -0.011415  0  3.94912  0  0  -0.058999  -0.016671  0  3.918338  0
C  C105  1  0.33138634  0.83996872  0.53261455  1  0  0.004412  0  3.684351  0  0  -0.015207  0  3.931806  0  0  -0.011822  0  3.950011  0  0  -0.059712  -0.017132  0  3.919327  0
C  C106  1  0.21210392  0.25627749  0.59480776  1  0  -0.134262  0  3.667838  0  0  -0.152406  0  3.91587  0  0  -0.159627  0  3.937171  0  0  -0.07316  -0.147705  0  3.90158  0
C  C107  1  0.38281657  0.75639371  0.59495930  1  0  -0.134757  0  3.669656  0  0  -0.152804  0  3.91771  0  0  -0.159973  0  3.939008  0  0  -0.072791  -0.148118  0  3.9034  0
C  C108  1  0.36458754  0.20943652  0.63402596  1  0  0.168417  0  3.769504  0  0  0.164835  0  4.007587  0  0  0.170713  0  4.029639  0  0  0.120274  0.160974  0  3.992574  0
C  C109  1  0.26947439  0.70959665  0.63414328  1  0  0.168546  0  3.769078  0  0  0.164346  0  4.00802  0  0  0.170294  0  4.029889  0  0  0.120485  0.160435  0  3.993138  0
C  C110  1  0.39258571  0.12295867  0.70311678  1  0  0.169876  0  3.759435  0  0  0.16514  0  3.998506  0  0  0.171686  0  4.020135  0  0  0.121519  0.16074  0  3.983879  0
C  C111  1  0.31064456  0.62313543  0.70321008  1  0  0.170876  0  3.756909  0  0  0.165404  0  3.996889  0  0  0.172027  0  4.018317  0  0  0.12137  0.160988  0  3.982367  0
C  C112  1  0.26912212  0.08138576  0.73741796  1  0  -0.130636  0  3.672119  0  0  -0.149273  0  3.919472  0  0  -0.156502  0  3.94087  0  0  -0.07134  -0.144616  0  3.90522  0
C  C113  1  0.46840797  0.58153914  0.73735790  1  0  -0.131948  0  3.67215  0  0  -0.150521  0  3.919737  0  0  -0.157774  0  3.941048  0  0  -0.071976  -0.145844  0  3.905509  0
C  C114  1  0.30609855  0.99779568  0.80058488  1  0  0.01091  0  3.679356  0  0  -0.009523  0  3.931904  0  0  -0.005149  0  3.948576  0  0  -0.057597  -0.012212  0  3.920632  0
C  C115  1  0.49463745  0.49779366  0.80040521  1  0  0.01249  0  3.678511  0  0  -0.007463  0  3.930641  0  0  -0.003014  0  3.947311  0  0  -0.057538  -0.010196  0  3.919346  0
C  C116  1  0.46575361  0.95801299  0.82819347  1  0  -0.121634  0  3.719775  0  0  -0.135102  0  3.973823  0  0  -0.142446  0  3.99539  0  0  -0.078198  -0.130417  0  3.959377  0
C  C117  1  0.36266068  0.45787425  0.82802625  1  0  -0.122477  0  3.719263  0  0  -0.13606  0  3.972984  0  0  -0.143337  0  3.994559  0  0  -0.077987  -0.131403  0  3.958529  0
C  C118  1  0.58339753  0.00406371  0.79219591  1  0  0.142736  0  3.694187  0  0  0.109776  0  3.946545  0  0  0.117335  0  3.964446  0  0  0.057107  0.104858  0  3.934462  0
C  C119  1  0.20899934  0.50396652  0.79216806  1  0  0.141569  0  3.690443  0  0  0.108936  0  3.942862  0  0  0.116468  0  3.960766  0  0  0.056883  0.104047  0  3.930802  0
N  N120  1  0.49907291  0.24290511  0.61118155  1  0  -0.349799  0  3.288377  0  0  -0.273875  0  3.5516  0  0  -0.293008  0  3.567554  0  0  -0.322995  -0.260979  0  3.540749  0
N  N121  1  0.11213918  0.74300882  0.61122629  1  0  -0.348469  0  3.287107  0  0  -0.271988  0  3.550344  0  0  -0.291148  0  3.566306  0  0  -0.322615  -0.259097  0  3.539513  0
N  N122  1  0.54752485  0.08454837  0.73165265  1  0  -0.352881  0  3.298744  0  0  -0.274443  0  3.567472  0  0  -0.294091  0  3.581846  0  0  -0.319388  -0.261264  0  3.557773  0
N  N123  1  0.18426689  0.58458523  0.73173264  1  0  -0.352676  0  3.296743  0  0  -0.273046  0  3.564241  0  0  -0.292688  0  3.578529  0  0  -0.319074  -0.259902  0  3.554628  0
O  O124  1  0.66379682  0.96212066  0.52183919  1  0  -0.615622  0  1.915733  0  0  -0.572287  0  2.143219  0  0  -0.59431  0  2.132557  0  0  -0.322628  -0.556791  0  2.150047  0
O  O125  1  0.85791112  0.46185536  0.52176762  1  0  -0.616702  0  1.913596  0  0  -0.573006  0  2.140654  0  0  -0.595002  0  2.129961  0  0  -0.323088  -0.557528  0  2.147478  0
O  O126  1  0.82640362  0.14149228  0.57845700  1  0  -0.637343  0  2.031946  0  0  -0.560912  0  2.295341  0  0  -0.590045  0  2.279786  0  0  -0.331769  -0.540431  0  2.305234  0
O  O127  1  0.75218771  0.64133112  0.57843996  1  0  -0.637906  0  2.032056  0  0  -0.562089  0  2.296441  0  0  -0.591187  0  2.280731  0  0  -0.332214  -0.541564  0  2.306307  0
O  O128  1  0.87053059  0.64321750  0.81713000  1  0  -0.619223  0  1.927102  0  0  -0.560693  0  2.157795  0  0  -0.58588  0  2.14722  0  0  -0.318451  -0.54302  0  2.164421  0
O  O129  1  0.94622584  0.14338032  0.81734918  1  0  -0.619312  0  1.928128  0  0  -0.560622  0  2.158666  0  0  -0.585911  0  2.148254  0  0  -0.318075  -0.542895  0  2.16518  0
O  O130  1  0.96398476  0.82214690  0.79483455  1  0  -0.624455  0  1.969831  0  0  -0.557034  0  2.217968  0  0  -0.585285  0  2.20541  0  0  -0.329697  -0.537154  0  2.225806  0
O  O131  1  0.83070640  0.32230991  0.79486566  1  0  -0.623873  0  1.969531  0  0  -0.556794  0  2.217999  0  0  -0.584982  0  2.205356  0  0  -0.329373  -0.536904  0  2.225784  0
