# generated using pymatgen
data_YbZnH11C12(N2O5)2
_symmetry_space_group_name_H-M   'P 1'
_cell_length_a   8.96412757
_cell_length_b   12.96862253
_cell_length_c   18.37281303
_cell_angle_alpha   71.91072512
_cell_angle_beta   75.89331967
_cell_angle_gamma   69.77073099
_symmetry_Int_Tables_number   1
_chemical_formula_structural   YbZnH11C12(N2O5)2
_chemical_formula_sum   'Yb4 Zn4 H44 C48 N16 O40'
_cell_volume   1882.68169768
_cell_formula_units_Z   4
loop_
 _symmetry_equiv_pos_site_id
 _symmetry_equiv_pos_as_xyz
  1  'x, y, z'
loop_
 _atom_site_type_symbol
 _atom_site_label
 _atom_site_symmetry_multiplicity
 _atom_site_fract_x
 _atom_site_fract_y
 _atom_site_fract_z
 _atom_site_occupancy
 _atom_site_pbe_bader_charge
 _atom_site_pbe_bader_spin_density
 _atom_site_pbe_cm5_charge
 _atom_site_pbe_ddec_charge
 _atom_site_pbe_ddec_spin_density
 _atom_site_pbe_ddec_sum_bond_order
 _atom_site_pbe_magmom
Yb  Yb0  1  0.84465739  0.41447116  0.50316850  1  2.202784  0  1.605073  2.141467  0  2.133729  0
Yb  Yb1  1  0.76231955  0.08554495  0.99686600  1  2.20207  0  1.605181  2.14236  0  2.132857  0
Yb  Yb2  1  0.15532623  0.58552622  0.49684247  1  2.20287  0  1.605077  2.141357  0  2.133906  0
Yb  Yb3  1  0.23768302  0.91445925  0.00313574  1  2.202001  0  1.60516  2.142379  0  2.132772  0
Zn  Zn4  1  0.21698986  0.91506020  0.66103581  1  1.284274  0  0.695778  0.767425  0  2.372248  0
Zn  Zn5  1  0.79320095  0.58493131  0.83881972  1  1.288508  0  0.697075  0.770092  0  2.368056  0
Zn  Zn6  1  0.78301669  0.08492877  0.33896278  1  1.284333  0  0.695737  0.767394  0  2.372303  0
Zn  Zn7  1  0.20679647  0.41506866  0.16118194  1  1.288477  0  0.697053  0.770067  0  2.368092  0
H  H8  1  0.52206757  0.38278233  0.55916008  1  0.636861  0  0.305698  0.41548  0  0.90681  0
H  H9  1  0.46391535  0.11734743  0.94090447  1  0.670606  0  0.306179  0.416534  0  0.905371  0
H  H10  1  0.47792400  0.61721768  0.44083520  1  0.637002  0  0.305728  0.41559  0  0.906675  0
H  H11  1  0.53609219  0.88266109  0.05908321  1  0.670471  0  0.306191  0.416415  0  0.905503  0
H  H12  1  0.52569347  0.47414476  0.59585031  1  0.627127  0  0.325809  0.417557  0  0.878107  0
H  H13  1  0.59597126  0.02646613  0.90385863  1  0.630549  0  0.326359  0.418386  0  0.876934  0
H  H14  1  0.47429546  0.52585609  0.40414565  1  0.627179  0  0.3258  0.417523  0  0.878156  0
H  H15  1  0.40405263  0.97354746  0.09613195  1  0.630289  0  0.326311  0.418207  0  0.87714  0
H  H16  1  0.93511629  0.44764241  0.63196533  1  0.663578  0  0.301972  0.405191  0  0.938444  0
H  H17  1  0.01441680  0.05181989  0.86801444  1  0.649546  0  0.301792  0.405258  0  0.9386  0
H  H18  1  0.06485181  0.55236177  0.36804278  1  0.665372  0  0.301947  0.405136  0  0.938503  0
H  H19  1  0.98559463  0.94818775  0.13198003  1  0.649648  0  0.301838  0.405342  0  0.93848  0
H  H20  1  0.80876574  0.37804211  0.67718257  1  0.637247  0  0.344126  0.442807  0  0.831367  0
H  H21  1  0.86363289  0.12222127  0.82287914  1  0.654704  0  0.344339  0.443049  0  0.830605  0
H  H22  1  0.19122631  0.62194596  0.32282505  1  0.637465  0  0.344132  0.442844  0  0.831302  0
H  H23  1  0.13636946  0.87777787  0.17711993  1  0.654718  0  0.344352  0.443054  0  0.830602  0
H  H24  1  0.56166038  0.19053802  0.51711128  1  0.571408  0  0.31725  0.302867  0  0.960875  0
H  H25  1  0.26929102  0.30946332  0.98284764  1  0.573466  0  0.317497  0.302212  0  0.959853  0
H  H26  1  0.43832554  0.80946194  0.48289177  1  0.571475  0  0.317278  0.302963  0  0.960747  0
H  H27  1  0.73072332  0.69054008  0.01714686  1  0.573446  0  0.317455  0.302136  0  0.959921  0
H  H28  1  0.63723111  0.88423956  0.58460716  1  0.052775  0  0.101664  0.149334  0  1.016925  0
H  H29  1  0.10607289  0.61573443  0.91533679  1  0.056396  0  0.101572  0.14916  0  1.016819  0
H  H30  1  0.36276572  0.11575619  0.41539113  1  0.052755  0  0.101665  0.149322  0  1.016734  0
H  H31  1  0.89393582  0.38427150  0.08466002  1  0.056586  0  0.101597  0.149173  0  1.016737  0
H  H32  1  0.63466502  0.94328420  0.66001985  1  0.075974  0  0.109794  0.16703  0  0.962172  0
H  H33  1  0.23795494  0.55656568  0.83998785  1  0.080949  0  0.109677  0.167087  0  0.962068  0
H  H34  1  0.36532849  0.05671666  0.33997446  1  0.075921  0  0.109834  0.167123  0  0.962069  0
H  H35  1  0.76204118  0.44344281  0.16000721  1  0.081055  0  0.109676  0.1671  0  0.962006  0
H  H36  1  0.73217105  0.99298763  0.56536224  1  0.103102  0  0.11322  0.173301  0  0.971686  0
H  H37  1  0.29040632  0.50686856  0.93469289  1  0.090785  0  0.113246  0.172988  0  0.97172  0
H  H38  1  0.26782150  0.00700729  0.43463403  1  0.103097  0  0.113232  0.173324  0  0.971614  0
H  H39  1  0.70960589  0.49313994  0.06529967  1  0.09109  0  0.113238  0.172988  0  0.971732  0
H  H40  1  0.11937596  0.06302174  0.20324996  1  0.091338  0  0.102215  0.153344  0  0.992337  0
H  H41  1  0.38442837  0.43679933  0.29715484  1  0.063534  0  0.102081  0.153524  0  0.991799  0
H  H42  1  0.88063602  0.93697910  0.79674701  1  0.091313  0  0.102214  0.153311  0  0.9924  0
H  H43  1  0.61557312  0.56319898  0.70284016  1  0.063422  0  0.102067  0.153495  0  0.991787  0
H  H44  1  0.18480470  0.17859549  0.13578339  1  0.063197  0  0.094273  0.142504  0  1.043539  0
H  H45  1  0.49812161  0.32123880  0.36462166  1  0.063371  0  0.094837  0.143776  0  1.041991  0
H  H46  1  0.81519380  0.82141297  0.86421737  1  0.063228  0  0.094285  0.142537  0  1.043523  0
H  H47  1  0.50188391  0.67876373  0.63537573  1  0.063345  0  0.094843  0.143852  0  1.042009  0
H  H48  1  0.98898121  0.16948180  0.14205139  1  0.041774  0  0.098302  0.143223  0  1.004667  0
H  H49  1  0.29971554  0.33004465  0.35813782  1  0.039748  0  0.098171  0.143418  0  1.004727  0
H  H50  1  0.01102172  0.83052156  0.85795104  1  0.042055  0  0.098282  0.143195  0  1.00463  0
H  H51  1  0.70029103  0.66995535  0.64185945  1  0.039722  0  0.098172  0.143407  0  1.004634  0
C  C52  1  0.05104101  0.14283213  0.57351730  1  1.657723  0  0.227828  0.627352  0  4.190587  0
C  C53  1  0.76729013  0.35717419  0.92636464  1  1.650291  0  0.228929  0.63024  0  4.192883  0
C  C54  1  0.94894379  0.85715678  0.42649102  1  1.658254  0  0.22792  0.627503  0  4.190469  0
C  C55  1  0.23272530  0.64282665  0.07363192  1  1.649916  0  0.229024  0.630346  0  4.192475  0
C  C56  1  0.22197944  0.13979633  0.56734956  1  0.434443  0  0.096613  0.012598  0  3.955679  0
C  C57  1  0.92895884  0.36022033  0.93264984  1  0.45618  0  0.097122  0.013863  0  3.952028  0
C  C58  1  0.77801357  0.86019769  0.43265501  1  0.434207  0  0.096686  0.012757  0  3.955721  0
C  C59  1  0.07104404  0.63978305  0.06734824  1  0.456061  0  0.09711  0.013819  0  3.951968  0
C  C60  1  0.30430694  0.22133411  0.54082014  1  0.368753  0  0.087382  -0.007423  0  3.932911  0
C  C61  1  0.06636929  0.27867435  0.95921193  1  0.347545  0  0.087631  -0.00591  0  3.930836  0
C  C62  1  0.69567938  0.77866499  0.45918686  1  0.368989  0  0.087365  -0.007598  0  3.93265  0
C  C63  1  0.93364214  0.72133330  0.04078146  1  0.347507  0  0.08756  -0.005964  0  3.930844  0
C  C64  1  0.25245735  0.34524176  0.52024496  1  1.57658  0  0.22031  0.613171  0  4.217642  0
C  C65  1  0.11802254  0.15475521  0.97972253  1  1.563916  0  0.217828  0.607179  0  4.221157  0
C  C66  1  0.74753076  0.65475309  0.47976438  1  1.576543  0  0.220427  0.613316  0  4.21738  0
C  C67  1  0.88199329  0.84524735  0.02027034  1  1.563713  0  0.217777  0.606941  0  4.221775  0
C  C68  1  0.47546547  0.05085414  0.57959835  1  1.028151  0  0.244677  0.433153  0  3.912635  0
C  C69  1  0.10577767  0.44912758  0.92039298  1  1.013845  0  0.245016  0.431609  0  3.912586  0
C  C70  1  0.52453132  0.94914163  0.42039722  1  1.028196  0  0.24459  0.43321  0  3.912329  0
C  C71  1  0.89423253  0.55087751  0.07960275  1  1.014094  0  0.244906  0.431305  0  3.912908  0
C  C72  1  0.62873521  0.96296731  0.59787148  1  -0.030546  0  -0.224519  -0.470679  0  3.894997  0
C  C73  1  0.18946907  0.53695799  0.90212217  1  -0.02436  0  -0.22411  -0.469464  0  3.894633  0
C  C74  1  0.37126840  0.03702591  0.40212436  1  -0.030722  0  -0.224549  -0.470801  0  3.894733  0
C  C75  1  0.81053549  0.46304963  0.09787532  1  -0.024784  0  -0.224112  -0.469404  0  3.89444  0
C  C76  1  0.76471349  0.27370755  0.40965004  1  1.583682  0  0.217519  0.603855  0  4.230711  0
C  C77  1  0.44823199  0.22641344  0.09034807  1  1.58746  0  0.217996  0.603837  0  4.234018  0
C  C78  1  0.23527958  0.72628902  0.59035233  1  1.583292  0  0.217608  0.604039  0  4.230628  0
C  C79  1  0.55177209  0.77358146  0.90964952  1  1.587292  0  0.21778  0.603538  0  4.234435  0
C  C80  1  0.88674907  0.27509508  0.33990711  1  0.421477  0  0.072706  -0.018748  0  4.034058  0
C  C81  1  0.50170900  0.22495245  0.16019161  1  0.357935  0  0.072852  -0.01752  0  4.034346  0
C  C82  1  0.11325352  0.72489808  0.66009867  1  0.421676  0  0.0727  -0.018822  0  4.034271  0
C  C83  1  0.49829873  0.77504755  0.83980607  1  0.358208  0  0.07288  -0.017482  0  4.03442  0
C  C84  1  0.97618608  0.35003544  0.29750927  1  0.407829  0  0.065334  -0.027039  0  4.041995  0
C  C85  1  0.62368165  0.15004409  0.20264048  1  0.45636  0  0.065016  -0.027586  0  4.040848  0
C  C86  1  0.02381051  0.64996111  0.70249758  1  0.407978  0  0.065357  -0.027034  0  4.042003  0
C  C87  1  0.37632499  0.84995846  0.79735459  1  0.456109  0  0.065047  -0.027567  0  4.040924  0
C  C88  1  0.00283704  0.44825037  0.31032177  1  1.558298  0  0.219994  0.598402  0  4.196789  0
C  C89  1  0.76152750  0.05190265  0.18979897  1  1.539826  0  0.219649  0.599057  0  4.197221  0
C  C90  1  0.99714937  0.55175127  0.68968466  1  1.558389  0  0.219947  0.598382  0  4.196719  0
C  C91  1  0.23847971  0.94809309  0.81020078  1  1.539723  0  0.219583  0.598869  0  4.197419  0
C  C92  1  0.02267819  0.22023358  0.23569349  1  1.007383  0  0.21478  0.414063  0  3.965476  0
C  C93  1  0.47822100  0.27969476  0.26452393  1  0.987866  0  0.21523  0.414949  0  3.967517  0
C  C94  1  0.97732679  0.77976213  0.76431199  1  1.009449  0  0.21477  0.41409  0  3.965128  0
C  C95  1  0.52178332  0.72030521  0.73547634  1  0.987303  0  0.215244  0.415012  0  3.967414  0
C  C96  1  0.08363043  0.15421623  0.17589412  1  -0.06533  0  -0.238124  -0.466976  0  3.929647  0
C  C97  1  0.41285293  0.34555608  0.32440762  1  -0.033482  0  -0.238374  -0.468909  0  3.927292  0
C  C98  1  0.91637019  0.84578713  0.82410750  1  -0.065684  0  -0.23809  -0.466948  0  3.929665  0
C  C99  1  0.58714416  0.65444731  0.67558844  1  -0.032761  0  -0.238365  -0.468964  0  3.927117  0
N  N100  1  0.32980841  0.03576227  0.59178269  1  -1.220194  0  -0.341308  -0.366021  0  3.470773  0
N  N101  1  0.95716584  0.46422925  0.90820330  1  -1.202004  0  -0.342787  -0.368407  0  3.471271  0
N  N102  1  0.67018786  0.96422924  0.40821496  1  -1.219897  0  -0.341245  -0.36616  0  3.470537  0
N  N103  1  0.04283894  0.53577241  0.09179873  1  -1.202186  0  -0.342804  -0.368361  0  3.471368  0
N  N104  1  0.46323093  0.16220196  0.54921650  1  -1.269388  0  -0.360647  -0.269525  0  3.552102  0
N  N105  1  0.17450791  0.33780231  0.95081505  1  -1.268331  0  -0.360941  -0.267713  0  3.553467  0
N  N106  1  0.53675869  0.83779462  0.45078576  1  -1.269499  0  -0.360653  -0.269443  0  3.551499  0
N  N107  1  0.82550239  0.66220532  0.04918011  1  -1.268278  0  -0.360774  -0.267411  0  3.553393  0
N  N108  1  0.91882986  0.19409889  0.30030609  1  -1.228972  0  -0.355458  -0.355776  0  3.492764  0
N  N109  1  0.41301267  0.30584510  0.19983631  1  -1.205193  0  -0.356164  -0.358183  0  3.496816  0
N  N110  1  0.08117538  0.80589343  0.69969900  1  -1.230825  0  -0.355435  -0.35568  0  3.492702  0
N  N111  1  0.58699047  0.69415488  0.80016302  1  -1.205295  0  -0.356147  -0.358172  0  3.496953  0
N  N112  1  0.05974312  0.31432434  0.23192480  1  -1.223716  0  -0.352198  -0.386198  0  3.478497  0
N  N113  1  0.60575950  0.18568297  0.26829092  1  -1.21442  0  -0.351734  -0.38518  0  3.478647  0
N  N114  1  0.94025541  0.68567306  0.76808055  1  -1.223906  0  -0.352249  -0.38623  0  3.47819  0
N  N115  1  0.39424250  0.81431701  0.73170854  1  -1.214483  0  -0.351786  -0.385233  0  3.47873  0
O  O116  1  0.95344117  0.23307659  0.53924248  1  -1.217071  0  -0.459275  -0.716784  0  2.35005  0
O  O117  1  0.72569766  0.26693388  0.96061815  1  -1.2157  0  -0.459734  -0.719011  0  2.351133  0
O  O118  1  0.04654131  0.76691820  0.46077681  1  -1.217228  0  -0.459358  -0.716859  0  2.350098  0
O  O119  1  0.27430987  0.73306948  0.03938372  1  -1.215458  0  -0.459767  -0.719076  0  2.351123  0
O  O120  1  0.01526938  0.05307243  0.61084385  1  -1.141639  0  -0.300281  -0.496547  0  2.172111  0
O  O121  1  0.67915616  0.44690851  0.88894312  1  -1.144886  0  -0.3003  -0.49731  0  2.173729  0
O  O122  1  0.98472450  0.94691396  0.38916119  1  -1.141946  0  -0.30032  -0.496604  0  2.171726  0
O  O123  1  0.32086099  0.55308811  0.11105088  1  -1.144655  0  -0.30034  -0.497371  0  2.173496  0
O  O124  1  0.11183495  0.40287937  0.50327713  1  -1.20805  0  -0.428913  -0.727246  0  2.463731  0
O  O125  1  0.01822623  0.09708460  0.99638550  1  -1.194225  0  -0.428011  -0.724468  0  2.466334  0
O  O126  1  0.88815239  0.59711462  0.49673467  1  -1.207669  0  -0.42895  -0.727259  0  2.463786  0
O  O127  1  0.98178471  0.90291878  0.00361214  1  -1.194297  0  -0.428042  -0.724503  0  2.466569  0
O  O128  1  0.34833984  0.39864872  0.52063590  1  -1.195714  0  -0.362474  -0.639798  0  2.258241  0
O  O129  1  0.26770367  0.10135925  0.97954546  1  -1.194959  0  -0.361412  -0.638231  0  2.257307  0
O  O130  1  0.65164591  0.60134614  0.47936937  1  -1.195914  0  -0.36258  -0.639969  0  2.258227  0
O  O131  1  0.73232081  0.89864166  0.02043910  1  -1.194747  0  -0.36134  -0.637963  0  2.257599  0
O  O132  1  0.71645549  0.35696015  0.44177973  1  -1.22219  0  -0.44973  -0.719285  0  2.352854  0
O  O133  1  0.51536322  0.14312671  0.05825490  1  -1.224331  0  -0.45013  -0.719041  0  2.352603  0
O  O134  1  0.28353900  0.64303303  0.55822376  1  -1.222115  0  -0.449748  -0.719276  0  2.352688  0
O  O135  1  0.48464893  0.85686820  0.94174280  1  -1.224126  0  -0.450038  -0.718963  0  2.352579  0
O  O136  1  0.70558147  0.19081038  0.43320652  1  -1.179431  0  -0.292989  -0.526134  0  2.230069  0
O  O137  1  0.32988196  0.30939526  0.06669513  1  -1.182013  0  -0.293141  -0.526756  0  2.231736  0
O  O138  1  0.29440703  0.80918877  0.56679041  1  -1.179266  0  -0.293048  -0.526301  0  2.230137  0
O  O139  1  0.67011641  0.69059962  0.93330643  1  -1.182006  0  -0.29306  -0.52657  0  2.231857  0
O  O140  1  0.94935297  0.47473688  0.37638523  1  -1.207322  0  -0.412847  -0.693512  0  2.354559  0
O  O141  1  0.80069911  0.02553958  0.12367104  1  -1.202769  0  -0.412707  -0.694748  0  2.354657  0
O  O142  1  0.05063166  0.52525797  0.62362236  1  -1.207172  0  -0.412855  -0.693559  0  2.354405  0
O  O143  1  0.19930895  0.97445957  0.87632460  1  -1.202673  0  -0.412649  -0.694608  0  2.35466  0
O  O144  1  0.08551087  0.50251616  0.25615655  1  -1.174786  0  -0.311159  -0.523582  0  2.216896  0
O  O145  1  0.84430825  0.99756827  0.24398746  1  -1.165297  0  -0.310747  -0.523256  0  2.217359  0
O  O146  1  0.91446536  0.49749058  0.74384892  1  -1.175031  0  -0.311118  -0.523551  0  2.217013  0
O  O147  1  0.15569508  0.00242577  0.75601422  1  -1.165159  0  -0.310746  -0.52322  0  2.217335  0
O  O148  1  0.59232696  0.40227551  0.58377394  1  -1.234271  0  -0.62969  -0.836414  0  2.010681  0
O  O149  1  0.57823058  0.09821676  0.91618504  1  -1.271979  0  -0.630722  -0.838094  0  2.009854  0
O  O150  1  0.40766271  0.59772364  0.41622449  1  -1.234505  0  -0.6297  -0.836494  0  2.010568  0
O  O151  1  0.42177836  0.90179682  0.08380681  1  -1.271707  0  -0.630667  -0.83775  0  2.010083  0
O  O152  1  0.85758931  0.41092263  0.62598030  1  -1.278134  0  -0.663593  -0.877398  0  2.125894  0
O  O153  1  0.89410319  0.08826055  0.87406056  1  -1.280751  0  -0.663331  -0.877776  0  2.126339  0
O  O154  1  0.14237299  0.58909002  0.37402885  1  -1.280171  0  -0.663572  -0.877398  0  2.125822  0
O  O155  1  0.10591007  0.91175386  0.12593657  1  -1.280832  0  -0.66338  -0.877845  0  2.126326  0
