# generated using pymatgen
data_ZnH4(CO3)2
_symmetry_space_group_name_H-M   'P 1'
_cell_length_a   7.10570778
_cell_length_b   7.10552189
_cell_length_c   9.73439337
_cell_angle_alpha   89.97270673
_cell_angle_beta   90.02737507
_cell_angle_gamma   120.01380369
_symmetry_Int_Tables_number   1
_chemical_formula_structural   ZnH4(CO3)2
_chemical_formula_sum   'Zn3 H12 C6 O18'
_cell_volume   425.58112503
_cell_formula_units_Z   3
loop_
 _symmetry_equiv_pos_site_id
 _symmetry_equiv_pos_as_xyz
  1  'x, y, z'
loop_
 _atom_site_type_symbol
 _atom_site_label
 _atom_site_symmetry_multiplicity
 _atom_site_fract_x
 _atom_site_fract_y
 _atom_site_fract_z
 _atom_site_occupancy
 _atom_site_hle17_bader_spin_density
 _atom_site_hle17_ddec_charge
 _atom_site_hle17_ddec_spin_density
 _atom_site_hle17_ddec_sum_bond_order
 _atom_site_hle17_magmom
 _atom_site_hse06_10hf_bader_spin_density
 _atom_site_hse06_10hf_ddec_charge
 _atom_site_hse06_10hf_ddec_spin_density
 _atom_site_hse06_10hf_ddec_sum_bond_order
 _atom_site_hse06_10hf_magmom
 _atom_site_hse06_bader_spin_density
 _atom_site_hse06_ddec_charge
 _atom_site_hse06_ddec_spin_density
 _atom_site_hse06_ddec_sum_bond_order
 _atom_site_hse06_magmom
 _atom_site_pbe_bader_spin_density
 _atom_site_pbe_cm5_charge
 _atom_site_pbe_ddec_charge
 _atom_site_pbe_ddec_spin_density
 _atom_site_pbe_ddec_sum_bond_order
 _atom_site_pbe_magmom
Zn  Zn0  1  0.62855142  0.00013480  0.33331106  1  0  1.208447  0  1.685656  0  0  1.042822  0  2.135974  0  0  1.087737  0  2.0782  0  0  0.686494  1.011102  0  2.175691  0
Zn  Zn1  1  0.00012421  0.62853350  0.66668619  1  0  1.208399  0  1.685699  0  0  1.042794  0  2.136033  0  0  1.087701  0  2.078258  0  0  0.686505  1.011084  0  2.175748  0
Zn  Zn2  1  0.37135806  0.37136460  0.00000714  1  0  1.208493  0  1.68562  0  0  1.043182  0  2.135737  0  0  1.088099  0  2.077982  0  0  0.686413  1.011481  0  2.175441  0
H  H3  1  0.28315958  0.93241350  0.18207914  1  0  0.443123  0  0.85313  0  0  0.411155  0  0.916419  0  0  0.42233  0  0.900131  0  0  0.295752  0.403232  0  0.927967  0
H  H4  1  0.06760042  0.35114888  0.51530460  1  0  0.442939  0  0.853436  0  0  0.411214  0  0.916378  0  0  0.422347  0  0.900134  0  0  0.295636  0.403313  0  0.927908  0
H  H5  1  0.64902547  0.71615413  0.84848552  1  0  0.443288  0  0.852923  0  0  0.411559  0  0.915875  0  0  0.42268  0  0.899649  0  0  0.295829  0.403657  0  0.927411  0
H  H6  1  0.35114800  0.06757551  0.48470135  1  0  0.44302  0  0.853329  0  0  0.411333  0  0.916197  0  0  0.422459  0  0.899968  0  0  0.295663  0.403431  0  0.92773  0
H  H7  1  0.71614380  0.64902239  0.15151058  1  0  0.443299  0  0.852914  0  0  0.411596  0  0.915812  0  0  0.422718  0  0.899587  0  0  0.295837  0.403694  0  0.927349  0
H  H8  1  0.93241714  0.28317760  0.81791657  1  0  0.443155  0  0.853051  0  0  0.411106  0  0.916465  0  0  0.422283  0  0.900173  0  0  0.295742  0.40318  0  0.928017  0
H  H9  1  0.28645007  0.70763196  0.17488686  1  0  0.444228  0  0.849596  0  0  0.412936  0  0.911408  0  0  0.423903  0  0.895381  0  0  0.298362  0.40516  0  0.922776  0
H  H10  1  0.29259690  0.57921560  0.50832840  1  0  0.444184  0  0.849626  0  0  0.412649  0  0.911858  0  0  0.423621  0  0.895829  0  0  0.298192  0.404872  0  0.923228  0
H  H11  1  0.42115863  0.71332169  0.84147137  1  0  0.44412  0  0.849642  0  0  0.412746  0  0.911652  0  0  0.423699  0  0.895649  0  0  0.298104  0.404976  0  0.923012  0
H  H12  1  0.57923270  0.29260444  0.49167668  1  0  0.444042  0  0.849826  0  0  0.412565  0  0.911958  0  0  0.423537  0  0.895932  0  0  0.298131  0.404793  0  0.92332  0
H  H13  1  0.71332403  0.42115928  0.15853131  1  0  0.444124  0  0.849641  0  0  0.412744  0  0.911658  0  0  0.423702  0  0.895649  0  0  0.29809  0.404974  0  0.923019  0
H  H14  1  0.70762587  0.28646422  0.82510313  1  0  0.444269  0  0.849555  0  0  0.413006  0  0.911315  0  0  0.423957  0  0.895309  0  0  0.298437  0.405228  0  0.922687  0
C  C15  1  0.92798516  0.92796548  0.49999870  1  0  0.562758  0  3.903958  0  0  0.509157  0  4.206033  0  0  0.539485  0  4.199096  0  0  0.216661  0.488843  0  4.209733  0
C  C16  1  0.07235074  0.99979084  0.83336256  1  0  0.563276  0  3.904737  0  0  0.509263  0  4.206696  0  0  0.539628  0  4.199761  0  0  0.216557  0.488902  0  4.210449  0
C  C17  1  0.99978781  0.07235468  0.16661942  1  0  0.5634  0  3.904971  0  0  0.509412  0  4.206951  0  0  0.539773  0  4.200021  0  0  0.216553  0.489056  0  4.210691  0
C  C18  1  0.70960199  0.70960284  0.49999607  1  0  0.573825  0  3.858517  0  0  0.519199  0  4.157298  0  0  0.549917  0  4.149311  0  0  0.22511  0.498276  0  4.162157  0
C  C19  1  0.29068013  0.99992019  0.83348147  1  0  0.573867  0  3.859177  0  0  0.519803  0  4.157352  0  0  0.550401  0  4.149466  0  0  0.225604  0.498933  0  4.16218  0
C  C20  1  0.99992160  0.29071348  0.16652471  1  0  0.573978  0  3.858965  0  0  0.519851  0  4.157254  0  0  0.550461  0  4.149367  0  0  0.225636  0.498992  0  4.162062  0
O  O21  1  0.54810669  0.70889565  0.44406694  1  0  -0.591334  0  2.088479  0  0  -0.521198  0  2.326617  0  0  -0.547814  0  2.313762  0  0  -0.283068  -0.502771  0  2.33507  0
O  O22  1  0.29144887  0.83930823  0.77745362  1  0  -0.591278  0  2.088633  0  0  -0.521669  0  2.326835  0  0  -0.54812  0  2.313922  0  0  -0.283282  -0.503308  0  2.335317  0
O  O23  1  0.16066485  0.45203897  0.11045553  1  0  -0.591996  0  2.088459  0  0  -0.52212  0  2.326358  0  0  -0.548707  0  2.313527  0  0  -0.283533  -0.503732  0  2.334815  0
O  O24  1  0.83929190  0.29143729  0.22255522  1  0  -0.591448  0  2.088838  0  0  -0.521745  0  2.327046  0  0  -0.548233  0  2.314146  0  0  -0.283343  -0.503375  0  2.335518  0
O  O25  1  0.45204860  0.16066363  0.88952626  1  0  -0.592064  0  2.088327  0  0  -0.522173  0  2.326112  0  0  -0.548766  0  2.313294  0  0  -0.283594  -0.503762  0  2.334561  0
O  O26  1  0.70890666  0.54810356  0.55592169  1  0  -0.591285  0  2.088504  0  0  -0.5212  0  2.326666  0  0  -0.547816  0  2.313812  0  0  -0.283024  -0.502802  0  2.335142  0
O  O27  1  0.92027996  0.09480648  0.46349342  1  0  -0.605764  0  2.118086  0  0  -0.540597  0  2.355974  0  0  -0.56785  0  2.345649  0  0  -0.288229  -0.52182  0  2.362447  0
O  O28  1  0.90548760  0.82521096  0.79694739  1  0  -0.60621  0  2.119085  0  0  -0.54069  0  2.356832  0  0  -0.567948  0  2.3465  0  0  -0.288321  -0.521901  0  2.363327  0
O  O29  1  0.17426524  0.07991318  0.13028879  1  0  -0.605959  0  2.118486  0  0  -0.54069  0  2.356552  0  0  -0.567963  0  2.346221  0  0  -0.288327  -0.521902  0  2.363037  0
O  O30  1  0.82520125  0.90550783  0.20304351  1  0  -0.606234  0  2.119241  0  0  -0.540719  0  2.356982  0  0  -0.567981  0  2.34665  0  0  -0.288184  -0.521929  0  2.363476  0
O  O31  1  0.07993597  0.17429361  0.86970746  1  0  -0.605911  0  2.117996  0  0  -0.540558  0  2.356008  0  0  -0.567834  0  2.345678  0  0  -0.288215  -0.521764  0  2.362492  0
O  O32  1  0.09483758  0.92027153  0.53649458  1  0  -0.605779  0  2.118019  0  0  -0.540671  0  2.355918  0  0  -0.567922  0  2.345598  0  0  -0.288331  -0.521891  0  2.362389  0
O  O33  1  0.36477802  0.85874117  0.21029512  1  0  -0.862676  0  1.875856  0  0  -0.797672  0  2.088105  0  0  -0.818944  0  2.049353  0  0  -0.586793  -0.782668  0  2.115048  0
O  O34  1  0.14130487  0.50647928  0.54343824  1  0  -0.862315  0  1.876011  0  0  -0.797407  0  2.088233  0  0  -0.81863  0  2.049535  0  0  -0.586486  -0.782453  0  2.115156  0
O  O35  1  0.49362059  0.63437486  0.87641131  1  0  -0.862544  0  1.875368  0  0  -0.797958  0  2.087529  0  0  -0.819194  0  2.048914  0  0  -0.58666  -0.782994  0  2.11441  0
O  O36  1  0.50648938  0.14128197  0.45659090  1  0  -0.862221  0  1.875932  0  0  -0.797354  0  2.088112  0  0  -0.81858  0  2.049424  0  0  -0.586423  -0.7824  0  2.115032  0
O  O37  1  0.63435946  0.49360502  0.12359752  1  0  -0.862536  0  1.875336  0  0  -0.798009  0  2.087582  0  0  -0.819218  0  2.048909  0  0  -0.586653  -0.783047  0  2.114464  0
O  O38  1  0.85874027  0.36479488  0.78970574  1  0  -0.862681  0  1.875937  0  0  -0.79766  0  2.088273  0  0  -0.818918  0  2.049543  0  0  -0.586843  -0.782656  0  2.115228  0
