# generated using pymatgen
data_ZnH17C15N5O6
_symmetry_space_group_name_H-M   'P 1'
_cell_length_a   8.98288678
_cell_length_b   9.59548692
_cell_length_c   11.74914776
_cell_angle_alpha   113.56048179
_cell_angle_beta   89.99985671
_cell_angle_gamma   90.00001388
_symmetry_Int_Tables_number   1
_chemical_formula_structural   ZnH17C15N5O6
_chemical_formula_sum   'Zn2 H34 C30 N10 O12'
_cell_volume   928.29811875
_cell_formula_units_Z   2
loop_
 _symmetry_equiv_pos_site_id
 _symmetry_equiv_pos_as_xyz
  1  'x, y, z'
loop_
 _atom_site_type_symbol
 _atom_site_label
 _atom_site_symmetry_multiplicity
 _atom_site_fract_x
 _atom_site_fract_y
 _atom_site_fract_z
 _atom_site_occupancy
 _atom_site_pbe_bader_spin_density
 _atom_site_pbe_cm5_charge
 _atom_site_pbe_ddec_charge
 _atom_site_pbe_ddec_spin_density
 _atom_site_pbe_ddec_sum_bond_order
 _atom_site_pbe_magmom
Zn  Zn0  1  0.65764039  0.20776657  0.07499321  1  0  0.707392  0.734961  0  2.427969  0
Zn  Zn1  1  0.15764056  0.79223189  0.92500544  1  0  0.707378  0.734972  0  2.427911  0
H  H2  1  0.51743908  0.41662337  0.25907976  1  0  0.287545  0.28083  0  1.005126  0
H  H3  1  0.01743980  0.58337521  0.74091920  1  0  0.287547  0.280842  0  1.005111  0
H  H4  1  0.49568880  0.24761852  0.26386080  1  0  0.291955  0.284786  0  0.976682  0
H  H5  1  0.99568883  0.75238080  0.73613919  1  0  0.291958  0.284804  0  0.976667  0
H  H6  1  0.65924764  0.59889385  0.93698998  1  0  0.302312  0.281596  0  1.003117  0
H  H7  1  0.15924831  0.40110575  0.06300904  1  0  0.30233  0.2816  0  1.003108  0
H  H8  1  0.80547072  0.49626548  0.56259385  1  0  0.306744  0.269823  0  0.995754  0
H  H9  1  0.30547019  0.50373399  0.43740485  1  0  0.306708  0.269771  0  0.995707  0
H  H10  1  0.65471699  0.93729696  0.16993675  1  0  0.106712  0.109564  0  1.055177  0
H  H11  1  0.15471617  0.06270150  0.83006275  1  0  0.106725  0.109568  0  1.055196  0
H  H12  1  0.79022129  0.68551551  0.16602637  1  0  0.100948  0.111661  0  0.963046  0
H  H13  1  0.29022164  0.31448398  0.83397321  1  0  0.100928  0.111623  0  0.963001  0
H  H14  1  0.98750533  0.68244606  0.15414117  1  0  0.09734  0.104677  0  1.013865  0
H  H15  1  0.48750452  0.31755213  0.84585676  1  0  0.097336  0.104677  0  1.013849  0
H  H16  1  0.98583530  0.53138574  0.93607447  1  0  0.11495  0.082396  0  1.020577  0
H  H17  1  0.48583487  0.46861358  0.06392383  1  0  0.114957  0.082441  0  1.020576  0
H  H18  1  0.98898780  0.09179728  0.99791719  1  0  0.118261  0.080499  0  1.071027  0
H  H19  1  0.48899103  0.90819977  0.00208292  1  0  0.118237  0.080465  0  1.071031  0
H  H20  1  0.55666628  0.43928559  0.70281152  1  0  0.119599  0.11294  0  0.987684  0
H  H21  1  0.05666623  0.56071523  0.29718894  1  0  0.119598  0.112937  0  0.98767  0
H  H22  1  0.60611692  0.63181529  0.74955287  1  0  0.117395  0.116675  0  0.958618  0
H  H23  1  0.10611586  0.36818549  0.25044578  1  0  0.1174  0.116675  0  0.958599  0
H  H24  1  0.75889695  0.44676983  0.35054705  1  0  0.117663  0.115188  0  0.967313  0
H  H25  1  0.25889908  0.55323082  0.64945212  1  0  0.11767  0.11517  0  0.967345  0
H  H26  1  0.74860737  0.25954924  0.34226632  1  0  0.116937  0.111215  0  0.966076  0
H  H27  1  0.24860841  0.74045029  0.65773335  1  0  0.116929  0.111215  0  0.966066  0
H  H28  1  0.93489147  0.88559737  0.46506241  1  0  0.123854  0.102857  0  1.023393  0
H  H29  1  0.43489608  0.11440542  0.53493967  1  0  0.123879  0.102897  0  1.023373  0
H  H30  1  0.95421575  0.20099701  0.55451422  1  0  0.109153  0.143818  0  1.033158  0
H  H31  1  0.45421750  0.79900576  0.44548867  1  0  0.109185  0.143849  0  1.033142  0
H  H32  1  0.34791129  0.82727463  0.22126567  1  0  0.108422  0.061283  0  0.989261  0
H  H33  1  0.84791437  0.17272596  0.77873671  1  0  0.108423  0.061271  0  0.989296  0
H  H34  1  0.19659425  0.25095903  0.43446984  1  0  0.11511  0.141227  0  1.016392  0
H  H35  1  0.69659595  0.74903940  0.56553128  1  0  0.1151  0.141254  0  1.016353  0
C  C36  1  0.85835104  0.40683234  0.01747417  1  0  0.211208  0.5649  0  4.185618  0
C  C37  1  0.35835098  0.59316709  0.98252526  1  0  0.211187  0.564901  0  4.185525  0
C  C38  1  0.87448610  0.83454128  0.09000795  1  0  0.058862  0.165178  0  4.026921  0
C  C39  1  0.37448616  0.16545814  0.90999230  1  0  0.058875  0.165214  0  4.02692  0
C  C40  1  0.75925696  0.93820677  0.12373521  1  0  -0.028207  -0.128949  0  3.989257  0
C  C41  1  0.25925710  0.06179275  0.87626444  1  0  -0.028183  -0.128911  0  3.989202  0
C  C42  1  0.88387836  0.68875496  0.10662676  1  0  -0.152404  -0.242657  0  3.945903  0
C  C43  1  0.38387851  0.31124445  0.89337262  1  0  -0.152421  -0.242651  0  3.94583  0
C  C44  1  0.60458665  0.41538427  0.48035824  1  0  0.239438  0.494123  0  4.10125  0
C  C45  1  0.10458476  0.58461310  0.51964015  1  0  0.239395  0.494084  0  4.101386  0
C  C46  1  0.77933957  0.49191180  0.77840898  1  0  0.240201  0.491678  0  4.095751  0
C  C47  1  0.27933975  0.50808770  0.22159062  1  0  0.24021  0.49167  0  4.095777  0
C  C48  1  0.87880170  0.54450457  0.98388368  1  0  0.008625  0.020355  0  3.858727  0
C  C49  1  0.37880142  0.45549485  0.01611571  1  0  0.00859  0.020242  0  3.858814  0
C  C50  1  0.93045585  0.02025926  0.03480561  1  0  0.110683  0.138685  0  4.034504  0
C  C51  1  0.43045816  0.97973897  0.96519415  1  0  0.110695  0.138704  0  4.034474  0
C  C52  1  0.64915883  0.51496197  0.70411344  1  0  -0.052525  -0.142994  0  3.928434  0
C  C53  1  0.14915876  0.48503763  0.29588560  1  0  -0.052528  -0.142949  0  3.928408  0
C  C54  1  0.68096319  0.36002754  0.35364140  1  0  -0.064186  -0.117164  0  3.909009  0
C  C55  1  0.18096424  0.63997090  0.64635635  1  0  -0.064139  -0.11708  0  3.908989  0
C  C56  1  0.01107490  0.95991837  0.44409943  1  0  0.016851  0.075418  0  3.847781  0
C  C57  1  0.51107756  0.04008363  0.55590235  1  0  0.016835  0.075386  0  3.8478  0
C  C58  1  0.02402824  0.11559569  0.48607294  1  0  -0.111964  -0.181127  0  3.996866  0
C  C59  1  0.52403126  0.88440630  0.51392796  1  0  -0.112006  -0.181163  0  3.996897  0
C  C60  1  0.20597776  0.00174230  0.34824974  1  0  0.053945  0.099967  0  3.996564  0
C  C61  1  0.70597924  0.99825613  0.65174965  1  0  0.05394  0.099998  0  3.996521  0
C  C62  1  0.33243291  0.95241147  0.26680251  1  0  0.087911  0.217627  0  4.034573  0
C  C63  1  0.83243499  0.04759027  0.73319942  1  0  0.08791  0.217629  0  4.034565  0
C  C64  1  0.14958041  0.14240552  0.42442012  1  0  -0.087998  -0.146298  0  3.926896  0
C  C65  1  0.64958100  0.85759295  0.57558111  1  0  -0.088008  -0.14636  0  3.926852  0
N  N66  1  0.98278546  0.88792064  0.03296886  1  0  -0.381397  -0.364846  0  3.548391  0
N  N67  1  0.48278644  0.11208097  0.96703189  1  0  -0.381388  -0.364851  0  3.54838  0
N  N68  1  0.57351125  0.31948552  0.25181336  1  0  -0.632  -0.541518  0  3.417886  0
N  N69  1  0.07351198  0.68051415  0.74818584  1  0  -0.632039  -0.541597  0  3.417905  0
N  N70  1  0.76304951  0.55505648  0.90172406  1  0  -0.413515  -0.365927  0  3.578966  0
N  N71  1  0.26304897  0.44494303  0.09827558  1  0  -0.413515  -0.365878  0  3.578976  0
N  N72  1  0.79557930  0.05525073  0.08815955  1  0  -0.388718  -0.314028  0  3.662463  0
N  N73  1  0.29558178  0.94474990  0.91184295  1  0  -0.38873  -0.314047  0  3.662459  0
N  N74  1  0.69607824  0.47858124  0.57786020  1  0  -0.422195  -0.342203  0  3.619403  0
N  N75  1  0.19607666  0.52141832  0.42213788  1  0  -0.422147  -0.342189  0  3.619429  0
O  O76  1  0.72219436  0.36520257  0.01836081  1  0  -0.329913  -0.541016  0  2.391791  0
O  O77  1  0.22219431  0.63479698  0.98163977  1  0  -0.329898  -0.541019  0  2.391826  0
O  O78  1  0.96940549  0.34837862  0.04569108  1  0  -0.310088  -0.543682  0  2.21424  0
O  O79  1  0.46940553  0.65162072  0.95430896  1  0  -0.31008  -0.543668  0  2.214103  0
O  O80  1  0.46808263  0.39790275  0.49073098  1  0  -0.31612  -0.533203  0  2.150921  0
O  O81  1  0.96808225  0.60209545  0.50926784  1  0  -0.316107  -0.533176  0  2.150991  0
O  O82  1  0.89447524  0.42229696  0.72423158  1  0  -0.318794  -0.534786  0  2.15849  0
O  O83  1  0.39447415  0.57770358  0.27576815  1  0  -0.318777  -0.53477  0  2.158498  0
O  O84  1  0.42115597  0.04026178  0.24861401  1  0  -0.262576  -0.373354  0  2.219669  0
O  O85  1  0.92115711  0.95973874  0.75138736  1  0  -0.262582  -0.373365  0  2.219674  0
O  O86  1  0.11984407  0.88876492  0.36090590  1  0  -0.117418  -0.100195  0  2.608656  0
O  O87  1  0.61984648  0.11123699  0.63909564  1  0  -0.117378  -0.100165  0  2.608624  0
