# generated using pymatgen
data_AlH8C16BrO6
_symmetry_space_group_name_H-M   'P 1'
_cell_length_a   6.64300798
_cell_length_b   20.27073168
_cell_length_c   23.04197765
_cell_angle_alpha   86.70185977
_cell_angle_beta   90.00178744
_cell_angle_gamma   90.00116556
_symmetry_Int_Tables_number   1
_chemical_formula_structural   AlH8C16BrO6
_chemical_formula_sum   'Al4 H32 C64 Br4 O24'
_cell_volume   3097.66197593
_cell_formula_units_Z   4
loop_
 _symmetry_equiv_pos_site_id
 _symmetry_equiv_pos_as_xyz
  1  'x, y, z'
loop_
 _atom_site_type_symbol
 _atom_site_label
 _atom_site_symmetry_multiplicity
 _atom_site_fract_x
 _atom_site_fract_y
 _atom_site_fract_z
 _atom_site_occupancy
 _atom_site_pbe_bader_charge
 _atom_site_pbe_bader_spin_density
 _atom_site_pbe_cm5_charge
 _atom_site_pbe_ddec_charge
 _atom_site_pbe_ddec_spin_density
 _atom_site_pbe_ddec_sum_bond_order
 _atom_site_pbe_magmom
Al  Al0  1  0.78490176  0.24741579  0.75153880  1  2.502139  0  0.395922  1.648611  0  2.568823  0
Al  Al1  1  0.21509005  0.75258635  0.24845930  1  2.502163  0  0.395949  1.64844  0  2.568882  0
Al  Al2  1  0.28489934  0.25258938  0.74846225  1  2.502339  0  0.395796  1.648649  0  2.568792  0
Al  Al3  1  0.71509699  0.74741125  0.25153628  1  2.50223  0  0.39581  1.648632  0  2.568767  0
H  H4  1  0.77958003  0.40146802  0.00252914  1  0.096826  0  0.115923  0.134186  0  0.984523  0
H  H5  1  0.22043286  0.59851851  0.99748111  1  0.097042  0  0.116003  0.134356  0  0.984449  0
H  H6  1  0.27958952  0.09852247  0.49746292  1  0.097123  0  0.115994  0.134298  0  0.984534  0
H  H7  1  0.72043842  0.90147468  0.50254344  1  0.097018  0  0.11592  0.134211  0  0.984474  0
H  H8  1  0.29011315  0.35306849  0.58884937  1  0.084236  0  0.114012  0.123494  0  0.989994  0
H  H9  1  0.70988920  0.64692744  0.41114568  1  0.084271  0  0.114034  0.123528  0  0.990019  0
H  H10  1  0.79013202  0.14693387  0.91114998  1  0.084077  0  0.113954  0.123407  0  0.990006  0
H  H11  1  0.20987786  0.85307492  0.08885203  1  0.08434  0  0.114037  0.123524  0  0.989996  0
H  H12  1  0.57288633  0.52999638  0.59255284  1  0.102525  0  0.094073  0.098358  0  1.041255  0
H  H13  1  0.42710849  0.46999545  0.40743699  1  0.10221  0  0.094079  0.098351  0  1.04112  0
H  H14  1  0.07287917  0.97000467  0.90744123  1  0.102346  0  0.094061  0.09831  0  1.041233  0
H  H15  1  0.92710813  0.03000972  0.09256558  1  0.101569  0  0.094046  0.098271  0  1.041101  0
H  H16  1  0.55932840  0.60457284  0.50461410  1  0.079178  0  0.110037  0.115937  0  0.974621  0
H  H17  1  0.44068750  0.39542582  0.49537704  1  0.079731  0  0.110008  0.115882  0  0.974594  0
H  H18  1  0.05931234  0.89543158  0.99537984  1  0.079563  0  0.110059  0.115961  0  0.974562  0
H  H19  1  0.94069151  0.10457654  0.00462478  1  0.079632  0  0.109995  0.115814  0  0.974674  0
H  H20  1  0.51698012  0.56081122  0.05227398  1  0.070443  0  0.097033  0.095929  0  1.006465  0
H  H21  1  0.61477542  0.56451834  0.12462078  1  0.095423  0  0.098206  0.105921  0  1.011175  0
H  H22  1  0.41713668  0.50731610  0.10978102  1  0.077807  0  0.107107  0.116314  0  0.973011  0
H  H23  1  0.38516973  0.43552514  0.87530475  1  0.097208  0  0.098343  0.106375  0  1.011165  0
H  H24  1  0.48285213  0.43909904  0.94767404  1  0.0698  0  0.097123  0.096408  0  1.006305  0
H  H25  1  0.58289428  0.49265788  0.89024749  1  0.078132  0  0.107045  0.116275  0  0.973036  0
H  H26  1  0.01677507  0.93928464  0.44778029  1  0.071212  0  0.097087  0.096088  0  1.006234  0
H  H27  1  0.11469683  0.93540956  0.37546250  1  0.096046  0  0.098187  0.106054  0  1.011297  0
H  H28  1  0.91719409  0.99271326  0.39018212  1  0.076554  0  0.107219  0.116376  0  0.972864  0
H  H29  1  0.88507973  0.06444493  0.62476762  1  0.094857  0  0.098423  0.106425  0  1.011088  0
H  H30  1  0.98268688  0.06096828  0.55238584  1  0.071217  0  0.097213  0.096476  0  1.006255  0
H  H31  1  0.08289557  0.00736455  0.60976866  1  0.076597  0  0.107087  0.116388  0  0.973107  0
H  H32  1  0.54743384  0.33358687  0.72907394  1  0.639792  0  0.324987  0.400206  0  0.920938  0
H  H33  1  0.45255798  0.66641330  0.27091677  1  0.636945  0  0.324966  0.400149  0  0.920984  0
H  H34  1  0.04743332  0.16641846  0.77092839  1  0.639936  0  0.324971  0.400146  0  0.921019  0
H  H35  1  0.95256301  0.83358934  0.22908102  1  0.63688  0  0.324942  0.400114  0  0.921016  0
C  C36  1  0.52908384  0.16339619  0.82708712  1  1.612679  0  0.27121  0.65993  0  4.077169  0
C  C37  1  0.47092001  0.83660912  0.17291532  1  1.612433  0  0.271245  0.659886  0  4.077199  0
C  C38  1  0.02906651  0.33660412  0.67291459  1  1.612644  0  0.271324  0.660006  0  4.076921  0
C  C39  1  0.97093132  0.66339184  0.32708002  1  1.612295  0  0.271137  0.659653  0  4.077328  0
C  C40  1  0.53299170  0.17656559  0.67034432  1  1.647155  0  0.267542  0.704783  0  4.187167  0
C  C41  1  0.46698356  0.82343557  0.32965378  1  1.647492  0  0.267535  0.704877  0  4.187205  0
C  C42  1  0.03300902  0.32343544  0.82965439  1  1.647495  0  0.267383  0.704436  0  4.187562  0
C  C43  1  0.96699333  0.67656836  0.17034110  1  1.64821  0  0.267313  0.704193  0  4.187748  0
C  C44  1  0.84256358  0.49215162  0.04164390  1  0.508234  0  0.087164  0.200143  0  4.056645  0
C  C45  1  0.15746888  0.50783421  0.95836940  1  0.50821  0  0.087313  0.200654  0  4.056441  0
C  C46  1  0.34259258  0.00784306  0.45835136  1  0.508292  0  0.087148  0.200132  0  4.056285  0
C  C47  1  0.65746246  0.99216007  0.54164674  1  0.5079  0  0.087249  0.200411  0  4.056736  0
C  C48  1  0.96971235  0.54877408  0.04071800  1  0.108483  0  -0.007778  0.032773  0  4.119699  0
C  C49  1  0.03032010  0.45121347  0.95929182  1  0.106709  0  -0.007835  0.032694  0  4.120124  0
C  C50  1  0.46975151  0.95121588  0.45928689  1  0.107495  0  -0.007635  0.032769  0  4.11971  0
C  C51  1  0.53031858  0.04877744  0.54071034  1  0.107106  0  -0.007865  0.032545  0  4.119849  0
C  C52  1  0.12246702  0.55541980  0.99832256  1  0.013001  0  -0.087407  -0.224078  0  3.969217  0
C  C53  1  0.87755339  0.44456827  0.00168683  1  0.013378  0  -0.087269  -0.223757  0  3.969315  0
C  C54  1  0.62247645  0.94457315  0.50169500  1  0.01293  0  -0.08751  -0.223995  0  3.969334  0
C  C55  1  0.37756203  0.05542496  0.49831179  1  0.01303  0  -0.0874  -0.223875  0  3.969274  0
C  C56  1  0.96106766  0.59539232  0.08388965  1  -0.410827  0  -0.018183  -0.00827  0  4.106083  0
C  C57  1  0.03892566  0.40459815  0.91612061  1  -0.410614  0  -0.018298  -0.008548  0  4.106455  0
C  C58  1  0.46111186  0.90460350  0.41611516  1  -0.410046  0  -0.018305  -0.008348  0  4.106338  0
C  C59  1  0.53890253  0.09540306  0.58388337  1  -0.409019  0  -0.018183  -0.008252  0  4.105876  0
C  C60  1  0.03366747  0.36550584  0.87788196  1  0.161189  0  -0.037156  -0.199017  0  3.93702  0
C  C61  1  0.96632736  0.63449427  0.12211700  1  0.160511  0  -0.037147  -0.199058  0  3.93721  0
C  C62  1  0.53364139  0.13450001  0.62211850  1  0.159746  0  -0.037146  -0.199227  0  3.937127  0
C  C63  1  0.46635645  0.86550649  0.37788091  1  0.160393  0  -0.03706  -0.199039  0  3.936985  0
C  C64  1  0.16848972  0.38889123  0.58252325  1  0.008124  0  -0.074968  -0.132591  0  3.941547  0
C  C65  1  0.83150660  0.61109979  0.41746397  1  0.00821  0  -0.074932  -0.132462  0  3.941734  0
C  C66  1  0.66849968  0.11110887  0.91747454  1  0.008102  0  -0.074881  -0.132468  0  3.94132  0
C  C67  1  0.33150870  0.88890079  0.08252922  1  0.008243  0  -0.074858  -0.132335  0  3.941186  0
C  C68  1  0.01717638  0.38933540  0.62470971  1  0.012332  0  -0.018219  -0.086661  0  3.993108  0
C  C69  1  0.98282898  0.61065751  0.37527882  1  0.011787  0  -0.018251  -0.086842  0  3.993814  0
C  C70  1  0.51717151  0.11066482  0.87528451  1  0.012086  0  -0.018174  -0.086719  0  3.993341  0
C  C71  1  0.48283837  0.88934225  0.12472099  1  0.011792  0  -0.018269  -0.086934  0  3.993608  0
C  C72  1  0.86102703  0.43610989  0.61814731  1  -0.143555  0  -0.004165  0.043779  0  3.869224  0
C  C73  1  0.13898586  0.56388674  0.38184470  1  -0.143016  0  -0.004223  0.043817  0  3.869355  0
C  C74  1  0.36102739  0.06389071  0.88184922  1  -0.142797  0  -0.004147  0.043899  0  3.869424  0
C  C75  1  0.63899001  0.93611213  0.11815323  1  -0.143072  0  -0.00421  0.043834  0  3.869405  0
C  C76  1  0.84933833  0.48084096  0.56885245  1  0.08969  0  -0.012138  0.025048  0  4.019711  0
C  C77  1  0.15065800  0.51915180  0.43113825  1  0.088764  0  -0.012051  0.024976  0  4.020091  0
C  C78  1  0.34934264  0.01915769  0.93114223  1  0.089219  0  -0.012092  0.024821  0  4.020006  0
C  C79  1  0.65066573  0.98085016  0.06885891  1  0.089024  0  -0.012179  0.024691  0  4.020285  0
C  C80  1  0.00334730  0.47807712  0.52532252  1  -0.067163  0  0.00749  0.014949  0  3.89913  0
C  C81  1  0.99666859  0.52192395  0.47466949  1  -0.011349  0  0.00745  0.014805  0  3.899428  0
C  C82  1  0.50335196  0.02192249  0.97467201  1  -0.011394  0  0.007379  0.014859  0  3.899448  0
C  C83  1  0.49666695  0.97807852  0.02532826  1  -0.067394  0  0.007608  0.015103  0  3.899283  0
C  C84  1  0.16459110  0.43184006  0.53278212  1  0.00945  0  -0.008791  0.071508  0  4.057988  0
C  C85  1  0.83540523  0.56815390  0.46720554  1  0.009915  0  -0.008847  0.071475  0  4.057954  0
C  C86  1  0.66459913  0.06815891  0.96721737  1  0.009888  0  -0.008702  0.071654  0  4.05813  0
C  C87  1  0.33540473  0.93184866  0.03278812  1  0.009979  0  -0.00878  0.071456  0  4.057888  0
C  C88  1  0.69061293  0.52826279  0.55983146  1  -0.058823  0  -0.096218  -0.127985  0  4.020876  0
C  C89  1  0.30938190  0.47173050  0.44015880  1  -0.058484  0  -0.09616  -0.127783  0  4.020686  0
C  C90  1  0.19061067  0.97173647  0.94016543  1  -0.058783  0  -0.096214  -0.127848  0  4.020685  0
C  C91  1  0.80939168  0.02827006  0.05984093  1  -0.057942  0  -0.096093  -0.127589  0  4.020675  0
C  C92  1  0.68341459  0.56963478  0.51104925  1  -0.027537  0  -0.082399  -0.112298  0  3.989159  0
C  C93  1  0.31657722  0.43035822  0.48893797  1  -0.027982  0  -0.082526  -0.112473  0  3.989308  0
C  C94  1  0.18340589  0.93036449  0.98894670  1  -0.027997  0  -0.082605  -0.112511  0  3.989229  0
C  C95  1  0.81659496  0.06964247  0.01106053  1  -0.027915  0  -0.082537  -0.11242  0  3.989313  0
C  C96  1  0.55362588  0.53178428  0.09267681  1  0.321801  0  -0.137529  -0.169078  0  3.887989  0
C  C97  1  0.44635690  0.46818422  0.90730039  1  0.319774  0  -0.13758  -0.169777  0  3.887865  0
C  C98  1  0.05359151  0.96822610  0.40734642  1  0.321656  0  -0.137579  -0.169458  0  3.888159  0
C  C99  1  0.94629042  0.03182568  0.59274345  1  0.322312  0  -0.137771  -0.170136  0  3.88867  0
Br  Br100  1  0.66696012  0.44555719  0.67844565  1  -0.048788  0  0.07494  -0.021741  0  1.500013  0
Br  Br101  1  0.33305126  0.55444350  0.32154462  1  -0.048668  0  0.074963  -0.021725  0  1.499972  0
Br  Br102  1  0.16694483  0.05444519  0.82154735  1  -0.049  0  0.074954  -0.021721  0  1.500022  0
Br  Br103  1  0.83306053  0.94555611  0.17845597  1  -0.048706  0  0.074983  -0.021694  0  1.499915  0
O  O104  1  0.36148345  0.19613473  0.68712898  1  -1.237981  0  -0.232932  -0.582578  0  2.288155  0
O  O105  1  0.63850686  0.80388068  0.31286261  1  -1.23773  0  -0.232844  -0.582601  0  2.288204  0
O  O106  1  0.86149977  0.30387521  0.81286800  1  -1.237827  0  -0.232811  -0.582358  0  2.288536  0
O  O107  1  0.13850107  0.69613815  0.18711707  1  -1.238594  0  -0.232765  -0.582142  0  2.288652  0
O  O108  1  0.70406146  0.18145571  0.81017655  1  -1.252029  0  -0.231401  -0.586192  0  2.335401  0
O  O109  1  0.29594239  0.81855566  0.18983112  1  -1.252063  0  -0.231374  -0.586099  0  2.335274  0
O  O110  1  0.20406890  0.31854669  0.68982766  1  -1.251971  0  -0.231503  -0.586349  0  2.334963  0
O  O111  1  0.79590635  0.68145696  0.31017740  1  -1.251733  0  -0.231483  -0.58634  0  2.334765  0
O  O112  1  0.70428754  0.18897118  0.69216023  1  -1.229004  0  -0.23242  -0.580638  0  2.279956  0
O  O113  1  0.29567868  0.81102066  0.30785177  1  -1.229383  0  -0.232404  -0.580649  0  2.280024  0
O  O114  1  0.20432002  0.31103243  0.80784051  1  -1.229285  0  -0.232301  -0.580501  0  2.280014  0
O  O115  1  0.79567932  0.68896515  0.19215933  1  -1.22919  0  -0.232239  -0.580365  0  2.279804  0
O  O116  1  0.86450459  0.31235202  0.69195502  1  -1.25534  0  -0.230733  -0.592378  0  2.410276  0
O  O117  1  0.13548722  0.68763457  0.30803220  1  -1.255018  0  -0.230577  -0.592071  0  2.410324  0
O  O118  1  0.36449698  0.18764901  0.80804284  1  -1.255323  0  -0.230796  -0.5925  0  2.409784  0
O  O119  1  0.63551289  0.81234713  0.19194916  1  -1.255026  0  -0.230897  -0.592523  0  2.409719  0
O  O120  1  0.53766845  0.29001297  0.74891855  1  -1.451513  0  -0.451177  -0.987772  0  2.219119  0
O  O121  1  0.46232939  0.70998905  0.25107390  1  -1.448716  0  -0.451162  -0.987655  0  2.219205  0
O  O122  1  0.03766238  0.20999067  0.75107847  1  -1.451796  0  -0.451173  -0.987743  0  2.219181  0
O  O123  1  0.96232793  0.79001188  0.24892093  1  -1.448692  0  -0.451128  -0.987643  0  2.219346  0
O  O124  1  0.69094862  0.47906391  0.08064268  1  -1.08497  0  -0.202147  -0.180601  0  2.534969  0
O  O125  1  0.30909889  0.52092767  0.91938063  1  -1.084936  0  -0.2022  -0.180965  0  2.534716  0
O  O126  1  0.19103765  0.02092674  0.41933726  1  -1.084937  0  -0.202249  -0.180539  0  2.535287  0
O  O127  1  0.80910771  0.97907516  0.58063475  1  -1.084634  0  -0.202002  -0.180505  0  2.535258  0
