# generated using pymatgen
data_CdH6C12(N5Cl)2
_symmetry_space_group_name_H-M   'P 1'
_cell_length_a   9.43004696
_cell_length_b   11.15250723
_cell_length_c   15.63024914
_cell_angle_alpha   108.22285563
_cell_angle_beta   89.99995703
_cell_angle_gamma   89.99990713
_symmetry_Int_Tables_number   1
_chemical_formula_structural   CdH6C12(N5Cl)2
_chemical_formula_sum   'Cd4 H24 C48 N40 Cl8'
_cell_volume   1561.37096927
_cell_formula_units_Z   4
loop_
 _symmetry_equiv_pos_site_id
 _symmetry_equiv_pos_as_xyz
  1  'x, y, z'
loop_
 _atom_site_type_symbol
 _atom_site_label
 _atom_site_symmetry_multiplicity
 _atom_site_fract_x
 _atom_site_fract_y
 _atom_site_fract_z
 _atom_site_occupancy
 _atom_site_hle17_bader_spin_density
 _atom_site_hle17_ddec_charge
 _atom_site_hle17_ddec_spin_density
 _atom_site_hle17_ddec_sum_bond_order
 _atom_site_hle17_magmom
 _atom_site_hse06_10hf_bader_spin_density
 _atom_site_hse06_10hf_ddec_charge
 _atom_site_hse06_10hf_ddec_spin_density
 _atom_site_hse06_10hf_ddec_sum_bond_order
 _atom_site_hse06_10hf_magmom
 _atom_site_hse06_bader_spin_density
 _atom_site_hse06_ddec_charge
 _atom_site_hse06_ddec_spin_density
 _atom_site_hse06_ddec_sum_bond_order
 _atom_site_hse06_magmom
 _atom_site_pbe_bader_spin_density
 _atom_site_pbe_cm5_charge
 _atom_site_pbe_ddec_charge
 _atom_site_pbe_ddec_spin_density
 _atom_site_pbe_ddec_sum_bond_order
 _atom_site_pbe_magmom
Cd  Cd0  1  0.62250847  0.57620112  0.12514321  1  0  0.921295  0  1.922664  0  0  0.68486  0  2.395097  0  0  0.734951  0  2.355807  0  0  0.812467  0.648951  0  2.422325  0
Cd  Cd1  1  0.12251047  0.92379875  0.37485638  1  0  0.921356  0  1.922613  0  0  0.684884  0  2.39509  0  0  0.734973  0  2.355801  0  0  0.812489  0.648982  0  2.422324  0
Cd  Cd2  1  0.37749028  0.42379782  0.87485584  1  0  0.921365  0  1.922615  0  0  0.684905  0  2.395097  0  0  0.734997  0  2.355807  0  0  0.812473  0.648985  0  2.422319  0
Cd  Cd3  1  0.87749252  0.07620302  0.62514458  1  0  0.921361  0  1.922634  0  0  0.684911  0  2.395097  0  0  0.734999  0  2.355811  0  0  0.812476  0.649002  0  2.422326  0
H  H4  1  0.82714715  0.18452708  0.31344545  1  0  0.114835  0  0.928979  0  0  0.126263  0  0.98517  0  0  0.128768  0  0.984593  0  0  0.108443  0.124459  0  0.985658  0
H  H5  1  0.32714642  0.31547088  0.18655391  1  0  0.114779  0  0.929039  0  0  0.126226  0  0.985211  0  0  0.12873  0  0.984637  0  0  0.108406  0.12442  0  0.985693  0
H  H6  1  0.17285371  0.81547281  0.68655381  1  0  0.114845  0  0.928984  0  0  0.126273  0  0.985175  0  0  0.128778  0  0.9846  0  0  0.108438  0.124463  0  0.985664  0
H  H7  1  0.67284809  0.68452807  0.81344450  1  0  0.114809  0  0.928873  0  0  0.126234  0  0.985085  0  0  0.128741  0  0.984506  0  0  0.108382  0.124415  0  0.985569  0
H  H8  1  0.86251362  0.41757907  0.39220762  1  0  0.127227  0  0.947751  0  0  0.128316  0  1.017958  0  0  0.132268  0  1.015911  0  0  0.10992  0.125224  0  1.020121  0
H  H9  1  0.36251237  0.08241883  0.10779043  1  0  0.127192  0  0.947763  0  0  0.128307  0  1.017924  0  0  0.132265  0  1.015856  0  0  0.109922  0.125208  0  1.020082  0
H  H10  1  0.13748831  0.58242177  0.60779121  1  0  0.127204  0  0.947778  0  0  0.128286  0  1.017995  0  0  0.132245  0  1.015942  0  0  0.109916  0.125195  0  1.020166  0
H  H11  1  0.63748638  0.91758106  0.89220883  1  0  0.127183  0  0.947793  0  0  0.128284  0  1.017975  0  0  0.132244  0  1.015907  0  0  0.109905  0.125184  0  1.020137  0
H  H12  1  0.77151186  0.56980135  0.31514045  1  0  0.091898  0  0.939463  0  0  0.091496  0  1.016412  0  0  0.09494  0  1.012481  0  0  0.116728  0.088853  0  1.019518  0
H  H13  1  0.27151302  0.93019543  0.18485837  1  0  0.091952  0  0.939283  0  0  0.091432  0  1.016371  0  0  0.094872  0  1.012441  0  0  0.116731  0.088791  0  1.019462  0
H  H14  1  0.22848583  0.43019948  0.68485966  1  0  0.091877  0  0.939474  0  0  0.091492  0  1.016382  0  0  0.094937  0  1.012451  0  0  0.116736  0.08885  0  1.019497  0
H  H15  1  0.72848891  0.06980445  0.81514153  1  0  0.09192  0  0.939345  0  0  0.091461  0  1.016363  0  0  0.094902  0  1.01243  0  0  0.116728  0.088817  0  1.019467  0
H  H16  1  0.01853324  0.64793651  0.82124844  1  0  0.102777  0  0.968024  0  0  0.111883  0  1.032549  0  0  0.113466  0  1.03347  0  0  0.102595  0.110765  0  1.03191  0
H  H17  1  0.51853489  0.85206368  0.67875170  1  0  0.10274  0  0.968021  0  0  0.111841  0  1.032562  0  0  0.113423  0  1.033485  0  0  0.102581  0.110722  0  1.031917  0
H  H18  1  0.98146550  0.35206431  0.17875231  1  0  0.102774  0  0.968013  0  0  0.111881  0  1.032538  0  0  0.113464  0  1.033462  0  0  0.102595  0.110768  0  1.031908  0
H  H19  1  0.48146386  0.14793526  0.32124798  1  0  0.102651  0  0.967904  0  0  0.111748  0  1.032468  0  0  0.113331  0  1.03339  0  0  0.102538  0.110634  0  1.031837  0
H  H20  1  0.88917706  0.44134600  0.78716979  1  0  0.114164  0  0.944573  0  0  0.1197  0  1.009111  0  0  0.122927  0  1.00816  0  0  0.106744  0.117249  0  1.010192  0
H  H21  1  0.38917996  0.05865482  0.71283126  1  0  0.114156  0  0.944595  0  0  0.1197  0  1.009116  0  0  0.122928  0  1.008164  0  0  0.106725  0.117254  0  1.010184  0
H  H22  1  0.11082169  0.55865388  0.21283075  1  0  0.114149  0  0.944594  0  0  0.119689  0  1.009129  0  0  0.122916  0  1.008177  0  0  0.106712  0.117246  0  1.010207  0
H  H23  1  0.61082197  0.94134507  0.28716927  1  0  0.114193  0  0.944529  0  0  0.119732  0  1.009073  0  0  0.122959  0  1.008121  0  0  0.106743  0.11729  0  1.010142  0
H  H24  1  0.75458597  0.39609806  0.91122405  1  0  0.080777  0  0.965626  0  0  0.077888  0  1.049168  0  0  0.08115  0  1.045859  0  0  0.111361  0.075326  0  1.051966  0
H  H25  1  0.25458469  0.10390300  0.58877711  1  0  0.080773  0  0.965547  0  0  0.077883  0  1.049099  0  0  0.081145  0  1.04579  0  0  0.111348  0.075326  0  1.051899  0
H  H26  1  0.24541490  0.60390277  0.08877733  1  0  0.080786  0  0.965524  0  0  0.077904  0  1.049069  0  0  0.081166  0  1.045761  0  0  0.111353  0.075344  0  1.051866  0
H  H27  1  0.74541617  0.89609878  0.41122321  1  0  0.08084  0  0.965772  0  0  0.077988  0  1.049261  0  0  0.081251  0  1.045945  0  0  0.111381  0.075409  0  1.052075  0
C  C28  1  0.59554073  0.27892007  0.07548735  1  0  0.222044  0  3.804056  0  0  0.19953  0  4.0739  0  0  0.207401  0  4.091495  0  0  0.20238  0.194416  0  4.061809  0
C  C29  1  0.09553776  0.22107735  0.42451135  1  0  0.222127  0  3.804075  0  0  0.199709  0  4.073804  0  0  0.207583  0  4.091395  0  0  0.202465  0.194607  0  4.061712  0
C  C30  1  0.40446014  0.72107982  0.92451191  1  0  0.222036  0  3.804147  0  0  0.199578  0  4.073907  0  0  0.207452  0  4.091499  0  0  0.202415  0.194474  0  4.061799  0
C  C31  1  0.90446099  0.77892159  0.57548769  1  0  0.222097  0  3.804086  0  0  0.199647  0  4.073878  0  0  0.207519  0  4.091471  0  0  0.202443  0.194559  0  4.061775  0
C  C32  1  0.71944360  0.21412076  0.20039895  1  0  0.053757  0  3.774851  0  0  0.062214  0  4.046265  0  0  0.061902  0  4.066599  0  0  0.017211  0.062078  0  4.032597  0
C  C33  1  0.21943959  0.28587643  0.29960156  1  0  0.053799  0  3.774809  0  0  0.06228  0  4.046203  0  0  0.061968  0  4.066536  0  0  0.017199  0.062147  0  4.032534  0
C  C34  1  0.28055727  0.78588007  0.79960116  1  0  0.053696  0  3.774973  0  0  0.062225  0  4.046269  0  0  0.061914  0  4.066601  0  0  0.017222  0.062097  0  4.032578  0
C  C35  1  0.78056021  0.71412062  0.70039961  1  0  0.053635  0  3.775013  0  0  0.062174  0  4.046347  0  0  0.061862  0  4.06668  0  0  0.017203  0.062048  0  4.032658  0
C  C36  1  0.67154133  0.30520778  0.16147183  1  0  0.1096  0  3.763046  0  0  0.100267  0  4.008283  0  0  0.105714  0  4.028299  0  0  0.114685  0.096668  0  3.994587  0
C  C37  1  0.17153958  0.19478951  0.33852553  1  0  0.109589  0  3.763019  0  0  0.100212  0  4.008244  0  0  0.10566  0  4.028257  0  0  0.114706  0.096602  0  3.994559  0
C  C38  1  0.32845847  0.69479210  0.83852807  1  0  0.10972  0  3.763136  0  0  0.100375  0  4.008308  0  0  0.105822  0  4.028322  0  0  0.114736  0.096765  0  3.994602  0
C  C39  1  0.82845917  0.80520944  0.66147352  1  0  0.109722  0  3.762867  0  0  0.100292  0  4.00816  0  0  0.105741  0  4.028171  0  0  0.114685  0.096663  0  3.994476  0
C  C40  1  0.78910064  0.25488498  0.28377051  1  0  -0.071516  0  3.712313  0  0  -0.098338  0  3.965474  0  0  -0.096537  0  3.983452  0  0  -0.076746  -0.09933  0  3.953235  0
C  C41  1  0.28909999  0.24511398  0.21622973  1  0  -0.071476  0  3.712109  0  0  -0.098324  0  3.965263  0  0  -0.096522  0  3.983243  0  0  -0.076694  -0.099313  0  3.953005  0
C  C42  1  0.21090023  0.74511490  0.71622939  1  0  -0.071579  0  3.712366  0  0  -0.098426  0  3.965505  0  0  -0.096625  0  3.983486  0  0  -0.076783  -0.099423  0  3.953257  0
C  C43  1  0.71090193  0.75488591  0.78377017  1  0  -0.071381  0  3.712125  0  0  -0.098214  0  3.965243  0  0  -0.096413  0  3.983222  0  0  -0.076669  -0.099213  0  3.952975  0
C  C44  1  0.80832202  0.38327939  0.32741172  1  0  -0.096165  0  3.694516  0  0  -0.110462  0  3.952619  0  0  -0.115098  0  3.970792  0  0  -0.080164  -0.107577  0  3.940784  0
C  C45  1  0.30832168  0.11671481  0.17258936  1  0  -0.096193  0  3.694553  0  0  -0.110496  0  3.952674  0  0  -0.115125  0  3.970843  0  0  -0.08023  -0.107596  0  3.940807  0
C  C46  1  0.19167672  0.61672050  0.67258817  1  0  -0.096152  0  3.694529  0  0  -0.110453  0  3.952644  0  0  -0.115092  0  3.970816  0  0  -0.080187  -0.107575  0  3.94082  0
C  C47  1  0.69167813  0.88328318  0.82741075  1  0  -0.096272  0  3.694602  0  0  -0.110562  0  3.952697  0  0  -0.115206  0  3.970892  0  0  -0.080252  -0.107673  0  3.940833  0
C  C48  1  0.75894470  0.46810918  0.28481586  1  0  0.143289  0  3.68383  0  0  0.106823  0  3.946625  0  0  0.114874  0  3.961453  0  0  0.05011  0.101505  0  3.936824  0
C  C49  1  0.25894871  0.03189174  0.21518163  1  0  0.143247  0  3.683711  0  0  0.106853  0  3.946541  0  0  0.114901  0  3.96138  0  0  0.050096  0.101538  0  3.936723  0
C  C50  1  0.24105299  0.53189070  0.71518467  1  0  0.143336  0  3.683794  0  0  0.106872  0  3.946597  0  0  0.114915  0  3.961441  0  0  0.050098  0.10154  0  3.936809  0
C  C51  1  0.74105110  0.96810816  0.78481635  1  0  0.143324  0  3.683698  0  0  0.106889  0  3.946508  0  0  0.114933  0  3.961349  0  0  0.05011  0.10156  0  3.9367  0
C  C52  1  0.90126302  0.73647276  0.12653747  1  0  0.226784  0  3.823078  0  0  0.202755  0  4.095183  0  0  0.210824  0  4.111657  0  0  0.204869  0.197323  0  4.083653  0
C  C53  1  0.40126109  0.76352851  0.37346486  1  0  0.226891  0  3.822855  0  0  0.202713  0  4.095182  0  0  0.210781  0  4.111655  0  0  0.204855  0.197269  0  4.083674  0
C  C54  1  0.09873785  0.26352713  0.87346307  1  0  0.226819  0  3.82297  0  0  0.202779  0  4.095076  0  0  0.210847  0  4.111549  0  0  0.204885  0.197335  0  4.08355  0
C  C55  1  0.59873872  0.23647044  0.62653418  1  0  0.22697  0  3.822757  0  0  0.202801  0  4.095073  0  0  0.21087  0  4.111543  0  0  0.204909  0.197348  0  4.08357  0
C  C56  1  0.89696094  0.66744711  0.03018977  1  0  0.116214  0  3.77422  0  0  0.110146  0  4.012612  0  0  0.115685  0  4.031885  0  0  0.116457  0.106616  0  3.999213  0
C  C57  1  0.39695982  0.83255229  0.46981085  1  0  0.11617  0  3.774304  0  0  0.110116  0  4.012755  0  0  0.115654  0  4.032027  0  0  0.116445  0.10659  0  3.99936  0
C  C58  1  0.10303886  0.33255278  0.96981140  1  0  0.116174  0  3.774259  0  0  0.110131  0  4.012604  0  0  0.11567  0  4.031876  0  0  0.116436  0.106613  0  3.999197  0
C  C59  1  0.60304211  0.16744760  0.53018968  1  0  0.116157  0  3.774434  0  0  0.11009  0  4.012928  0  0  0.115628  0  4.0322  0  0  0.116424  0.106578  0  3.999528  0
C  C60  1  0.96750717  0.70303189  0.96263689  1  0  0.070363  0  3.747737  0  0  0.080612  0  4.010613  0  0  0.080219  0  4.030378  0  0  0.020318  0.080565  0  3.997158  0
C  C61  1  0.46750983  0.79697034  0.53736798  1  0  0.070356  0  3.748027  0  0  0.080623  0  4.010874  0  0  0.080231  0  4.03064  0  0  0.020304  0.080585  0  3.997411  0
C  C62  1  0.03249264  0.29696987  0.03736534  1  0  0.070377  0  3.747924  0  0  0.080622  0  4.010767  0  0  0.080229  0  4.030533  0  0  0.020312  0.080578  0  3.997316  0
C  C63  1  0.53249210  0.20303332  0.46263532  1  0  0.07032  0  3.747658  0  0  0.080577  0  4.010536  0  0  0.080186  0  4.0303  0  0  0.020319  0.080525  0  3.997098  0
C  C64  1  0.96470880  0.62133039  0.87419419  1  0  -0.069896  0  3.7226  0  0  -0.098436  0  3.978767  0  0  -0.096662  0  3.998048  0  0  -0.079095  -0.099505  0  3.965556  0
C  C65  1  0.46471438  0.87866526  0.62580345  1  0  -0.069888  0  3.722561  0  0  -0.098428  0  3.978738  0  0  -0.096658  0  3.998023  0  0  -0.079127  -0.099491  0  3.965517  0
C  C66  1  0.03528677  0.37866573  0.12580422  1  0  -0.069963  0  3.722534  0  0  -0.098507  0  3.978708  0  0  -0.096737  0  3.997996  0  0  -0.079157  -0.099585  0  3.96553  0
C  C67  1  0.53529391  0.12132613  0.37419390  1  0  -0.069727  0  3.722688  0  0  -0.098231  0  3.978817  0  0  -0.09646  0  3.998101  0  0  -0.079078  -0.099302  0  3.965632  0
C  C68  1  0.89161915  0.50776028  0.85506652  1  0  -0.095198  0  3.712314  0  0  -0.111468  0  3.974301  0  0  -0.11661  0  3.994208  0  0  -0.085373  -0.10822  0  3.96134  0
C  C69  1  0.39162024  0.99224493  0.64493650  1  0  -0.095035  0  3.711965  0  0  -0.111314  0  3.973961  0  0  -0.116446  0  3.993849  0  0  -0.085188  -0.108069  0  3.96099  0
C  C70  1  0.10838066  0.49224527  0.14493657  1  0  -0.095005  0  3.711963  0  0  -0.111275  0  3.97395  0  0  -0.11641  0  3.993843  0  0  -0.085168  -0.108041  0  3.961007  0
C  C71  1  0.60837850  0.00776440  0.35506615  1  0  -0.095211  0  3.712408  0  0  -0.11148  0  3.974384  0  0  -0.116628  0  3.994307  0  0  -0.085294  -0.108234  0  3.961417  0
C  C72  1  0.81744558  0.48200180  0.92454766  1  0  0.12979  0  3.713106  0  0  0.09352  0  3.98238  0  0  0.100321  0  3.999087  0  0  0.040032  0.088677  0  3.971414  0
C  C73  1  0.31744661  0.01799537  0.57545068  1  0  0.129666  0  3.713187  0  0  0.093394  0  3.982469  0  0  0.100192  0  3.99918  0  0  0.039958  0.088554  0  3.971511  0
C  C74  1  0.18255422  0.51799431  0.07545075  1  0  0.129671  0  3.713144  0  0  0.093377  0  3.982454  0  0  0.100176  0  3.999164  0  0  0.039944  0.088537  0  3.971491  0
C  C75  1  0.68256062  0.98199696  0.42454688  1  0  0.129754  0  3.712879  0  0  0.093433  0  3.98217  0  0  0.100238  0  3.998868  0  0  0.040007  0.088612  0  3.971217  0
N  N76  1  0.84475947  0.77875680  0.26642973  1  0  -0.06211  0  2.963412  0  0  -0.063143  0  3.251598  0  0  -0.060707  0  3.265848  0  0  -0.088056  -0.064398  0  3.241813  0
N  N77  1  0.34475991  0.72124268  0.23357031  1  0  -0.062102  0  2.963339  0  0  -0.063121  0  3.251488  0  0  -0.060685  0  3.265736  0  0  -0.088047  -0.064368  0  3.241689  0
N  N78  1  0.15524140  0.22124214  0.73356996  1  0  -0.062047  0  2.963473  0  0  -0.063073  0  3.251639  0  0  -0.060636  0  3.265889  0  0  -0.088041  -0.064332  0  3.241856  0
N  N79  1  0.65524096  0.27875720  0.76642959  1  0  -0.062013  0  2.96335  0  0  -0.063023  0  3.251488  0  0  -0.060587  0  3.265737  0  0  -0.088007  -0.064269  0  3.241674  0
N  N80  1  0.80344801  0.71486159  0.18342573  1  0  -0.303243  0  3.1932  0  0  -0.237261  0  3.48373  0  0  -0.254019  0  3.498583  0  0  -0.234536  -0.225285  0  3.473177  0
N  N81  1  0.30344717  0.78513796  0.31657498  1  0  -0.303261  0  3.193086  0  0  -0.237225  0  3.483653  0  0  -0.253981  0  3.498503  0  0  -0.234545  -0.225253  0  3.473103  0
N  N82  1  0.19655286  0.28513829  0.81657417  1  0  -0.303267  0  3.19321  0  0  -0.237279  0  3.483745  0  0  -0.254039  0  3.498598  0  0  -0.234532  -0.225301  0  3.473193  0
N  N83  1  0.69655370  0.21486192  0.68342491  1  0  -0.303329  0  3.193075  0  0  -0.2373  0  3.483654  0  0  -0.254057  0  3.498504  0  0  -0.234555  -0.225323  0  3.473098  0
N  N84  1  0.00297683  0.81376116  0.17279831  1  0  -0.268121  0  2.938658  0  0  -0.261227  0  3.221368  0  0  -0.267374  0  3.234746  0  0  -0.216178  -0.256981  0  3.212487  0
N  N85  1  0.50297755  0.68623703  0.32720223  1  0  -0.268142  0  2.93853  0  0  -0.261207  0  3.221302  0  0  -0.267356  0  3.234683  0  0  -0.216153  -0.25696  0  3.212417  0
N  N86  1  0.99702298  0.18623873  0.82720159  1  0  -0.268149  0  2.938576  0  0  -0.261258  0  3.221307  0  0  -0.267404  0  3.234683  0  0  -0.216195  -0.257008  0  3.212412  0
N  N87  1  0.49702332  0.31376191  0.67279809  1  0  -0.268228  0  2.938519  0  0  -0.261301  0  3.221304  0  0  -0.267451  0  3.234688  0  0  -0.216222  -0.257051  0  3.212412  0
N  N88  1  0.96428056  0.83753681  0.25907846  1  0  -0.12876  0  3.209203  0  0  -0.068301  0  3.516123  0  0  -0.078868  0  3.53123  0  0  -0.122553  -0.060634  0  3.505592  0
N  N89  1  0.46428111  0.66246247  0.24092147  1  0  -0.1288  0  3.20929  0  0  -0.068342  0  3.516196  0  0  -0.078909  0  3.531302  0  0  -0.122577  -0.060668  0  3.505645  0
N  N90  1  0.03572031  0.16246213  0.74092122  1  0  -0.128808  0  3.20931  0  0  -0.068356  0  3.516242  0  0  -0.078923  0  3.531347  0  0  -0.122576  -0.060685  0  3.505699  0
N  N91  1  0.53571976  0.33753742  0.75907906  1  0  -0.128821  0  3.209347  0  0  -0.068365  0  3.516271  0  0  -0.078932  0  3.531377  0  0  -0.122574  -0.060684  0  3.505699  0
N  N92  1  0.69452092  0.42951599  0.20461619  1  0  -0.331203  0  3.214367  0  0  -0.261095  0  3.475705  0  0  -0.278472  0  3.493162  0  0  -0.320196  -0.24935  0  3.463482  0
N  N93  1  0.19451840  0.07048126  0.29538306  1  0  -0.331158  0  3.214166  0  0  -0.261002  0  3.475441  0  0  -0.278381  0  3.492896  0  0  -0.320143  -0.249258  0  3.463222  0
N  N94  1  0.30547676  0.57048390  0.79538371  1  0  -0.33122  0  3.21439  0  0  -0.26112  0  3.475733  0  0  -0.2785  0  3.493189  0  0  -0.320204  -0.249378  0  3.463513  0
N  N95  1  0.80547823  0.92951863  0.70461619  1  0  -0.331207  0  3.214131  0  0  -0.261053  0  3.475452  0  0  -0.27843  0  3.492904  0  0  -0.32015  -0.249318  0  3.463243  0
N  N96  1  0.55266198  0.16709704  0.01807148  1  0  -0.272044  0  2.943935  0  0  -0.254392  0  3.23658  0  0  -0.262486  0  3.247648  0  0  -0.210714  -0.249034  0  3.230083  0
N  N97  1  0.05265978  0.33290140  0.48192746  1  0  -0.272052  0  2.943856  0  0  -0.254423  0  3.236482  0  0  -0.262518  0  3.247556  0  0  -0.210746  -0.249064  0  3.22999  0
N  N98  1  0.44733889  0.83290285  0.98192841  1  0  -0.271997  0  2.943879  0  0  -0.254366  0  3.236527  0  0  -0.262461  0  3.247598  0  0  -0.210729  -0.249011  0  3.230038  0
N  N99  1  0.94733897  0.66709849  0.51807179  1  0  -0.272057  0  2.943921  0  0  -0.254407  0  3.236546  0  0  -0.262502  0  3.24762  0  0  -0.210726  -0.249054  0  3.230064  0
N  N100  1  0.55641148  0.37403864  0.04413043  1  0  -0.306991  0  3.182581  0  0  -0.244617  0  3.457358  0  0  -0.26004  0  3.474237  0  0  -0.244236  -0.233826  0  3.445749  0
N  N101  1  0.05640865  0.12595979  0.45586915  1  0  -0.307071  0  3.1827  0  0  -0.244737  0  3.457482  0  0  -0.260158  0  3.474357  0  0  -0.244284  -0.233945  0  3.445874  0
N  N102  1  0.44359045  0.62596030  0.95586862  1  0  -0.307066  0  3.182625  0  0  -0.244722  0  3.457414  0  0  -0.260147  0  3.474295  0  0  -0.244292  -0.233933  0  3.445806  0
N  N103  1  0.94359116  0.87404010  0.54413010  1  0  -0.307041  0  3.182704  0  0  -0.244696  0  3.45747  0  0  -0.260119  0  3.474354  0  0  -0.244245  -0.233905  0  3.445863  0
N  N104  1  0.48669033  0.19465057  0.95077162  1  0  -0.073818  0  2.928406  0  0  -0.072875  0  3.227806  0  0  -0.070818  0  3.238796  0  0  -0.09946  -0.074064  0  3.220621  0
N  N105  1  0.98669117  0.30534914  0.54922850  1  0  -0.073839  0  2.928344  0  0  -0.072901  0  3.227754  0  0  -0.070844  0  3.238743  0  0  -0.099436  -0.074082  0  3.220571  0
N  N106  1  0.51330948  0.80534932  0.04922828  1  0  -0.073911  0  2.928352  0  0  -0.072978  0  3.22778  0  0  -0.07092  0  3.238771  0  0  -0.099486  -0.074178  0  3.220623  0
N  N107  1  0.01331076  0.69465075  0.45077204  1  0  -0.07393  0  2.928469  0  0  -0.073008  0  3.227884  0  0  -0.07095  0  3.238873  0  0  -0.099531  -0.074196  0  3.220722  0
N  N108  1  0.48962020  0.31877541  0.96652836  1  0  -0.11318  0  3.18786  0  0  -0.061507  0  3.483752  0  0  -0.070422  0  3.500552  0  0  -0.117272  -0.055208  0  3.472187  0
N  N109  1  0.98962023  0.18122429  0.53347176  1  0  -0.1132  0  3.187928  0  0  -0.061529  0  3.483834  0  0  -0.070446  0  3.500634  0  0  -0.11731  -0.05523  0  3.472271  0
N  N110  1  0.51038067  0.68122448  0.03347090  1  0  -0.113109  0  3.187802  0  0  -0.061437  0  3.483696  0  0  -0.070354  0  3.500496  0  0  -0.117261  -0.055148  0  3.472154  0
N  N111  1  0.01038170  0.81877560  0.46652814  1  0  -0.113131  0  3.187921  0  0  -0.061429  0  3.483784  0  0  -0.070344  0  3.500584  0  0  -0.117254  -0.055137  0  3.472243  0
N  N112  1  0.81987661  0.55977541  0.00914419  1  0  -0.340629  0  3.196669  0  0  -0.279337  0  3.460764  0  0  -0.296311  0  3.480193  0  0  -0.318737  -0.26739  0  3.446996  0
N  N113  1  0.31987525  0.94022789  0.49085991  1  0  -0.34061  0  3.196885  0  0  -0.279308  0  3.460986  0  0  -0.296283  0  3.480424  0  0  -0.318743  -0.267364  0  3.447228  0
N  N114  1  0.18012426  0.44022730  0.99085954  1  0  -0.340597  0  3.196803  0  0  -0.279304  0  3.460899  0  0  -0.296279  0  3.480335  0  0  -0.318721  -0.267353  0  3.447124  0
N  N115  1  0.68012349  0.05977954  0.50914488  1  0  -0.340644  0  3.196804  0  0  -0.279337  0  3.46094  0  0  -0.296311  0  3.480374  0  0  -0.318702  -0.267384  0  3.44716  0
Cl  Cl116  1  0.69417349  0.05524367  0.14936928  1  0  -0.038819  0  1.465134  0  0  -0.032537  0  1.718756  0  0  -0.035767  0  1.714133  0  0  0.036719  -0.029811  0  1.722416  0
Cl  Cl117  1  0.19417336  0.44475357  0.35063062  1  0  -0.038823  0  1.465197  0  0  -0.032545  0  1.718811  0  0  -0.035774  0  1.714187  0  0  0.036737  -0.029817  0  1.722471  0
Cl  Cl118  1  0.30582525  0.94475622  0.85063062  1  0  -0.038782  0  1.465224  0  0  -0.032529  0  1.71882  0  0  -0.035758  0  1.714196  0  0  0.036723  -0.02982  0  1.722474  0
Cl  Cl119  1  0.80582326  0.55524537  0.64936907  1  0  -0.03879  0  1.465273  0  0  -0.032529  0  1.718859  0  0  -0.035757  0  1.714235  0  0  0.036718  -0.029816  0  1.722514  0
Cl  Cl120  1  0.05327297  0.84548191  0.98530871  1  0  -0.053146  0  1.443016  0  0  -0.041293  0  1.680898  0  0  -0.045233  0  1.678219  0  0  0.022283  -0.038075  0  1.68289  0
Cl  Cl121  1  0.55327202  0.65451917  0.51469226  1  0  -0.053147  0  1.44305  0  0  -0.041297  0  1.680926  0  0  -0.045235  0  1.678247  0  0  0.022296  -0.038074  0  1.682918  0
Cl  Cl122  1  0.94672790  0.15451892  0.01469268  1  0  -0.05314  0  1.442989  0  0  -0.041291  0  1.680868  0  0  -0.045229  0  1.67819  0  0  0.022287  -0.038071  0  1.68286  0
Cl  Cl123  1  0.44672673  0.34548355  0.48530891  1  0  -0.053155  0  1.443011  0  0  -0.041302  0  1.680899  0  0  -0.045242  0  1.67822  0  0  0.022292  -0.038063  0  1.682895  0
