# generated using pymatgen
data_YbPH3CO6
_symmetry_space_group_name_H-M   'P 1'
_cell_length_a   6.38163955
_cell_length_b   6.81344799
_cell_length_c   8.05113952
_cell_angle_alpha   114.31385795
_cell_angle_beta   101.12926023
_cell_angle_gamma   90.20550267
_symmetry_Int_Tables_number   1
_chemical_formula_structural   YbPH3CO6
_chemical_formula_sum   'Yb2 P2 H6 C2 O12'
_cell_volume   311.66842472
_cell_formula_units_Z   2
loop_
 _symmetry_equiv_pos_site_id
 _symmetry_equiv_pos_as_xyz
  1  'x, y, z'
loop_
 _atom_site_type_symbol
 _atom_site_label
 _atom_site_symmetry_multiplicity
 _atom_site_fract_x
 _atom_site_fract_y
 _atom_site_fract_z
 _atom_site_occupancy
 _atom_site_hle17_bader_spin_density
 _atom_site_hle17_ddec_charge
 _atom_site_hle17_ddec_spin_density
 _atom_site_hle17_ddec_sum_bond_order
 _atom_site_hle17_magmom
 _atom_site_hse06_10hf_bader_spin_density
 _atom_site_hse06_10hf_ddec_charge
 _atom_site_hse06_10hf_ddec_spin_density
 _atom_site_hse06_10hf_ddec_sum_bond_order
 _atom_site_hse06_10hf_magmom
 _atom_site_hse06_bader_spin_density
 _atom_site_hse06_ddec_charge
 _atom_site_hse06_ddec_spin_density
 _atom_site_hse06_ddec_sum_bond_order
 _atom_site_hse06_magmom
 _atom_site_pbe_bader_spin_density
 _atom_site_pbe_cm5_charge
 _atom_site_pbe_ddec_charge
 _atom_site_pbe_ddec_spin_density
 _atom_site_pbe_ddec_sum_bond_order
 _atom_site_pbe_magmom
Yb  Yb0  1  0.11398628  0.21831082  0.93553192  1  0  2.317375  0  1.623785  0  0  2.173459  0  2.082772  0  0  2.304873  0  1.885518  0  0  1.636753  2.141501  0  2.108288  0
Yb  Yb1  1  0.88601004  0.78168301  0.06446313  1  0  2.317371  0  1.623915  0  0  2.173472  0  2.08288  0  0  2.304877  0  1.885652  0  0  1.636733  2.141545  0  2.108343  0
P  P2  1  0.66707827  0.25286228  0.00929453  1  0  1.533333  0  4.846278  0  0  1.349548  0  5.35985  0  0  1.402282  0  5.335071  0  0  0.275266  1.312583  0  5.390396  0
P  P3  1  0.33291174  0.74712918  0.99069201  1  0  1.533391  0  4.845813  0  0  1.349603  0  5.359361  0  0  1.402344  0  5.334575  0  0  0.275338  1.312631  0  5.389933  0
H  H4  1  0.65516879  0.33883430  0.19873747  1  0  -0.123504  0  0.855001  0  0  -0.092896  0  0.933381  0  0  -0.095471  0  0.927634  0  0  0.111065  -0.090984  0  0.937501  0
H  H5  1  0.34483115  0.66115785  0.80126042  1  0  -0.12347  0  0.854927  0  0  -0.092872  0  0.933328  0  0  -0.095443  0  0.927574  0  0  0.111062  -0.090964  0  0.937455  0
H  H6  1  0.12978427  0.28534591  0.30413063  1  0  0.439827  0  0.856668  0  0  0.412717  0  0.91294  0  0  0.423589  0  0.897214  0  0  0.306939  0.405205  0  0.923984  0
H  H7  1  0.87023921  0.71468490  0.69585576  1  0  0.439584  0  0.85686  0  0  0.412445  0  0.913213  0  0  0.423331  0  0.897465  0  0  0.306702  0.404925  0  0.92427  0
H  H8  1  0.13710336  0.51654003  0.30540079  1  0  0.44352  0  0.851748  0  0  0.415125  0  0.909933  0  0  0.426475  0  0.893474  0  0  0.305943  0.407307  0  0.921413  0
H  H9  1  0.86292245  0.48343488  0.69458545  1  0  0.443257  0  0.852021  0  0  0.414849  0  0.910239  0  0  0.426208  0  0.893772  0  0  0.305727  0.407027  0  0.921725  0
C  C10  1  0.99305944  0.11145675  0.49892464  1  0  0.590393  0  3.8996  0  0  0.546407  0  4.188358  0  0  0.57695  0  4.184465  0  0  0.236656  0.525752  0  4.195248  0
C  C11  1  0.00694106  0.88854193  0.50108437  1  0  0.590359  0  3.8996  0  0  0.546332  0  4.188408  0  0  0.576867  0  4.184523  0  0  0.236653  0.525676  0  4.195299  0
O  O12  1  0.80469667  0.05753684  0.96971066  1  0  -1.034335  0  2.108241  0  0  -0.949862  0  2.391361  0  0  -0.998689  0  2.371251  0  0  -0.521829  -0.930696  0  2.404208  0
O  O13  1  0.19530029  0.94246421  0.03028736  1  0  -1.034358  0  2.108248  0  0  -0.949871  0  2.391364  0  0  -0.998701  0  2.371252  0  0  -0.521795  -0.93071  0  2.404216  0
O  O14  1  0.43994532  0.19725368  0.89234178  1  0  -0.922957  0  1.965284  0  0  -0.845526  0  2.241271  0  0  -0.885208  0  2.213954  0  0  -0.492826  -0.826854  0  2.254895  0
O  O15  1  0.56005967  0.80274066  0.10765775  1  0  -0.923046  0  1.965012  0  0  -0.845598  0  2.240971  0  0  -0.885294  0  2.213663  0  0  -0.492891  -0.826926  0  2.254593  0
O  O16  1  0.80518926  0.41748768  0.97844283  1  0  -1.033251  0  2.114144  0  0  -0.948735  0  2.397835  0  0  -0.997451  0  2.377707  0  0  -0.519911  -0.929538  0  2.410639  0
O  O17  1  0.19480419  0.58250823  0.02155353  1  0  -1.03325  0  2.114105  0  0  -0.948839  0  2.398023  0  0  -0.997555  0  2.377887  0  0  -0.519922  -0.929564  0  2.410665  0
O  O18  1  0.01349048  0.27048467  0.65621579  1  0  -0.657423  0  2.108248  0  0  -0.604041  0  2.344433  0  0  -0.638144  0  2.331224  0  0  -0.341012  -0.587549  0  2.351259  0
O  O19  1  0.98650228  0.72951530  0.34377656  1  0  -0.657414  0  2.107975  0  0  -0.604063  0  2.344193  0  0  -0.638162  0  2.33099  0  0  -0.341006  -0.587574  0  2.351019  0
O  O20  1  0.03688521  0.88425033  0.65930220  1  0  -0.656713  0  2.111552  0  0  -0.605098  0  2.349463  0  0  -0.638746  0  2.33678  0  0  -0.338351  -0.588736  0  2.356149  0
O  O21  1  0.96311028  0.11576043  0.34070421  1  0  -0.656708  0  2.111209  0  0  -0.60514  0  2.349114  0  0  -0.638784  0  2.336432  0  0  -0.338296  -0.588784  0  2.355799  0
O  O22  1  0.19746078  0.37483401  0.25458550  1  0  -0.896194  0  1.837235  0  0  -0.850921  0  2.017624  0  0  -0.880283  0  1.977142  0  0  -0.658679  -0.837852  0  2.039998  0
O  O23  1  0.80251155  0.62517776  0.74544857  1  0  -0.895785  0  1.837326  0  0  -0.850495  0  2.017657  0  0  -0.879868  0  1.977174  0  0  -0.658317  -0.83742  0  2.040026  0
