# generated using pymatgen
data_K2H16PtC6I2(NO3)2
_symmetry_space_group_name_H-M   'P 1'
_cell_length_a   5.00550707
_cell_length_b   6.97008614
_cell_length_c   24.23452356
_cell_angle_alpha   89.99982973
_cell_angle_beta   89.99997622
_cell_angle_gamma   94.36757660
_symmetry_Int_Tables_number   1
_chemical_formula_structural   K2H16PtC6I2(NO3)2
_chemical_formula_sum   'K4 H32 Pt2 C12 I4 N4 O12'
_cell_volume   843.05845443
_cell_formula_units_Z   2
loop_
 _symmetry_equiv_pos_site_id
 _symmetry_equiv_pos_as_xyz
  1  'x, y, z'
loop_
 _atom_site_type_symbol
 _atom_site_label
 _atom_site_symmetry_multiplicity
 _atom_site_fract_x
 _atom_site_fract_y
 _atom_site_fract_z
 _atom_site_occupancy
 _atom_site_hle17_bader_spin_density
 _atom_site_hle17_ddec_charge
 _atom_site_hle17_ddec_spin_density
 _atom_site_hle17_ddec_sum_bond_order
 _atom_site_hle17_magmom
 _atom_site_hse06_10hf_bader_spin_density
 _atom_site_hse06_10hf_ddec_charge
 _atom_site_hse06_10hf_ddec_spin_density
 _atom_site_hse06_10hf_ddec_sum_bond_order
 _atom_site_hse06_10hf_magmom
 _atom_site_hse06_bader_spin_density
 _atom_site_hse06_ddec_charge
 _atom_site_hse06_ddec_spin_density
 _atom_site_hse06_ddec_sum_bond_order
 _atom_site_hse06_magmom
 _atom_site_pbe_bader_spin_density
 _atom_site_pbe_cm5_charge
 _atom_site_pbe_ddec_charge
 _atom_site_pbe_ddec_spin_density
 _atom_site_pbe_ddec_sum_bond_order
 _atom_site_pbe_magmom
K  K0  1  0.49975933  0.18242422  0.30105554  1  0  0.915058  0  0.425882  0  0  0.861089  0  0.607298  0  0  0.875203  0  0.585255  0  0  0.648237  0.850445  0  0.623178  0
K  K1  1  0.50021918  0.31756932  0.80105582  1  0  0.915068  0  0.425853  0  0  0.861077  0  0.607295  0  0  0.875189  0  0.585249  0  0  0.648238  0.850432  0  0.62317  0
K  K2  1  0.50023919  0.81756876  0.69894466  1  0  0.915057  0  0.425862  0  0  0.861067  0  0.607288  0  0  0.875177  0  0.585248  0  0  0.64822  0.850404  0  0.623187  0
K  K3  1  0.49977008  0.68243082  0.19894603  1  0  0.915058  0  0.425889  0  0  0.861091  0  0.607293  0  0  0.875205  0  0.585249  0  0  0.648249  0.850428  0  0.62321  0
H  H4  1  0.44702323  0.49684146  0.60924715  1  0  0.083205  0  1.002702  0  0  0.092558  0  1.076601  0  0  0.095167  0  1.075413  0  0  0.080363  0.090568  0  1.077764  0
H  H5  1  0.55297643  0.00315986  0.10924784  1  0  0.083209  0  1.002685  0  0  0.092578  0  1.076593  0  0  0.095192  0  1.075406  0  0  0.080374  0.090585  0  1.07776  0
H  H6  1  0.55298572  0.50315585  0.39075347  1  0  0.0832  0  1.00268  0  0  0.092571  0  1.076573  0  0  0.095187  0  1.075384  0  0  0.080381  0.09058  0  1.077734  0
H  H7  1  0.44702097  0.99684174  0.89075236  1  0  0.083191  0  1.002718  0  0  0.092573  0  1.076599  0  0  0.095185  0  1.075419  0  0  0.080387  0.090585  0  1.077758  0
H  H8  1  0.24648380  0.35012732  0.65445091  1  0  0.118321  0  0.935973  0  0  0.137351  0  0.987457  0  0  0.139458  0  0.98736  0  0  0.113157  0.135788  0  0.987689  0
H  H9  1  0.75351757  0.14987210  0.15445146  1  0  0.118308  0  0.935982  0  0  0.137357  0  0.987464  0  0  0.139471  0  0.987367  0  0  0.113168  0.135794  0  0.987697  0
H  H10  1  0.75352115  0.64986998  0.34554929  1  0  0.11829  0  0.935984  0  0  0.137334  0  0.987463  0  0  0.139448  0  0.987365  0  0  0.113158  0.135767  0  0.987701  0
H  H11  1  0.24647983  0.85012950  0.84554874  1  0  0.118267  0  0.936004  0  0  0.137317  0  0.987488  0  0  0.139432  0  0.987392  0  0  0.113151  0.135755  0  0.987724  0
H  H12  1  0.39856217  0.05570593  0.59811941  1  0  0.043168  0  0.971452  0  0  0.052755  0  1.051138  0  0  0.054  0  1.049985  0  0  0.090691  0.05171  0  1.052226  0
H  H13  1  0.60143153  0.44429550  0.09811972  1  0  0.043175  0  0.97144  0  0  0.052768  0  1.051125  0  0  0.054014  0  1.04997  0  0  0.090688  0.051721  0  1.052216  0
H  H14  1  0.60143893  0.94429280  0.40187996  1  0  0.043139  0  0.971467  0  0  0.052747  0  1.051156  0  0  0.053992  0  1.050003  0  0  0.090683  0.051697  0  1.052257  0
H  H15  1  0.39856587  0.55570610  0.90188048  1  0  0.043175  0  0.971424  0  0  0.052756  0  1.051118  0  0  0.053999  0  1.049964  0  0  0.090688  0.05171  0  1.052214  0
H  H16  1  0.51884465  0.22328871  0.54804201  1  0  0.060264  0  0.927319  0  0  0.070925  0  1.003318  0  0  0.072154  0  1.000976  0  0  0.091866  0.069889  0  1.005137  0
H  H17  1  0.48115105  0.27671180  0.04804207  1  0  0.060214  0  0.927351  0  0  0.070882  0  1.00334  0  0  0.07211  0  1.001  0  0  0.091843  0.069844  0  1.005163  0
H  H18  1  0.48115660  0.77671146  0.45195778  1  0  0.06017  0  0.92732  0  0  0.070853  0  1.003323  0  0  0.072083  0  1.000978  0  0  0.091851  0.069815  0  1.005144  0
H  H19  1  0.51884635  0.72328980  0.95195772  1  0  0.060271  0  0.927303  0  0  0.070934  0  1.003307  0  0  0.072163  0  1.000962  0  0  0.091872  0.0699  0  1.005129  0
H  H20  1  0.07530215  0.33811879  0.54429320  1  0  0.265817  0  0.917247  0  0  0.255806  0  0.978796  0  0  0.26193  0  0.97468  0  0  0.265981  0.251439  0  0.981867  0
H  H21  1  0.92469571  0.16188320  0.04429414  1  0  0.265854  0  0.917192  0  0  0.255851  0  0.978731  0  0  0.261976  0  0.974613  0  0  0.266004  0.25148  0  0.981801  0
H  H22  1  0.92470124  0.66188282  0.45570659  1  0  0.265848  0  0.91723  0  0  0.255848  0  0.978765  0  0  0.261973  0  0.974646  0  0  0.265989  0.251482  0  0.981829  0
H  H23  1  0.07529969  0.83811839  0.95570606  1  0  0.265865  0  0.917224  0  0  0.255846  0  0.978756  0  0  0.261971  0  0.974637  0  0  0.265996  0.251483  0  0.981827  0
H  H24  1  0.96783777  0.18205862  0.59235277  1  0  0.292459  0  0.922171  0  0  0.280698  0  0.978911  0  0  0.28729  0  0.975285  0  0  0.283058  0.276048  0  0.981527  0
H  H25  1  0.03216009  0.31794431  0.09235323  1  0  0.292434  0  0.922183  0  0  0.280671  0  0.97894  0  0  0.287264  0  0.975315  0  0  0.28305  0.276016  0  0.981563  0
H  H26  1  0.03216563  0.81794299  0.40764702  1  0  0.292452  0  0.922141  0  0  0.280619  0  0.979005  0  0  0.287208  0  0.975373  0  0  0.283049  0.275965  0  0.981629  0
H  H27  1  0.96783930  0.68205729  0.90764655  1  0  0.292445  0  0.922193  0  0  0.280668  0  0.978939  0  0  0.28726  0  0.975316  0  0  0.283064  0.276017  0  0.981569  0
H  H28  1  0.98396063  0.48631879  0.26305753  1  0  0.408355  0  0.903275  0  0  0.379014  0  0.96693  0  0  0.390625  0  0.949549  0  0  0.282165  0.37078  0  0.979242  0
H  H29  1  0.01603827  0.01367806  0.76305688  1  0  0.408383  0  0.903242  0  0  0.379041  0  0.966896  0  0  0.390652  0  0.949516  0  0  0.282167  0.370805  0  0.97921  0
H  H30  1  0.01603604  0.51367562  0.73694226  1  0  0.408331  0  0.9033  0  0  0.378983  0  0.966967  0  0  0.390595  0  0.949584  0  0  0.282149  0.370749  0  0.979277  0
H  H31  1  0.98395898  0.98632210  0.23694374  1  0  0.408397  0  0.903225  0  0  0.379057  0  0.966875  0  0  0.390669  0  0.949492  0  0  0.282186  0.370824  0  0.979186  0
H  H32  1  0.96896097  0.37387563  0.20818173  1  0  0.406959  0  0.906728  0  0  0.375791  0  0.973101  0  0  0.38734  0  0.955946  0  0  0.280777  0.367607  0  0.985236  0
H  H33  1  0.03104224  0.12612324  0.70818139  1  0  0.406984  0  0.9067  0  0  0.375817  0  0.973066  0  0  0.387363  0  0.955917  0  0  0.280793  0.367632  0  0.985205  0
H  H34  1  0.03104042  0.62612598  0.79181723  1  0  0.406951  0  0.906752  0  0  0.375787  0  0.973115  0  0  0.387334  0  0.955964  0  0  0.280775  0.3676  0  0.985257  0
H  H35  1  0.96895872  0.87387406  0.29181840  1  0  0.406958  0  0.906727  0  0  0.375791  0  0.973099  0  0  0.387338  0  0.955946  0  0  0.280771  0.367606  0  0.985237  0
Pt  Pt36  1  0.00000138  0.99999885  0.49999993  1  0  0.247037  0  3.06258  0  0  0.210523  0  3.670871  0  0  0.237711  0  3.630698  0  0  0.417097  0.193719  0  3.697488  0
Pt  Pt37  1  0.99999846  0.50000217  0.99999974  1  0  0.247051  0  3.062614  0  0  0.210504  0  3.670906  0  0  0.237694  0  3.630736  0  0  0.417086  0.1937  0  3.697526  0
C  C38  1  0.66173130  0.32687876  0.66502095  1  0  0.717245  0  3.859426  0  0  0.670679  0  4.158892  0  0  0.703162  0  4.151862  0  0  0.200653  0.648593  0  4.162833  0
C  C39  1  0.33827048  0.17312487  0.16502028  1  0  0.71694  0  3.859676  0  0  0.670439  0  4.15909  0  0  0.702932  0  4.15206  0  0  0.200514  0.648364  0  4.163019  0
C  C40  1  0.33828023  0.67312431  0.33498049  1  0  0.716975  0  3.859389  0  0  0.670488  0  4.158768  0  0  0.702981  0  4.151737  0  0  0.200576  0.648413  0  4.162703  0
C  C41  1  0.66172892  0.82687673  0.83497951  1  0  0.716958  0  3.859565  0  0  0.6705  0  4.158918  0  0  0.702994  0  4.151893  0  0  0.200552  0.648423  0  4.162859  0
C  C42  1  0.42353591  0.35188941  0.62740602  1  0  -0.316965  0  3.677026  0  0  -0.347209  0  3.912134  0  0  -0.354729  0  3.921087  0  0  -0.177481  -0.341881  0  3.905783  0
C  C43  1  0.57646126  0.14810740  0.12740658  1  0  -0.316794  0  3.677008  0  0  -0.347121  0  3.912185  0  0  -0.354665  0  3.921169  0  0  -0.177493  -0.3418  0  3.905841  0
C  C44  1  0.57646490  0.64810644  0.37259377  1  0  -0.31679  0  3.676984  0  0  -0.347076  0  3.912133  0  0  -0.35462  0  3.921111  0  0  -0.177464  -0.341751  0  3.90579  0
C  C45  1  0.42353400  0.85189276  0.87259403  1  0  -0.31677  0  3.67699  0  0  -0.347101  0  3.91215  0  0  -0.354651  0  3.921139  0  0  -0.177481  -0.341771  0  3.90579  0
C  C46  1  0.37629197  0.20087523  0.58232948  1  0  0.096817  0  3.611496  0  0  0.036199  0  3.875774  0  0  0.042106  0  3.886088  0  0  -0.084604  0.032402  0  3.868558  0
C  C47  1  0.62370778  0.29912637  0.08233074  1  0  0.09676  0  3.611583  0  0  0.03618  0  3.875826  0  0  0.042092  0  3.88615  0  0  -0.084609  0.032382  0  3.868608  0
C  C48  1  0.62371343  0.79912638  0.41766948  1  0  0.096912  0  3.611401  0  0  0.036302  0  3.875649  0  0  0.042197  0  3.886002  0  0  -0.084602  0.032508  0  3.868434  0
C  C49  1  0.37629147  0.70087380  0.91766988  1  0  0.096765  0  3.611465  0  0  0.036151  0  3.875744  0  0  0.042057  0  3.886082  0  0  -0.084629  0.032355  0  3.868542  0
I  I50  1  0.04653030  0.26806449  0.42457972  1  0  -0.380059  0  1.32415  0  0  -0.361031  0  1.697635  0  0  -0.37435  0  1.671757  0  0  -0.139579  -0.352146  0  1.71609  0
I  I51  1  0.95347070  0.23193644  0.92458003  1  0  -0.380052  0  1.324151  0  0  -0.361011  0  1.697623  0  0  -0.374332  0  1.671749  0  0  -0.13957  -0.352128  0  1.716081  0
I  I52  1  0.95347080  0.73193424  0.57541966  1  0  -0.380066  0  1.324183  0  0  -0.361024  0  1.697664  0  0  -0.374347  0  1.67179  0  0  -0.139578  -0.352126  0  1.716116  0
I  I53  1  0.04652870  0.76806517  0.07541935  1  0  -0.380069  0  1.324191  0  0  -0.361021  0  1.697646  0  0  -0.374342  0  1.671771  0  0  -0.13958  -0.352126  0  1.7161  0
N  N54  1  0.10080445  0.20296549  0.55967008  1  0  -0.491086  0  3.311873  0  0  -0.437075  0  3.565574  0  0  -0.455906  0  3.568133  0  0  -0.637106  -0.424357  0  3.563685  0
N  N55  1  0.89919336  0.29703635  0.05967049  1  0  -0.491094  0  3.311979  0  0  -0.437096  0  3.565705  0  0  -0.455927  0  3.568263  0  0  -0.63711  -0.424364  0  3.563803  0
N  N56  1  0.89919895  0.79703612  0.44032971  1  0  -0.491154  0  3.311796  0  0  -0.437143  0  3.565699  0  0  -0.455963  0  3.568245  0  0  -0.637143  -0.42443  0  3.563815  0
N  N57  1  0.10080389  0.70296382  0.94032930  1  0  -0.491161  0  3.312005  0  0  -0.437092  0  3.565698  0  0  -0.455925  0  3.568256  0  0  -0.637129  -0.424391  0  3.563838  0
O  O58  1  0.71726956  0.45923482  0.70017900  1  0  -0.731407  0  1.986282  0  0  -0.672332  0  2.220032  0  0  -0.698114  0  2.209615  0  0  -0.431392  -0.654161  0  2.226684  0
O  O59  1  0.28272880  0.04075548  0.20018051  1  0  -0.731327  0  1.986144  0  0  -0.672276  0  2.219889  0  0  -0.698074  0  2.209496  0  0  -0.431316  -0.65409  0  2.226494  0
O  O60  1  0.28273022  0.54075096  0.29981914  1  0  -0.731329  0  1.985996  0  0  -0.672291  0  2.219748  0  0  -0.698078  0  2.209329  0  0  -0.431335  -0.654111  0  2.226368  0
O  O61  1  0.71727045  0.95924468  0.79982011  1  0  -0.731344  0  1.986117  0  0  -0.672312  0  2.219859  0  0  -0.698105  0  2.209455  0  0  -0.431343  -0.654123  0  2.22646  0
O  O62  1  0.78769046  0.17505670  0.66008673  1  0  -0.687926  0  1.992616  0  0  -0.620429  0  2.213322  0  0  -0.646259  0  2.204214  0  0  -0.353817  -0.602319  0  2.219098  0
O  O63  1  0.21230875  0.32494122  0.16008800  1  0  -0.687757  0  1.992816  0  0  -0.62033  0  2.213569  0  0  -0.646161  0  2.204456  0  0  -0.353751  -0.602222  0  2.21933  0
O  O64  1  0.21231279  0.82494347  0.33991265  1  0  -0.687789  0  1.992692  0  0  -0.620354  0  2.213426  0  0  -0.64618  0  2.20431  0  0  -0.353801  -0.60223  0  2.219154  0
O  O65  1  0.78768865  0.67506038  0.83991262  1  0  -0.687774  0  1.992821  0  0  -0.62035  0  2.213549  0  0  -0.64616  0  2.204392  0  0  -0.353757  -0.602227  0  2.219272  0
O  O66  1  0.85035140  0.42649528  0.23662007  1  0  -0.923747  0  1.772519  0  0  -0.880029  0  1.943061  0  0  -0.897902  0  1.909604  0  0  -0.721508  -0.86725  0  1.966563  0
O  O67  1  0.14965002  0.07350616  0.73661935  1  0  -0.923801  0  1.772488  0  0  -0.880081  0  1.943033  0  0  -0.897951  0  1.909583  0  0  -0.721537  -0.867303  0  1.966533  0
O  O68  1  0.14964815  0.57350776  0.76338055  1  0  -0.923705  0  1.772569  0  0  -0.87998  0  1.943112  0  0  -0.897856  0  1.909657  0  0  -0.721483  -0.867205  0  1.96661  0
O  O69  1  0.85034923  0.92649400  0.26338044  1  0  -0.92379  0  1.772528  0  0  -0.880072  0  1.943071  0  0  -0.897942  0  1.909616  0  0  -0.72152  -0.867296  0  1.96657  0
