# generated using pymatgen
data_ZnP3H21C19N2O9
_symmetry_space_group_name_H-M   'P 1'
_cell_length_a   9.76094568
_cell_length_b   10.78705170
_cell_length_c   12.63410000
_cell_angle_alpha   105.01006642
_cell_angle_beta   102.02461306
_cell_angle_gamma   114.95662740
_symmetry_Int_Tables_number   1
_chemical_formula_structural   ZnP3H21C19N2O9
_chemical_formula_sum   'Zn2 P6 H42 C38 N4 O18'
_cell_volume   1085.58691497
_cell_formula_units_Z   2
loop_
 _symmetry_equiv_pos_site_id
 _symmetry_equiv_pos_as_xyz
  1  'x, y, z'
loop_
 _atom_site_type_symbol
 _atom_site_label
 _atom_site_symmetry_multiplicity
 _atom_site_fract_x
 _atom_site_fract_y
 _atom_site_fract_z
 _atom_site_occupancy
 _atom_site_hle17_bader_spin_density
 _atom_site_hle17_ddec_charge
 _atom_site_hle17_ddec_spin_density
 _atom_site_hle17_ddec_sum_bond_order
 _atom_site_hle17_magmom
 _atom_site_hse06_10hf_bader_spin_density
 _atom_site_hse06_10hf_ddec_charge
 _atom_site_hse06_10hf_ddec_spin_density
 _atom_site_hse06_10hf_ddec_sum_bond_order
 _atom_site_hse06_10hf_magmom
 _atom_site_hse06_bader_spin_density
 _atom_site_hse06_ddec_charge
 _atom_site_hse06_ddec_spin_density
 _atom_site_hse06_ddec_sum_bond_order
 _atom_site_hse06_magmom
 _atom_site_pbe_bader_charge
 _atom_site_pbe_bader_spin_density
 _atom_site_pbe_cm5_charge
 _atom_site_pbe_ddec_charge
 _atom_site_pbe_ddec_spin_density
 _atom_site_pbe_ddec_sum_bond_order
 _atom_site_pbe_magmom
Zn  Zn0  1  0.33328896  0.54379458  0.87656825  1  0  1.132042  0  1.824775  0  0  0.948256  0  2.299937  0  0  0.991698  0  2.24424  0  1.326563  0  0.717917  0.917128  0  2.339315  0
Zn  Zn1  1  0.66671107  0.45620441  0.12343161  1  0  1.132022  0  1.824782  0  0  0.948241  0  2.299948  0  0  0.991685  0  2.244251  0  1.326565  0  0.717911  0.917112  0  2.339325  0
P  P2  1  0.67116221  0.78159742  0.51933002  1  0  1.528484  0  4.653812  0  0  1.375283  0  5.159446  0  0  1.423341  0  5.119975  0  3.271695  0  0.391217  1.341621  0  5.186746  0
P  P3  1  0.32883843  0.21840268  0.48067019  1  0  1.528458  0  4.653861  0  0  1.375249  0  5.159496  0  0  1.423311  0  5.120018  0  3.271791  0  0.391196  1.341589  0  5.186795  0
P  P4  1  0.28376567  0.33145605  0.03867383  1  0  1.520698  0  4.781641  0  0  1.370207  0  5.279827  0  0  1.418655  0  5.24091  0  3.320873  0  0.362579  1.336216  0  5.305827  0
P  P5  1  0.71623453  0.66854516  0.96132655  1  0  1.520675  0  4.78166  0  0  1.370196  0  5.27985  0  0  1.418645  0  5.240932  0  3.320875  0  0.362577  1.336206  0  5.305847  0
P  P6  1  0.95776637  0.79369683  0.30714526  1  0  1.510584  0  4.705891  0  0  1.347712  0  5.210155  0  0  1.395842  0  5.173065  0  3.327822  0  0.367483  1.313951  0  5.235116  0
P  P7  1  0.04223470  0.20630216  0.69285477  1  0  1.510511  0  4.705988  0  0  1.347668  0  5.210227  0  0  1.395786  0  5.173142  0  3.327829  0  0.367447  1.313909  0  5.23519  0
H  H8  1  0.35030361  0.43030790  0.33881241  1  0  0.106804  0  0.955284  0  0  0.119112  0  1.016418  0  0  0.121849  0  1.015321  0  0.077757  0  0.101164  0.116908  0  1.018015  0
H  H9  1  0.64969493  0.56969221  0.66118666  1  0  0.106774  0  0.955276  0  0  0.119086  0  1.0164  0  0  0.121828  0  1.015295  0  0.077749  0  0.101151  0.116878  0  1.018005  0
H  H10  1  0.02031789  0.48154095  0.09449108  1  0  0.096654  0  0.945727  0  0  0.109792  0  1.008195  0  0  0.112744  0  1.006744  0  0.04919  0  0.096118  0.107542  0  1.009742  0
H  H11  1  0.97968170  0.51845915  0.90550896  1  0  0.096655  0  0.945726  0  0  0.109794  0  1.008191  0  0  0.112747  0  1.006741  0  0.049186  0  0.096119  0.107544  0  1.009739  0
H  H12  1  0.30687144  0.82083440  0.44329106  1  0  0.103953  0  0.946958  0  0  0.116871  0  1.006585  0  0  0.120106  0  1.004939  0  0.07205  0  0.100322  0.114558  0  1.007729  0
H  H13  1  0.69312920  0.17916570  0.55670915  1  0  0.103952  0  0.94696  0  0  0.116873  0  1.006584  0  0  0.120107  0  1.004937  0  0.072036  0  0.100321  0.114561  0  1.007727  0
H  H14  1  0.45714065  0.60483271  0.55663396  1  0  0.154797  0  0.937165  0  0  0.167212  0  0.995216  0  0  0.170233  0  0.993993  0  0.100608  0  0.113318  0.164997  0  0.996244  0
H  H15  1  0.54286042  0.39516628  0.44336607  1  0  0.154797  0  0.937178  0  0  0.167216  0  0.995224  0  0  0.170235  0  0.994002  0  0.100625  0  0.113316  0.165  0  0.996253  0
H  H16  1  0.46095040  0.77678766  0.58733357  1  0  0.126523  0  0.966779  0  0  0.13909  0  1.026581  0  0  0.141556  0  1.026131  0  0.040836  0  0.105229  0.137245  0  1.02719  0
H  H17  1  0.53905024  0.22321244  0.41266663  1  0  0.126515  0  0.966777  0  0  0.139084  0  1.026578  0  0  0.141551  0  1.026128  0  0.040835  0  0.105226  0.13724  0  1.027188  0
H  H18  1  0.01923941  0.24181820  0.04748713  1  0  0.125397  0  0.951483  0  0  0.138332  0  1.01186  0  0  0.140277  0  1.012269  0  0.067089  0  0.101749  0.137142  0  1.011336  0
H  H19  1  0.98075958  0.75818079  0.95251256  1  0  0.125398  0  0.951513  0  0  0.138343  0  1.011875  0  0  0.140287  0  1.012283  0  0.066055  0  0.101749  0.137152  0  1.011351  0
H  H20  1  0.14782452  0.21909264  0.15414221  1  0  0.149801  0  0.925673  0  0  0.165751  0  0.975638  0  0  0.168669  0  0.974293  0  0.082343  0  0.110651  0.163726  0  0.97647  0
H  H21  1  0.85217612  0.78090746  0.84585720  1  0  0.149804  0  0.925671  0  0  0.165752  0  0.975644  0  0  0.168668  0  0.974302  0  0.082335  0  0.110648  0.163732  0  0.976471  0
H  H22  1  0.01444871  0.70343457  0.14058179  1  0  0.143123  0  0.963139  0  0  0.156466  0  1.020462  0  0  0.159628  0  1.018918  0  0.068662  0  0.107352  0.154336  0  1.021446  0
H  H23  1  0.98555088  0.29656553  0.85941745  1  0  0.143112  0  0.963107  0  0  0.156454  0  1.020441  0  0  0.159613  0  1.018898  0  0.068668  0  0.107317  0.154323  0  1.021426  0
H  H24  1  0.18589400  0.86332121  0.25430782  1  0  0.127141  0  0.968226  0  0  0.140248  0  1.029102  0  0  0.142024  0  1.029761  0  0.058927  0  0.104576  0.138956  0  1.028875  0
H  H25  1  0.81410603  0.13667778  0.74569204  1  0  0.127146  0  0.968215  0  0  0.140253  0  1.029096  0  0  0.142028  0  1.029754  0  0.058924  0  0.104585  0.138961  0  1.02887  0
H  H26  1  0.48189692  0.68882528  0.15285960  1  0  0.094934  0  0.915595  0  0  0.104276  0  0.974589  0  0  0.10686  0  0.972433  0  0.122187  0  0.126619  0.102247  0  0.976505  0
H  H27  1  0.51810372  0.31117482  0.84714060  1  0  0.094901  0  0.915572  0  0  0.104245  0  0.974563  0  0  0.106831  0  0.972404  0  0.122195  0  0.126599  0.102215  0  0.97648  0
H  H28  1  0.53821464  0.91717859  0.31128556  1  0  0.125449  0  0.95156  0  0  0.134096  0  1.0099  0  0  0.137398  0  1.009034  0  0.130439  0  0.111599  0.131655  0  1.010584  0
H  H29  1  0.46178600  0.08282151  0.68871465  1  0  0.125437  0  0.95154  0  0  0.13408  0  1.009887  0  0  0.137383  0  1.009021  0  0.130444  0  0.111587  0.131631  0  1.010581  0
H  H30  1  0.44422670  0.08459254  0.25076582  1  0  0.08892  0  0.960011  0  0  0.103475  0  1.014382  0  0  0.105763  0  1.012843  0  0.068552  0  0.1071  0.101643  0  1.015892  0
H  H31  1  0.55577228  0.91540645  0.74923388  1  0  0.088909  0  0.960029  0  0  0.103468  0  1.014397  0  0  0.105755  0  1.012858  0  0.068544  0  0.107095  0.101636  0  1.015908  0
H  H32  1  0.30864409  0.01898130  0.04030847  1  0  0.124341  0  0.951908  0  0  0.134932  0  1.008672  0  0  0.138557  0  1.006999  0  0.106666  0  0.112654  0.132034  0  1.01032  0
H  H33  1  0.69135655  0.98101881  0.95969174  1  0  0.124351  0  0.951915  0  0  0.134925  0  1.008694  0  0  0.13855  0  1.007022  0  0.106662  0  0.112656  0.132027  0  1.010342  0
H  H34  1  0.19451325  0.94767265  0.86402455  1  0  0.120625  0  0.975882  0  0  0.129891  0  1.035718  0  0  0.133046  0  1.03462  0  0.129515  0  0.11192  0.127515  0  1.036942  0
H  H35  1  0.80548678  0.05232634  0.13597610  1  0  0.120631  0  0.975858  0  0  0.129876  0  1.03572  0  0  0.133034  0  1.034612  0  0.129524  0  0.111921  0.1275  0  1.036944  0
H  H36  1  0.08425971  0.86447782  0.64638849  1  0  0.118038  0  0.947513  0  0  0.127136  0  1.005405  0  0  0.130155  0  1.003025  0  0.152088  0  0.114531  0.124723  0  1.007562  0
H  H37  1  0.91573988  0.13552228  0.35361234  1  0  0.118  0  0.947541  0  0  0.127138  0  1.0054  0  0  0.130131  0  1.003056  0  0.152085  0  0.114527  0.124725  0  1.007557  0
H  H38  1  0.08458363  0.64321306  0.52019951  1  0  0.103684  0  0.971171  0  0  0.110742  0  1.037601  0  0  0.113236  0  1.03813  0  0.074782  0  0.107846  0.109032  0  1.03716  0
H  H39  1  0.91541596  0.35678704  0.47980132  1  0  0.103672  0  0.971174  0  0  0.110726  0  1.037612  0  0  0.11322  0  1.038141  0  0.074764  0  0.107836  0.109017  0  1.03717  0
H  H40  1  0.18580335  0.50727970  0.61866647  1  0  0.090219  0  0.946151  0  0  0.099705  0  1.00712  0  0  0.102091  0  1.00523  0  0.100317  0  0.122288  0.097844  0  1.008764  0
H  H41  1  0.81419729  0.49272041  0.38133373  1  0  0.090224  0  0.946147  0  0  0.099711  0  1.007112  0  0  0.102097  0  1.005223  0  0.100322  0  0.122291  0.097851  0  1.008756  0
H  H42  1  0.72863971  0.65939783  0.37780742  1  0  0.448308  0  0.850597  0  0  0.412386  0  0.921243  0  0  0.424456  0  0.90393  0  0.678807  0  0.311563  0.403725  0  0.933698  0
H  H43  1  0.27136032  0.34060116  0.62219244  1  0  0.448283  0  0.85063  0  0  0.412349  0  0.921297  0  0  0.42442  0  0.903983  0  0.678811  0  0.31155  0.403689  0  0.933752  0
H  H44  1  0.89610037  0.94041412  0.68201557  1  0  0.435811  0  0.870359  0  0  0.399322  0  0.942197  0  0  0.411225  0  0.925249  0  0.659783  0  0.304249  0.390919  0  0.954206  0
H  H45  1  0.10389966  0.05958487  0.31798429  1  0  0.43582  0  0.87034  0  0  0.399312  0  0.942208  0  0  0.411218  0  0.925255  0  0.659785  0  0.304237  0.390908  0  0.954217  0
H  H46  1  0.16538070  0.14322746  0.86391135  1  0  0.433525  0  0.870872  0  0  0.399071  0  0.939713  0  0  0.410752  0  0.922965  0  0.670271  0  0.30347  0.390977  0  0.951277  0
H  H47  1  0.83461994  0.85677264  0.13608885  1  0  0.433537  0  0.870853  0  0  0.399076  0  0.939703  0  0  0.41076  0  0.922951  0  0.670314  0  0.303474  0.390982  0  0.951267  0
H  H48  1  0.15006149  0.95966429  0.48178822  1  0  0.442975  0  0.864745  0  0  0.407033  0  0.936069  0  0  0.418688  0  0.919467  0  0.669781  0  0.303686  0.398946  0  0.947533  0
H  H49  1  0.84993749  0.04033470  0.51821147  1  0  0.442971  0  0.864747  0  0  0.407026  0  0.936079  0  0  0.418681  0  0.919477  0  0.669775  0  0.303684  0.398938  0  0.947544  0
C  C50  1  0.29397503  0.49398479  0.31948303  1  0  -0.165423  0  3.663219  0  0  -0.198509  0  3.910325  0  0  -0.202305  0  3.931078  0  -0.043753  0  -0.09367  -0.196723  0  3.89771  0
C  C51  1  0.70602561  0.50601531  0.68051717  1  0  -0.165354  0  3.663102  0  0  -0.198435  0  3.910241  0  0  -0.202235  0  3.930993  0  -0.043734  0  -0.093646  -0.196652  0  3.897619  0
C  C52  1  0.17892273  0.43894747  0.20750435  1  0  0.158728  0  3.790962  0  0  0.178659  0  4.031028  0  0  0.180739  0  4.05621  0  0.011955  0  -0.00787  0.177095  0  4.014429  0
C  C53  1  0.82107686  0.56105263  0.79249647  1  0  0.158698  0  3.791019  0  0  0.17863  0  4.031094  0  0  0.180712  0  4.056276  0  0.011948  0  -0.007876  0.177067  0  4.014493  0
C  C54  1  0.10856974  0.52232341  0.18222479  1  0  -0.184123  0  3.684376  0  0  -0.218295  0  3.94002  0  0  -0.222456  0  3.961209  0  -0.005264  0  -0.101423  -0.215703  0  3.926404  0
C  C55  1  0.89142986  0.47767670  0.81777524  1  0  -0.184126  0  3.684385  0  0  -0.218293  0  3.940025  0  0  -0.222457  0  3.961215  0  -0.005264  0  -0.101421  -0.215702  0  3.926409  0
C  C56  1  0.15242646  0.65914118  0.26664035  1  0  0.154592  0  3.81153  0  0  0.174143  0  4.052397  0  0  0.175877  0  4.078095  0  -0.03158  0  -0.015606  0.173161  0  4.034635  0
C  C57  1  0.84757418  0.34085893  0.73335986  1  0  0.154616  0  3.811482  0  0  0.174169  0  4.052347  0  0  0.175901  0  4.078044  0  -0.031247  0  -0.015591  0.173186  0  4.034588  0
C  C58  1  0.26905967  0.71263190  0.37781676  1  0  -0.197731  0  3.704502  0  0  -0.228945  0  3.955243  0  0  -0.233297  0  3.976085  0  -0.105616  0  -0.101652  -0.225324  0  3.940183  0
C  C59  1  0.73094036  0.28736709  0.62218152  1  0  -0.197741  0  3.704441  0  0  -0.228954  0  3.955203  0  0  -0.233301  0  3.976041  0  -0.105903  0  -0.101654  -0.225334  0  3.94014  0
C  C60  1  0.33991724  0.63050146  0.40496789  1  0  0.148799  0  3.809439  0  0  0.171164  0  4.045833  0  0  0.172868  0  4.071312  0  -0.013358  0  -0.009896  0.170054  0  4.028467  0
C  C61  1  0.66008174  0.36949753  0.59503101  1  0  0.148806  0  3.809337  0  0  0.17115  0  4.045782  0  0  0.172854  0  4.071261  0  -0.013385  0  -0.009891  0.17005  0  4.028402  0
C  C62  1  0.46930213  0.69209290  0.52329178  1  0  -0.497418  0  3.712464  0  0  -0.521011  0  3.951575  0  0  -0.53107  0  3.959519  0  -0.497422  0  -0.161742  -0.51368  0  3.946019  0
C  C63  1  0.53069851  0.30790720  0.47670764  1  0  -0.497436  0  3.712486  0  0  -0.521025  0  3.95161  0  0  -0.531084  0  3.959553  0  -0.497453  0  -0.16176  -0.513699  0  3.946055  0
C  C64  1  0.14083778  0.29702773  0.11485897  1  0  -0.489408  0  3.711604  0  0  -0.511093  0  3.948238  0  0  -0.52083  0  3.956206  0  -0.508763  0  -0.164354  -0.503735  0  3.94203  0
C  C65  1  0.85916286  0.70297237  0.88514045  1  0  -0.489404  0  3.711638  0  0  -0.511106  0  3.9483  0  0  -0.520845  0  3.956272  0  -0.507727  0  -0.16436  -0.503753  0  3.942095  0
C  C66  1  0.08554420  0.75240440  0.23512846  1  0  -0.513156  0  3.737994  0  0  -0.531921  0  3.970124  0  0  -0.541339  0  3.978096  0  -0.53207  0  -0.173286  -0.52511  0  3.964585  0
C  C67  1  0.91445643  0.24759570  0.76487174  1  0  -0.513143  0  3.738003  0  0  -0.531909  0  3.97013  0  0  -0.541324  0  3.978099  0  -0.532063  0  -0.173264  -0.525099  0  3.964592  0
C  C68  1  0.44633950  0.76544043  0.13198159  1  0  0.169781  0  3.655032  0  0  0.13772  0  3.90915  0  0  0.144974  0  3.92614  0  0.520615  0  0.065478  0.132467  0  3.897849  0
C  C69  1  0.55366114  0.23455967  0.86801862  1  0  0.169793  0  3.654934  0  0  0.137748  0  3.909044  0  0  0.145002  0  3.926033  0  0.520354  0  0.065479  0.132495  0  3.897742  0
C  C70  1  0.47591235  0.89267756  0.21983054  1  0  -0.109161  0  3.684773  0  0  -0.121423  0  3.934728  0  0  -0.128448  0  3.956428  0  -0.00488  0  -0.07345  -0.115989  0  3.919593  0
C  C71  1  0.52408829  0.10732254  0.78016967  1  0  -0.109145  0  3.684714  0  0  -0.121412  0  3.934667  0  0  -0.128437  0  3.956367  0  -0.00488  0  -0.073429  -0.115972  0  3.919538  0
C  C72  1  0.42427534  0.98373312  0.18591277  1  0  -0.002127  0  3.732402  0  0  -0.020867  0  3.983525  0  0  -0.017758  0  4.002593  0  -0.089431  0  -0.066276  -0.022977  0  3.970271  0
C  C73  1  0.57572530  0.01626698  0.81408665  1  0  -0.002133  0  3.732403  0  0  -0.020883  0  3.983528  0  0  -0.017772  0  4.002595  0  -0.089439  0  -0.066299  -0.022992  0  3.970271  0
C  C74  1  0.34697080  0.94706824  0.06734701  1  0  -0.144595  0  3.68412  0  0  -0.164536  0  3.933764  0  0  -0.171481  0  3.954316  0  0.000949  0  -0.079319  -0.15981  0  3.919733  0
C  C75  1  0.65302984  0.05293186  0.93265240  1  0  -0.14462  0  3.684073  0  0  -0.164555  0  3.933718  0  0  -0.171501  0  3.95427  0  0.00097  0  -0.079318  -0.159829  0  3.919686  0
C  C76  1  0.32392396  0.81844451  0.98429753  1  0  0.170271  0  3.782766  0  0  0.166297  0  4.025343  0  0  0.172449  0  4.046681  0  0.481882  0  0.119389  0.162086  0  4.010828  0
C  C77  1  0.67607773  0.18155559  0.01570363  1  0  0.170236  0  3.782726  0  0  0.166294  0  4.025261  0  0  0.172445  0  4.0466  0  0.481898  0  0.119391  0.162083  0  4.010746  0
C  C78  1  0.24934980  0.77198011  0.85583595  1  0  0.164961  0  3.789472  0  0  0.159159  0  4.032961  0  0  0.164927  0  4.054968  0  0.470824  0  0.119778  0.156054  0  4.017461  0
C  C79  1  0.75065040  0.22802110  0.14416443  1  0  0.165016  0  3.789487  0  0  0.159218  0  4.032941  0  0  0.164985  0  4.054948  0  0.470824  0  0.119812  0.156112  0  4.017442  0
C  C80  1  0.18990222  0.84999298  0.80736941  1  0  -0.131431  0  3.675504  0  0  -0.150981  0  3.925462  0  0  -0.158445  0  3.947595  0  0.029554  0  -0.074861  -0.146393  0  3.910905  0
C  C81  1  0.81009798  0.15000824  0.19263176  1  0  -0.131446  0  3.675427  0  0  -0.150976  0  3.925404  0  0  -0.158434  0  3.947528  0  0.029582  0  -0.074891  -0.146387  0  3.910847  0
C  C82  1  0.12841231  0.80360524  0.68575764  1  0  0.022616  0  3.663133  0  0  0.003075  0  3.910853  0  0  0.007034  0  3.928507  0  -0.075935  0  -0.055785  1e-05  0  3.900011  0
C  C83  1  0.87158728  0.19639486  0.31424319  1  0  0.022674  0  3.663124  0  0  0.003074  0  3.910877  0  0  0.007049  0  3.928547  0  -0.075952  0  -0.05576  9e-06  0  3.900034  0
C  C84  1  0.12751972  0.67999460  0.61542107  1  0  -0.111174  0  3.702995  0  0  -0.122526  0  3.951918  0  0  -0.129975  0  3.974479  0  -0.010015  0  -0.075805  -0.117804  0  3.937381  0
C  C85  1  0.87248092  0.32000550  0.38457914  1  0  -0.111186  0  3.703002  0  0  -0.122531  0  3.95195  0  0  -0.12998  0  3.974506  0  -0.010018  0  -0.07581  -0.11781  0  3.937413  0
C  C86  1  0.18540501  0.60544268  0.66949877  1  0  0.139409  0  3.693445  0  0  0.108478  0  3.944767  0  0  0.115  0  3.963469  0  0.493716  0  0.053939  0.103639  0  3.932709  0
C  C87  1  0.81459397  0.39455631  0.33050092  1  0  0.139427  0  3.693456  0  0  0.108502  0  3.944769  0  0  0.115023  0  3.96347  0  0.493718  0  0.053947  0.103662  0  3.932709  0
N  N88  1  0.37315073  0.73042214  0.01779364  1  0  -0.365174  0  3.275543  0  0  -0.295098  0  3.544397  0  0  -0.312642  0  3.559412  0  -1.242468  0  -0.318401  -0.283068  0  3.534436  0
N  N89  1  0.62684991  0.26957796  0.98220657  1  0  -0.365095  0  3.275485  0  0  -0.295036  0  3.544322  0  0  -0.312582  0  3.559341  0  -1.242189  0  -0.318356  -0.283006  0  3.534361  0
N  N90  1  0.24444448  0.65004829  0.78674998  1  0  -0.373147  0  3.291646  0  0  -0.298558  0  3.562541  0  0  -0.317048  0  3.578364  0  -1.243591  0  -0.320699  -0.285826  0  3.552007  0
N  N91  1  0.75555555  0.34995070  0.21324988  1  0  -0.37321  0  3.29175  0  0  -0.298628  0  3.562653  0  0  -0.317118  0  3.578475  0  -1.243631  0  -0.320728  -0.285895  0  3.552119  0
O  O92  1  0.69676306  0.89874615  0.46895453  1  0  -0.83027  0  1.904624  0  0  -0.755655  0  2.139262  0  0  -0.779147  0  2.119247  0  -1.449955  0  -0.364241  -0.739155  0  2.152764  0
O  O93  1  0.30323653  0.10125395  0.53104471  1  0  -0.830267  0  1.90464  0  0  -0.755648  0  2.139273  0  0  -0.779143  0  2.119258  0  -1.449953  0  -0.364236  -0.739149  0  2.152773  0
O  O94  1  0.68855917  0.65027161  0.44617235  1  0  -0.752646  0  2.006848  0  0  -0.679595  0  2.236826  0  0  -0.700809  0  2.211904  0  -1.44477  0  -0.377807  -0.664607  0  2.254861  0
O  O95  1  0.31144085  0.34972738  0.55382751  1  0  -0.75261  0  2.006919  0  0  -0.679537  0  2.23688  0  0  -0.700754  0  2.211958  0  -1.444765  0  -0.377777  -0.66455  0  2.254912  0
O  O96  1  0.78397806  0.84467101  0.65210743  1  0  -0.764661  0  1.992735  0  0  -0.695659  0  2.223035  0  0  -0.716524  0  2.19793  0  -1.441407  0  -0.386291  -0.681047  0  2.240739  0
O  O97  1  0.21602319  0.15533020  0.34789312  1  0  -0.76464  0  1.992711  0  0  -0.695638  0  2.223032  0  0  -0.716503  0  2.197923  0  -1.441503  0  -0.386264  -0.681026  0  2.240733  0
O  O98  1  0.26028166  0.42381488  0.97189029  1  0  -0.890045  0  2.086575  0  0  -0.799101  0  2.388899  0  0  -0.826003  0  2.364272  0  -1.469267  0  -0.378679  -0.779973  0  2.405609  0
O  O99  1  0.73971793  0.57618522  0.02810974  1  0  -0.890022  0  2.086548  0  0  -0.799075  0  2.38887  0  0  -0.825978  0  2.364243  0  -1.469254  0  -0.378666  -0.779946  0  2.40558  0
O  O100  1  0.23426176  0.17159163  0.94876128  1  0  -0.769728  0  2.014606  0  0  -0.700101  0  2.240518  0  0  -0.720419  0  2.215116  0  -1.44908  0  -0.394802  -0.68561  0  2.257929  0
O  O101  1  0.76573888  0.82840847  0.05123893  1  0  -0.769717  0  2.014614  0  0  -0.700098  0  2.240547  0  0  -0.720416  0  2.215138  0  -1.449134  0  -0.394809  -0.685608  0  2.257957  0
O  O102  1  0.45075713  0.39820724  0.13057387  1  0  -0.845253  0  2.002965  0  0  -0.756141  0  2.298107  0  0  -0.782574  0  2.273041  0  -1.450817  0  -0.37957  -0.736835  0  2.314694  0
O  O103  1  0.54924308  0.60179397  0.86942651  1  0  -0.84527  0  2.002995  0  0  -0.756167  0  2.298147  0  0  -0.7826  0  2.273081  0  -1.450816  0  -0.379579  -0.736862  0  2.314734  0
O  O104  1  0.79572624  0.65399254  0.27711411  1  0  -0.847497  0  2.032314  0  0  -0.749839  0  2.303789  0  0  -0.777623  0  2.281452  0  -1.44457  0  -0.356432  -0.729212  0  2.318884  0
O  O105  1  0.20427484  0.34600645  0.72288671  1  0  -0.847515  0  2.032344  0  0  -0.749834  0  2.303793  0  0  -0.777618  0  2.281465  0  -1.444588  0  -0.356443  -0.729203  0  2.318876  0
O  O106  1  0.04480321  0.85535494  0.44420928  1  0  -0.758753  0  2.006517  0  0  -0.685069  0  2.241  0  0  -0.70649  0  2.217072  0  -1.437891  0  -0.38189  -0.669829  0  2.257151  0
O  O107  1  0.95519743  0.14464517  0.55579092  1  0  -0.758748  0  2.006541  0  0  -0.685059  0  2.241006  0  0  -0.706475  0  2.217077  0  -1.437877  0  -0.381882  -0.669818  0  2.257157  0
O  O108  1  0.94230268  0.91312545  0.26884535  1  0  -0.839076  0  1.941752  0  0  -0.750153  0  2.170337  0  0  -0.776028  0  2.151196  0  -1.445194  0  -0.361967  -0.73173  0  2.183236  0
O  O109  1  0.05769691  0.08687465  0.73115548  1  0  -0.838983  0  1.941756  0  0  -0.750136  0  2.170383  0  0  -0.775992  0  2.151237  0  -1.445213  0  -0.361952  -0.731712  0  2.183282  0
