# generated using pymatgen
data_PrH14C14N3O9F4
_symmetry_space_group_name_H-M   'P 1'
_cell_length_a   11.54370368
_cell_length_b   12.46659536
_cell_length_c   20.40213365
_cell_angle_alpha   91.52190014
_cell_angle_beta   106.43115639
_cell_angle_gamma   117.58796840
_symmetry_Int_Tables_number   1
_chemical_formula_structural   PrH14C14N3O9F4
_chemical_formula_sum   'Pr4 H56 C56 N12 O36 F16'
_cell_volume   2452.73657225
_cell_formula_units_Z   4
loop_
 _symmetry_equiv_pos_site_id
 _symmetry_equiv_pos_as_xyz
  1  'x, y, z'
loop_
 _atom_site_type_symbol
 _atom_site_label
 _atom_site_symmetry_multiplicity
 _atom_site_fract_x
 _atom_site_fract_y
 _atom_site_fract_z
 _atom_site_occupancy
 _atom_site_pbe_bader_charge
 _atom_site_pbe_bader_spin_density
 _atom_site_pbe_cm5_charge
 _atom_site_pbe_ddec_charge
 _atom_site_pbe_ddec_spin_density
 _atom_site_pbe_ddec_sum_bond_order
 _atom_site_pbe_magmom
Pr  Pr0  1  0.75239456  0.89356508  0.69414968  1  2.268162  0  1.507192  2.067178  0  2.178855  0
Pr  Pr1  1  0.66462968  0.60631857  0.80585123  1  2.267459  0  1.507693  2.067779  0  2.179398  0
Pr  Pr2  1  0.24760590  0.10643588  0.30585018  1  2.26817  0  1.507184  2.067177  0  2.178847  0
Pr  Pr3  1  0.33537117  0.39368147  0.19414867  1  2.267406  0  1.507695  2.067791  0  2.179417  0
H  H4  1  0.01724129  0.98118322  0.61132017  1  0.101458  0  0.1304  0.0514  0  0.980096  0
H  H5  1  0.92482628  0.51886106  0.88876327  1  0.115708  0  0.130542  0.051344  0  0.98054  0
H  H6  1  0.98275917  0.01881774  0.38868067  1  0.101484  0  0.13039  0.051386  0  0.980076  0
H  H7  1  0.07517418  0.48113990  0.11123708  1  0.115708  0  0.130537  0.05134  0  0.980532  0
H  H8  1  0.02274212  0.26533665  0.65557224  1  0.094743  0  0.114853  0.1331  0  1.006275  0
H  H9  1  0.60192386  0.23468505  0.84444526  1  0.103241  0  0.115544  0.134687  0  1.005709  0
H  H10  1  0.97725783  0.73466339  0.34442801  1  0.094748  0  0.114861  0.133104  0  1.006266  0
H  H11  1  0.39807609  0.76531499  0.15555499  1  0.103233  0  0.115564  0.134715  0  1.005721  0
H  H12  1  0.07000785  0.31959534  0.58147143  1  0.073546  0  0.109726  0.127716  0  0.976148  0
H  H13  1  0.66897003  0.18036355  0.91852860  1  0.066545  0  0.109339  0.127304  0  0.976706  0
H  H14  1  0.92999261  0.68040563  0.41852843  1  0.073551  0  0.109701  0.12766  0  0.976177  0
H  H15  1  0.33102992  0.81963649  0.08147166  1  0.066553  0  0.109332  0.127289  0  0.976705  0
H  H16  1  0.20165884  0.34690207  0.66121726  1  0.071388  0  0.107837  0.126939  0  0.99329  0
H  H17  1  0.69363984  0.15316367  0.83878757  1  0.085979  0  0.107978  0.127866  0  0.99352  0
H  H18  1  0.79834162  0.65309889  0.33878309  1  0.071053  0  0.107845  0.126941  0  0.993296  0
H  H19  1  0.30636011  0.84683637  0.16121268  1  0.085986  0  0.108012  0.127919  0  0.993508  0
H  H20  1  0.14746600  0.07086015  0.54815318  1  0.067487  0  0.109698  0.12145  0  0.994459  0
H  H21  1  0.02853492  0.42922643  0.95190161  1  0.056617  0  0.109472  0.121045  0  0.994583  0
H  H22  1  0.85253486  0.92913989  0.45184722  1  0.067473  0  0.109714  0.121467  0  0.994442  0
H  H23  1  0.97146503  0.57077361  0.04809865  1  0.05662  0  0.109485  0.121045  0  0.994601  0
H  H24  1  0.26388002  0.23215982  0.57587127  1  0.092964  0  0.1073  0.127445  0  1.017113  0
H  H25  1  0.95593892  0.26793257  0.92417641  1  0.076513  0  0.106795  0.126435  0  1.017508  0
H  H26  1  0.73611993  0.76784022  0.42412849  1  0.092964  0  0.107333  0.127494  0  1.017112  0
H  H27  1  0.04406103  0.73206747  0.07582384  1  0.076508  0  0.106811  0.126454  0  1.017549  0
H  H28  1  0.10523905  0.17886493  0.50675825  1  0.076636  0  0.104301  0.119965  0  0.992191  0
H  H29  1  0.91966491  0.32116208  0.99328497  1  0.07115  0  0.104546  0.119726  0  0.992157  0
H  H30  1  0.89476091  0.82113511  0.49324200  1  0.076636  0  0.104306  0.119969  0  0.992187  0
H  H31  1  0.08033504  0.67883796  0.00671529  1  0.071158  0  0.104552  0.11973  0  0.992147  0
H  H32  1  0.51005381  0.99574519  0.68355313  1  0.125731  0  0.124352  0.046265  0  1.021651  0
H  H33  1  0.33072690  0.50430112  0.81655257  1  0.121652  0  0.124976  0.048212  0  1.020263  0
H  H34  1  0.48994524  0.00425485  0.31644698  1  0.125718  0  0.124358  0.046276  0  1.021654  0
H  H35  1  0.66927356  0.49569984  0.18344729  1  0.121659  0  0.124983  0.048216  0  1.020251  0
H  H36  1  0.39518548  0.09090056  0.68419607  1  0.032173  0  0.103007  0.110841  0  1.00252  0
H  H37  1  0.11999357  0.40906272  0.81581427  1  0.052778  0  0.103086  0.110539  0  1.002811  0
H  H38  1  0.60481396  0.90909856  0.31580408  1  0.032163  0  0.102993  0.110797  0  1.002544  0
H  H39  1  0.88000638  0.59093732  0.18418549  1  0.052783  0  0.103063  0.110536  0  1.002833  0
H  H40  1  0.43349101  0.21277538  0.63498805  1  0.100956  0  0.103829  0.127095  0  1.031732  0
H  H41  1  0.08559097  0.28718818  0.86502037  1  0.091494  0  0.103977  0.127294  0  1.03194  0
H  H42  1  0.56650894  0.78722466  0.36501221  1  0.100945  0  0.103844  0.127097  0  1.031784  0
H  H43  1  0.91440949  0.71281278  0.13497949  1  0.091495  0  0.103978  0.12731  0  1.031927  0
H  H44  1  0.49729543  0.24937903  0.72749652  1  0.090576  0  0.111598  0.130799  0  1.005884  0
H  H45  1  0.02033086  0.25058811  0.77251155  1  0.074969  0  0.111446  0.130576  0  1.006012  0
H  H46  1  0.50270402  0.75062009  0.27250364  1  0.090523  0  0.111597  0.130779  0  1.005925  0
H  H47  1  0.97966909  0.74941193  0.22748870  1  0.074977  0  0.111457  0.130607  0  1.005988  0
H  H48  1  0.72633269  0.37161786  0.71404199  1  0.098187  0  0.108517  0.125172  0  1.027054  0
H  H49  1  0.14057129  0.12840167  0.78595141  1  0.096939  0  0.108756  0.125705  0  1.027397  0
H  H50  1  0.27366726  0.62838218  0.28595827  1  0.098197  0  0.108519  0.125185  0  1.027046  0
H  H51  1  0.85943007  0.87159929  0.21404908  1  0.096926  0  0.108752  0.125695  0  1.027382  0
H  H52  1  0.69440887  0.31449368  0.62584223  1  0.074123  0  0.10623  0.12947  0  0.986127  0
H  H53  1  0.25398562  0.18547637  0.87414883  1  0.075806  0  0.10657  0.130207  0  0.98605  0
H  H54  1  0.30559108  0.68550636  0.37415802  1  0.074121  0  0.106228  0.129469  0  0.986134  0
H  H55  1  0.74601483  0.81452460  0.12585103  1  0.075798  0  0.106573  0.130222  0  0.986032  0
H  H56  1  0.80822843  0.28794905  0.69508276  1  0.073048  0  0.107725  0.124849  0  1.006707  0
H  H57  1  0.32510183  0.21208107  0.80490992  1  0.070498  0  0.107442  0.124821  0  1.006579  0
H  H58  1  0.19177152  0.71205099  0.30491749  1  0.073046  0  0.107724  0.124852  0  1.006716  0
H  H59  1  0.67489812  0.78791897  0.19509033  1  0.070499  0  0.107435  0.124792  0  1.006581  0
C  C60  1  0.46489014  0.74998028  0.75001460  1  1.688991  0  0.244911  0.691903  0  4.144299  0
C  C61  1  0.53511112  0.25001884  0.24998683  1  1.688859  0  0.244913  0.691873  0  4.144363  0
C  C62  1  0.33397079  0.74997925  0.75007262  1  0.104684  0  -0.024434  -0.209254  0  4.001558  0
C  C63  1  0.66603007  0.25002079  0.24992827  1  0.104622  0  -0.024435  -0.209239  0  4.001574  0
C  C64  1  0.33661512  0.85546856  0.77713379  1  0.530762  0  0.090347  0.149725  0  4.098872  0
C  C65  1  0.20402196  0.64449750  0.72301065  1  0.50749  0  0.089999  0.148491  0  4.10332  0
C  C66  1  0.66338523  0.14453056  0.22286700  1  0.530767  0  0.090368  0.149733  0  4.098858  0
C  C67  1  0.79597748  0.35550162  0.27699000  1  0.507468  0  0.089999  0.148503  0  4.103421  0
C  C68  1  0.21591179  0.85577810  0.77666157  1  0.50068  0  0.090541  0.151924  0  4.099805  0
C  C69  1  0.08349322  0.64420588  0.72347590  1  0.508777  0  0.090177  0.151482  0  4.101364  0
C  C70  1  0.78408816  0.14422194  0.22333770  1  0.500675  0  0.090533  0.151898  0  4.099807  0
C  C71  1  0.91650634  0.35579509  0.27652381  1  0.508786  0  0.090165  0.151476  0  4.10138  0
C  C72  1  0.08619107  0.74998841  0.75007221  1  0.113405  0  -0.022781  -0.203873  0  3.991603  0
C  C73  1  0.91380888  0.25001163  0.24992756  1  0.113419  0  -0.022775  -0.203876  0  3.991609  0
C  C74  1  0.95487806  0.74999844  0.74997883  1  1.681306  0  0.236081  0.685842  0  4.160253  0
C  C75  1  0.04512240  0.25000252  0.25002103  1  1.681299  0  0.236072  0.685865  0  4.160312  0
C  C76  1  0.57109086  0.55487971  0.65061984  1  1.640091  0  0.22799  0.66504  0  4.170826  0
C  C77  1  0.86542605  0.94509467  0.84938521  1  1.646404  0  0.227486  0.663041  0  4.172298  0
C  C78  1  0.42891039  0.44511941  0.34937962  1  1.64001  0  0.227953  0.664981  0  4.170846  0
C  C79  1  0.13457299  0.05490537  0.15061441  1  1.646412  0  0.227446  0.663021  0  4.172319  0
C  C80  1  0.53456041  0.52731303  0.57287276  1  0.11809  0  -0.019237  -0.205208  0  4.004241  0
C  C81  1  0.93433373  0.97279167  0.92712451  1  0.115923  0  -0.018264  -0.203325  0  4.003369  0
C  C82  1  0.46544084  0.47268609  0.42712719  1  0.118203  0  -0.019286  -0.205237  0  4.004398  0
C  C83  1  0.06566480  0.02720745  0.07287501  1  0.115932  0  -0.018266  -0.20333  0  4.003292  0
C  C84  1  0.63465030  0.54189532  0.54319134  1  0.527634  0  0.097413  0.16335  0  4.083556  0
C  C85  1  0.04942964  0.95807459  0.95676882  1  0.549201  0  0.096456  0.162906  0  4.085986  0
C  C86  1  0.36535083  0.45810196  0.45680807  1  0.527997  0  0.097478  0.163437  0  4.0834  0
C  C87  1  0.95056980  0.04192453  0.04323035  1  0.549167  0  0.096475  0.162938  0  4.085994  0
C  C88  1  0.60027458  0.51458336  0.47145458  1  0.547722  0  0.096034  0.163064  0  4.080998  0
C  C89  1  0.11415573  0.98528007  0.02849793  1  0.525646  0  0.096388  0.162133  0  4.078653  0
C  C90  1  0.39972666  0.48541576  0.52854488  1  0.547355  0  0.095974  0.163058  0  4.080759  0
C  C91  1  0.88584320  0.01471813  0.97150115  1  0.525587  0  0.096354  0.162081  0  4.078808  0
C  C92  1  0.01748097  0.06455219  0.63119395  1  1.371101  0  0.190178  0.323371  0  4.097605  0
C  C93  1  0.82182468  0.43547179  0.86886295  1  1.373614  0  0.191407  0.325981  0  4.095814  0
C  C94  1  0.98252039  0.93544877  0.36880654  1  1.371059  0  0.190192  0.323459  0  4.097573  0
C  C95  1  0.17817528  0.56452825  0.13113730  1  1.373619  0  0.191403  0.326004  0  4.0957  0
C  C96  1  0.09565154  0.28110942  0.62765894  1  0.265352  0  -0.129841  -0.271452  0  3.877625  0
C  C97  1  0.68696990  0.21891794  0.87236354  1  0.253211  0  -0.130479  -0.273598  0  3.880283  0
C  C98  1  0.90434892  0.71889154  0.37234141  1  0.265635  0  -0.129817  -0.271367  0  3.87762  0
C  C99  1  0.31303095  0.78108210  0.12763686  1  0.253209  0  -0.130541  -0.273674  0  3.880326  0
C  C100  1  0.15421549  0.16108105  0.55667981  1  0.256743  0  -0.13239  -0.290626  0  3.93428  0
C  C101  1  0.93652850  0.33897548  0.94337277  1  0.298907  0  -0.131715  -0.287857  0  3.937132  0
C  C102  1  0.84578446  0.83891899  0.44331995  1  0.256767  0  -0.132431  -0.290673  0  3.934356  0
C  C103  1  0.06347145  0.66102456  0.05662748  1  0.29891  0  -0.131721  -0.287849  0  3.937176  0
C  C104  1  0.60426626  0.07725882  0.68210814  1  1.36236  0  0.184697  0.320222  0  4.099714  0
C  C105  1  0.34487725  0.42280329  0.81800840  1  1.366591  0  0.184153  0.317272  0  4.099214  0
C  C106  1  0.39573228  0.92274030  0.31789187  1  1.362141  0  0.18466  0.320181  0  4.099825  0
C  C107  1  0.65512321  0.57719767  0.18199195  1  1.366598  0  0.184162  0.317297  0  4.09919  0
C  C108  1  0.47340252  0.18344937  0.68230968  1  0.259612  0  -0.131413  -0.283448  0  3.890107  0
C  C109  1  0.10753156  0.31651212  0.81770138  1  0.271104  0  -0.130837  -0.282397  0  3.889467  0
C  C110  1  0.52659743  0.81655067  0.31769057  1  0.259691  0  -0.131441  -0.283398  0  3.890228  0
C  C111  1  0.89246749  0.68348792  0.18229873  1  0.27111  0  -0.130828  -0.282446  0  3.889491  0
C  C112  1  0.71429715  0.29615642  0.67913366  1  0.251481  0  -0.134675  -0.2728  0  3.866349  0
C  C113  1  0.23890791  0.20385080  0.82086553  1  0.256398  0  -0.135152  -0.274698  0  3.868592  0
C  C114  1  0.28570331  0.70384454  0.32086669  1  0.251477  0  -0.134651  -0.272789  0  3.86635  0
C  C115  1  0.76109255  0.79615016  0.17913433  1  0.25641  0  -0.135151  -0.274666  0  3.86854  0
N  N116  1  0.08664770  0.16422691  0.60646173  1  -1.213383  0  -0.27403  0.043379  0  3.702201  0
N  N117  1  0.81604347  0.33580801  0.89359020  1  -1.236703  0  -0.273928  0.040778  0  3.708877  0
N  N118  1  0.91335276  0.83577405  0.39353862  1  -1.213344  0  -0.274037  0.043314  0  3.702275  0
N  N119  1  0.18395648  0.66419203  0.10641005  1  -1.236695  0  -0.273928  0.040772  0  3.708868  0
N  N120  1  0.59831632  0.18126717  0.68217633  1  -1.20432  0  -0.271656  0.050057  0  3.705102  0
N  N121  1  0.23479646  0.31874349  0.81785469  1  -1.215036  0  -0.271799  0.051022  0  3.70456  0
N  N122  1  0.40168363  0.81873287  0.31782392  1  -1.204351  0  -0.271651  0.050037  0  3.705193  0
N  N123  1  0.76520349  0.68125655  0.18214556  1  -1.215047  0  -0.271797  0.051004  0  3.704633  0
N  N124  1  0.60490861  0.80852670  0.54023982  1  0.801046  0  0.082959  0.724207  0  4.437922  0
N  N125  1  0.75613591  0.69149024  0.95974131  1  0.837536  0  0.082681  0.72331  0  4.436113  0
N  N126  1  0.39509185  0.19147426  0.45976053  1  0.801024  0  0.082986  0.72424  0  4.437822  0
N  N127  1  0.24386494  0.30850980  0.04025909  1  0.837551  0  0.082679  0.723304  0  4.436121  0
O  O128  1  0.54598700  0.83782242  0.72783198  1  -1.189869  0  -0.376103  -0.638224  0  2.284054  0
O  O129  1  0.48033009  0.66213028  0.77214414  1  -1.182409  0  -0.375908  -0.638168  0  2.284304  0
O  O130  1  0.45401312  0.16217301  0.27216871  1  -1.189653  0  -0.376132  -0.638226  0  2.284015  0
O  O131  1  0.51967065  0.33786792  0.22785670  1  -1.182424  0  -0.375876  -0.638135  0  2.284365  0
O  O132  1  0.93455711  0.83200908  0.72215401  1  -1.187104  0  -0.378739  -0.648638  0  2.23816  0
O  O133  1  0.88016383  0.66798296  0.77773727  1  -1.18882  0  -0.378432  -0.648259  0  2.239513  0
O  O134  1  0.06544335  0.16799188  0.27784585  1  -1.187087  0  -0.378752  -0.648656  0  2.238168  0
O  O135  1  0.11983612  0.33201708  0.22226298  1  -1.18883  0  -0.378419  -0.648268  0  2.239596  0
O  O136  1  0.63877488  0.66782640  0.68063144  1  -1.208705  0  -0.421764  -0.726607  0  2.426288  0
O  O137  1  0.79022693  0.83212438  0.81942618  1  -1.209986  0  -0.421551  -0.726044  0  2.426528  0
O  O138  1  0.36122507  0.33217365  0.31936783  1  -1.208731  0  -0.421738  -0.726573  0  2.426298  0
O  O139  1  0.20977302  0.16787566  0.18057309  1  -1.20994  0  -0.42155  -0.726031  0  2.426521  0
O  O140  1  0.53605187  0.46736678  0.68334817  1  -1.174344  0  -0.337992  -0.578296  0  2.130856  0
O  O141  1  0.88511885  0.03254560  0.81661469  1  -1.174404  0  -0.337958  -0.577185  0  2.12995  0
O  O142  1  0.46394899  0.53263326  0.31665223  1  -1.174348  0  -0.337991  -0.578299  0  2.130885  0
O  O143  1  0.11488020  0.96745444  0.18338444  1  -1.174384  0  -0.337918  -0.577184  0  2.129964  0
O  O144  1  0.95676645  0.06319794  0.67365453  1  -1.18377  0  -0.368358  -0.552163  0  2.38418  0
O  O145  1  0.72002188  0.43681079  0.82637796  1  -1.190546  0  -0.369967  -0.553453  0  2.381047  0
O  O146  1  0.04323491  0.93680302  0.32634645  1  -1.18376  0  -0.368379  -0.552241  0  2.384189  0
O  O147  1  0.27997897  0.56318925  0.17362244  1  -1.190555  0  -0.369969  -0.553484  0  2.380987  0
O  O148  1  0.70904215  0.06948570  0.68160268  1  -1.18564  0  -0.384087  -0.56551  0  2.331859  0
O  O149  1  0.45798025  0.43061761  0.81855733  1  -1.185208  0  -0.384465  -0.565201  0  2.331472  0
O  O150  1  0.29095780  0.93051434  0.31839709  1  -1.185398  0  -0.384054  -0.565462  0  2.331928  0
O  O151  1  0.54201880  0.56938243  0.18144278  1  -1.185221  0  -0.384471  -0.565214  0  2.331415  0
O  O152  1  0.54273127  0.81585754  0.58173536  1  -0.561834  0  -0.242171  -0.511821  0  1.959414  0
O  O153  1  0.64513323  0.68417198  0.91826915  1  -0.561592  0  -0.242613  -0.51209  0  1.958794  0
O  O154  1  0.45727060  0.18414434  0.41826523  1  -0.561827  0  -0.242187  -0.511828  0  1.959313  0
O  O155  1  0.35486723  0.31582898  0.08173120  1  -0.561615  0  -0.242625  -0.512105  0  1.958827  0
O  O156  1  0.54496695  0.77212097  0.47690139  1  -0.469591  0  -0.149793  -0.383171  0  1.965231  0
O  O157  1  0.79607131  0.72802722  0.02307352  1  -0.497587  0  -0.14946  -0.382553  0  1.965641  0
O  O158  1  0.45503210  0.22787907  0.52309872  1  -0.469595  0  -0.149787  -0.383172  0  1.965237  0
O  O159  1  0.20392814  0.27197190  0.97692713  1  -0.497577  0  -0.149436  -0.382521  0  1.965664  0
O  O160  1  0.73466954  0.84068144  0.56818863  1  -0.593702  0  -0.259007  -0.554424  0  1.996166  0
O  O161  1  0.82567333  0.65918109  0.93177547  1  -0.602783  0  -0.258908  -0.554244  0  1.995358  0
O  O162  1  0.26532951  0.15931861  0.43181148  1  -0.593686  0  -0.259023  -0.554444  0  1.996153  0
O  O163  1  0.17432662  0.34081895  0.06822478  1  -0.60279  0  -0.258918  -0.554258  0  1.995344  0
F  F164  1  0.45889105  0.96101284  0.80617552  1  -0.629279  0  -0.078464  -0.105982  0  1.417534  0
F  F165  1  0.19161670  0.53903112  0.69380505  1  -0.627397  0  -0.078499  -0.105815  0  1.418762  0
F  F166  1  0.54111070  0.03898720  0.19382453  1  -0.629268  0  -0.078482  -0.105979  0  1.417543  0
F  F167  1  0.80838275  0.46096800  0.30619510  1  -0.62739  0  -0.078491  -0.105806  0  1.418788  0
F  F168  1  0.22800563  0.96179629  0.80438020  1  -0.616588  0  -0.07826  -0.100045  0  1.422742  0
F  F169  1  0.96179511  0.53823334  0.69565744  1  -0.62124  0  -0.078063  -0.09981  0  1.423226  0
F  F170  1  0.77199381  0.03820283  0.19561946  1  -0.616602  0  -0.078269  -0.10005  0  1.422724  0
F  F171  1  0.03820444  0.46176762  0.30434130  1  -0.621243  0  -0.078059  -0.099818  0  1.423225  0
F  F172  1  0.76687684  0.58143860  0.58439743  1  -0.619251  0  -0.082758  -0.10598  0  1.375144  0
F  F173  1  0.10081428  0.91848447  0.91552707  1  -0.623699  0  -0.083064  -0.106581  0  1.37692  0
F  F174  1  0.23312339  0.41855867  0.41560282  1  -0.619274  0  -0.082783  -0.106031  0  1.375117  0
F  F175  1  0.89918555  0.08151373  0.08447117  1  -0.623659  0  -0.083059  -0.106569  0  1.376952  0
F  F176  1  0.69996018  0.52787425  0.44448610  1  -0.623842  0  -0.08293  -0.111862  0  1.377421  0
F  F177  1  0.22742616  0.97186248  0.05540080  1  -0.621782  0  -0.082631  -0.111038  0  1.376524  0
F  F178  1  0.30004118  0.47212671  0.55551341  1  -0.623797  0  -0.082929  -0.111876  0  1.377362  0
F  F179  1  0.77257469  0.02813757  0.94459764  1  -0.621742  0  -0.082629  -0.11104  0  1.37658  0
