# generated using pymatgen
data_ZnH24C21(NO)4
_symmetry_space_group_name_H-M   'P 1'
_cell_length_a   9.99295017
_cell_length_b   11.24460050
_cell_length_c   11.72740000
_cell_angle_alpha   117.87247973
_cell_angle_beta   92.97037086
_cell_angle_gamma   102.77200704
_symmetry_Int_Tables_number   1
_chemical_formula_structural   ZnH24C21(NO)4
_chemical_formula_sum   'Zn2 H48 C42 N8 O8'
_cell_volume   1117.51942642
_cell_formula_units_Z   2
loop_
 _symmetry_equiv_pos_site_id
 _symmetry_equiv_pos_as_xyz
  1  'x, y, z'
loop_
 _atom_site_type_symbol
 _atom_site_label
 _atom_site_symmetry_multiplicity
 _atom_site_fract_x
 _atom_site_fract_y
 _atom_site_fract_z
 _atom_site_occupancy
 _atom_site_hle17_bader_spin_density
 _atom_site_hle17_ddec_charge
 _atom_site_hle17_ddec_spin_density
 _atom_site_hle17_ddec_sum_bond_order
 _atom_site_hle17_magmom
 _atom_site_hse06_10hf_bader_spin_density
 _atom_site_hse06_10hf_ddec_charge
 _atom_site_hse06_10hf_ddec_spin_density
 _atom_site_hse06_10hf_ddec_sum_bond_order
 _atom_site_hse06_10hf_magmom
 _atom_site_hse06_bader_spin_density
 _atom_site_hse06_ddec_charge
 _atom_site_hse06_ddec_spin_density
 _atom_site_hse06_ddec_sum_bond_order
 _atom_site_hse06_magmom
 _atom_site_pbe_bader_charge
 _atom_site_pbe_bader_spin_density
 _atom_site_pbe_cm5_charge
 _atom_site_pbe_ddec_charge
 _atom_site_pbe_ddec_spin_density
 _atom_site_pbe_ddec_sum_bond_order
 _atom_site_pbe_magmom
Zn  Zn0  1  0.26320263  0.35040956  0.16984206  1  0  0.987318  0  1.910713  0  0  0.791483  0  2.399695  0  0  0.837236  0  2.34527  0  1.248542  0  0.688304  0.759597  0  2.43726  0
Zn  Zn1  1  0.73679523  0.64959216  0.83015606  1  0  0.98728  0  1.910732  0  0  0.791432  0  2.399726  0  0  0.837174  0  2.345295  0  1.248532  0  0.688297  0.759547  0  2.437289  0
H  H2  1  0.10279465  0.72213619  0.41568848  1  0  0.08351  0  0.955204  0  0  0.100678  0  1.015678  0  0  0.101754  0  1.016978  0  0.015999  0  0.090124  0.099898  0  1.014948  0
H  H3  1  0.89720264  0.27786343  0.58431038  1  0  0.083495  0  0.955213  0  0  0.10066  0  1.015695  0  0  0.101735  0  1.016994  0  0.015981  0  0.090117  0.09988  0  1.014964  0
H  H4  1  0.93001751  0.61553930  0.38030643  1  0  0.084239  0  0.951938  0  0  0.099501  0  1.013538  0  0  0.100943  0  1.013547  0  0.029859  0  0.08866  0.098363  0  1.013678  0
H  H5  1  0.06997907  0.38446137  0.61969201  1  0  0.084255  0  0.951934  0  0  0.099534  0  1.013513  0  0  0.10097  0  1.013528  0  0.029846  0  0.088675  0.098395  0  1.013654  0
H  H6  1  0.95414090  0.75973614  0.26825019  1  0  0.054452  0  0.964794  0  0  0.070573  0  1.032063  0  0  0.070798  0  1.034489  0  0.003124  0  0.078569  0.070277  0  1.030398  0
H  H7  1  0.04586068  0.24026453  0.73174762  1  0  0.054438  0  0.964818  0  0  0.070572  0  1.032088  0  0  0.070798  0  1.034514  0  0.003117  0  0.078575  0.070277  0  1.030422  0
H  H8  1  0.08938277  0.69119685  0.19469743  1  0  0.062042  0  0.941541  0  0  0.077187  0  1.009345  0  0  0.078352  0  1.009311  0  0.028463  0  0.084853  0.076333  0  1.009351  0
H  H9  1  0.91061823  0.30880173  0.80530112  1  0  0.06205  0  0.941547  0  0  0.077195  0  1.009363  0  0  0.07836  0  1.009331  0  0.028478  0  0.084858  0.076343  0  1.009369  0
H  H10  1  0.87257214  0.57405923  0.03237305  1  0  0.065719  0  0.946736  0  0  0.084058  0  1.009235  0  0  0.084744  0  1.010112  0  0.008289  0  0.086232  0.083431  0  1.008899  0
H  H11  1  0.12742544  0.42594144  0.96762543  1  0  0.065701  0  0.946744  0  0  0.084066  0  1.009236  0  0  0.084752  0  1.010115  0  0.008555  0  0.086241  0.083439  0  1.008901  0
H  H12  1  0.92425239  0.45269172  0.06623081  1  0  0.058317  0  0.948403  0  0  0.077428  0  1.011353  0  0  0.077436  0  1.012887  0  0.009766  0  0.085874  0.077299  0  1.010431  0
H  H13  1  0.07574618  0.54730895  0.93376601  1  0  0.058286  0  0.948393  0  0  0.077397  0  1.011362  0  0  0.077405  0  1.012896  0  0.009753  0  0.085844  0.077268  0  1.010439  0
H  H14  1  0.69892348  0.59605389  0.18444286  1  0  0.058161  0  0.928732  0  0  0.078256  0  0.987205  0  0  0.079533  0  0.986951  0  0.016134  0  0.084929  0.077237  0  0.987613  0
H  H15  1  0.30107768  0.40394888  0.81555928  1  0  0.058192  0  0.928733  0  0  0.078283  0  0.987194  0  0  0.079561  0  0.986938  0  0.016166  0  0.084932  0.077264  0  0.987603  0
H  H16  1  0.75206258  0.47324848  0.21733336  1  0  0.049883  0  0.939804  0  0  0.072035  0  0.996886  0  0  0.07239  0  0.997661  0  -0.004958  0  0.08269  0.07168  0  0.996518  0
H  H17  1  0.24794059  0.52675428  0.78266717  1  0  0.049893  0  0.939805  0  0  0.072029  0  0.99689  0  0  0.072387  0  0.997661  0  -0.005118  0  0.082681  0.071676  0  0.996522  0
H  H18  1  0.61173606  0.42111145  0.95324627  1  0  0.114192  0  0.940837  0  0  0.127314  0  1.002143  0  0  0.130478  0  1.000424  0  0.084764  0  0.097824  0.125037  0  1.003436  0
H  H19  1  0.38826439  0.57889236  0.04675631  1  0  0.114218  0  0.940852  0  0  0.127324  0  1.002163  0  0  0.130489  0  1.000446  0  0.084775  0  0.097811  0.125042  0  1.003459  0
H  H20  1  0.68175882  0.29647437  0.97132478  1  0  0.086087  0  0.931465  0  0  0.101621  0  0.989813  0  0  0.103609  0  0.989038  0  0.031436  0  0.088584  0.100273  0  0.990339  0
H  H21  1  0.31824033  0.70352839  0.02867642  1  0  0.086105  0  0.931464  0  0  0.101627  0  0.989805  0  0  0.103619  0  0.989031  0  0.031386  0  0.088573  0.100278  0  0.990328  0
H  H22  1  0.92915611  0.21763523  0.07466904  1  0  0.117265  0  0.954504  0  0  0.128567  0  1.009236  0  0  0.131184  0  1.00803  0  0.143408  0  0.122226  0.126559  0  1.01041  0
H  H23  1  0.07084247  0.78236543  0.92532949  1  0  0.11721  0  0.954389  0  0  0.128544  0  1.009088  0  0  0.131165  0  1.007879  0  0.143243  0  0.122186  0.126536  0  1.010263  0
H  H24  1  0.82243391  0.98492425  0.82476585  1  0  0.113869  0  0.951231  0  0  0.125251  0  1.009578  0  0  0.127453  0  1.00915  0  0.11714  0  0.124061  0.123525  0  1.01021  0
H  H25  1  0.17756480  0.01507328  0.17523724  1  0  0.113947  0  0.951145  0  0  0.125324  0  1.009485  0  0  0.127528  0  1.009056  0  0.117178  0  0.124063  0.12359  0  1.010129  0
H  H26  1  0.26522923  0.09592422  0.89275105  1  0  0.112987  0  0.957795  0  0  0.121229  0  1.020112  0  0  0.124349  0  1.016221  0  0.184283  0  0.136066  0.118908  0  1.02297  0
H  H27  1  0.73476919  0.90407226  0.10725327  1  0  0.112997  0  0.957728  0  0  0.121236  0  1.020047  0  0  0.124356  0  1.016156  0  0.184267  0  0.136077  0.118903  0  1.02292  0
H  H28  1  0.95545673  0.80623574  0.66357188  1  0  0.101575  0  0.933019  0  0  0.114175  0  0.99933  0  0  0.115494  0  0.998187  0  0.110456  0  0.116708  0.113023  0  1.000354  0
H  H29  1  0.04454641  0.19375969  0.33643047  1  0  0.101649  0  0.932867  0  0  0.114231  0  0.999253  0  0  0.115554  0  0.99811  0  0.110503  0  0.116705  0.11308  0  1.000279  0
H  H30  1  0.13739102  0.87253703  0.68436174  1  0  0.088179  0  0.906838  0  0  0.106079  0  0.963079  0  0  0.107039  0  0.961872  0  0.071651  0  0.119005  0.105226  0  0.964175  0
H  H31  1  0.86261370  0.12746050  0.31564675  1  0  0.088156  0  0.906817  0  0  0.106041  0  0.963136  0  0  0.107  0  0.961935  0  0.071776  0  0.118981  0.105189  0  0.964229  0
H  H32  1  0.23939203  0.02117988  0.59151603  1  0  0.084907  0  0.972231  0  0  0.09433  0  1.03674  0  0  0.095832  0  1.038078  0  0.076653  0  0.096736  0.092464  0  1.037414  0
H  H33  1  0.76061728  0.97881974  0.40849188  1  0  0.084955  0  0.972259  0  0  0.094303  0  1.03683  0  0  0.095803  0  1.038169  0  0.076826  0  0.096752  0.09244  0  1.037504  0
H  H34  1  0.79372563  0.88999807  0.56145307  1  0  0.083381  0  0.978866  0  0  0.091677  0  1.045906  0  0  0.093399  0  1.04712  0  0.051108  0  0.09519  0.089999  0  1.046213  0
H  H35  1  0.20628210  0.10999946  0.43855213  1  0  0.083392  0  0.978836  0  0  0.091705  0  1.045859  0  0  0.093429  0  1.04707  0  0.051094  0  0.095203  0.090033  0  1.046176  0
H  H36  1  0.21439635  0.42923194  0.46896964  1  0  0.116218  0  0.949574  0  0  0.126906  0  1.006284  0  0  0.129558  0  1.004899  0  0.146918  0  0.123843  0.124853  0  1.007475  0
H  H37  1  0.78560194  0.57076768  0.53102585  1  0  0.116173  0  0.949539  0  0  0.126852  0  1.006273  0  0  0.129509  0  1.004883  0  0.146991  0  0.123819  0.124798  0  1.007468  0
H  H38  1  0.40876505  0.40095056  0.62958216  1  0  0.130299  0  0.94937  0  0  0.137202  0  1.014138  0  0  0.140197  0  1.01268  0  0.123546  0  0.129306  0.13491  0  1.015375  0
H  H39  1  0.59123095  0.59904802  0.37041362  1  0  0.130277  0  0.949392  0  0  0.137189  0  1.014154  0  0  0.140184  0  1.012699  0  0.123481  0  0.12932  0.134921  0  1.015365  0
H  H40  1  0.48681892  0.22252491  0.23914788  1  0  0.114582  0  0.939409  0  0  0.123887  0  1.000022  0  0  0.127127  0  0.996039  0  0.161971  0  0.140103  0.121523  0  1.002794  0
H  H41  1  0.51317908  0.77747366  0.76084798  1  0  0.114582  0  0.939467  0  0  0.123903  0  1.000056  0  0  0.127144  0  0.996072  0  0.161996  0  0.140095  0.121538  0  1.002829  0
H  H42  1  0.65125461  0.34317715  0.58325976  1  0  0.107283  0  0.958411  0  0  0.11812  0  1.022939  0  0  0.120259  0  1.021445  0  0.185866  0  0.117934  0.116497  0  1.024076  0
H  H43  1  0.34874067  0.65682248  0.41673815  1  0  0.107316  0  0.958394  0  0  0.118175  0  1.022911  0  0  0.120323  0  1.021422  0  0.185859  0  0.117963  0.116543  0  1.024048  0
H  H44  1  0.66525804  0.24595642  0.41612560  1  0  0.086829  0  0.90505  0  0  0.105398  0  0.960005  0  0  0.106222  0  0.959149  0  0.060493  0  0.118529  0.104798  0  0.960578  0
H  H45  1  0.33474241  0.75404740  0.58387443  1  0  0.086823  0  0.905058  0  0  0.105406  0  0.960027  0  0  0.106234  0  0.959174  0  0.06049  0  0.11851  0.104795  0  0.960597  0
H  H46  1  0.61861053  0.22566671  0.70144829  1  0  0.11235  0  0.943274  0  0  0.123644  0  1.000769  0  0  0.126794  0  0.999283  0  0.090711  0  0.111077  0.121401  0  1.001775  0
H  H47  1  0.38139048  0.77433187  0.29854856  1  0  0.112348  0  0.943315  0  0  0.123646  0  1.000805  0  0  0.126796  0  0.999321  0  0.090631  0  0.111079  0.121402  0  1.001812  0
H  H48  1  0.46183152  0.99184667  0.28479278  1  0  0.094803  0  0.94512  0  0  0.107472  0  1.002604  0  0  0.110417  0  1.001025  0  0.061504  0  0.103768  0.105324  0  1.004091  0
H  H49  1  0.53816777  0.00815296  0.71520531  1  0  0.094815  0  0.945157  0  0  0.107506  0  1.002614  0  0  0.110447  0  1.001031  0  0.061548  0  0.103783  0.105356  0  1.004103  0
C  C50  1  0.07796736  0.50467166  0.29044949  1  0  0.686197  0  3.862027  0  0  0.642586  0  4.159764  0  0  0.674796  0  4.153487  0  1.55304  0  0.196745  0.620665  0  4.163351  0
C  C51  1  0.92203121  0.49532901  0.70955075  1  0  0.686132  0  3.861988  0  0  0.642528  0  4.159715  0  0  0.674741  0  4.153439  0  1.55311  0  0.196774  0.620607  0  4.163299  0
C  C52  1  0.02246388  0.63196460  0.33724640  1  0  -0.260894  0  3.686795  0  0  -0.296645  0  3.933096  0  0  -0.302833  0  3.943601  0  -0.028605  0  -0.171995  -0.292211  0  3.925645  0
C  C53  1  0.97753499  0.36803712  0.66275176  1  0  -0.26091  0  3.68678  0  0  -0.296661  0  3.933097  0  0  -0.302844  0  3.943601  0  -0.028555  0  -0.172015  -0.292227  0  3.925646  0
C  C54  1  0.99122092  0.66536606  0.22731410  1  0  -0.084976  0  3.689944  0  0  -0.1268  0  3.95146  0  0  -0.127385  0  3.965928  0  0.006231  0  -0.16967  -0.126151  0  3.941336  0
C  C55  1  0.00877937  0.33463356  0.77268403  1  0  -0.084971  0  3.689827  0  0  -0.126837  0  3.95144  0  0  -0.127421  0  3.965905  0  0.006237  0  -0.169694  -0.126188  0  3.941313  0
C  C56  1  0.88415578  0.54541654  0.10943671  1  0  -0.114286  0  3.684702  0  0  -0.14937  0  3.940933  0  0  -0.15081  0  3.956371  0  0.012894  0  -0.16982  -0.148156  0  3.930237  0
C  C57  1  0.11584338  0.45458622  0.89056193  1  0  -0.114182  0  3.684671  0  0  -0.149308  0  3.940944  0  0  -0.150747  0  3.95638  0  0.012681  0  -0.169784  -0.148096  0  3.930254  0
C  C58  1  0.74127209  0.50488007  0.14211266  1  0  -0.071761  0  3.692227  0  0  -0.113205  0  3.952047  0  0  -0.113577  0  3.96712  0  -0.004523  0  -0.166549  -0.112768  0  3.941593  0
C  C59  1  0.25872778  0.49512165  0.85788811  1  0  -0.071864  0  3.692336  0  0  -0.11327  0  3.952105  0  0  -0.11364  0  3.96718  0  -0.004364  0  -0.166556  -0.112833  0  3.941643  0
C  C60  1  0.63671379  0.38442262  0.02187566  1  0  -0.269749  0  3.682807  0  0  -0.304772  0  3.931792  0  0  -0.31133  0  3.9409  0  -0.047232  0  -0.171752  -0.300221  0  3.925325  0
C  C61  1  0.36328666  0.61558119  0.97812607  1  0  -0.269796  0  3.682832  0  0  -0.304763  0  3.931729  0  0  -0.311333  0  3.940857  0  -0.047199  0  -0.171705  -0.300201  0  3.925252  0
C  C62  1  0.50289618  0.33182061  0.05996263  1  0  0.684453  0  3.87242  0  0  0.642389  0  4.167882  0  0  0.674711  0  4.16252  0  1.537639  0  0.194958  0.620479  0  4.17072  0
C  C63  1  0.49710298  0.66818216  0.94003771  1  0  0.684532  0  3.872222  0  0  0.642445  0  4.167704  0  0  0.674768  0  4.162342  0  1.53762  0  0.194989  0.620533  0  4.17054  0
C  C64  1  0.98157155  0.15831606  0.99762867  1  0  0.00998  0  3.72844  0  0  -0.027145  0  3.995855  0  0  -0.025006  0  4.01561  0  0.346076  0  0.003596  -0.028541  0  3.982759  0
C  C65  1  0.01842532  0.84168565  0.00237196  1  0  0.010085  0  3.728305  0  0  -0.027071  0  3.995724  0  0  -0.024936  0  4.015479  0  0.346329  0  0.003649  -0.028464  0  3.982628  0
C  C66  1  0.92846051  0.04451294  0.87517482  1  0  -0.055407  0  3.66628  0  0  -0.095189  0  3.925462  0  0  -0.094299  0  3.945603  0  0.38147  0  0.005077  -0.095559  0  3.9118  0
C  C67  1  0.07153677  0.95548668  0.12482744  1  0  -0.055518  0  3.666379  0  0  -0.095298  0  3.925552  0  0  -0.094409  0  3.945695  0  0.381451  0  0.005072  -0.095664  0  3.911897  0
C  C68  1  0.15920456  0.09917702  0.90667544  1  0  0.157431  0  3.650649  0  0  0.095154  0  3.910594  0  0  0.10869  0  3.923862  0  0.979246  0  0.145198  0.086527  0  3.901382  0
C  C69  1  0.84079415  0.90082051  0.09332680  1  0  0.157457  0  3.650638  0  0  0.095183  0  3.910558  0  0  0.108719  0  3.923824  0  0.979223  0  0.145185  0.086568  0  3.901351  0
C  C70  1  0.03845176  0.89977219  0.68514615  1  0  -0.039368  0  3.634842  0  0  -0.109705  0  3.888427  0  0  -0.104253  0  3.896979  0  0.292767  0  -0.041704  -0.113054  0  3.882348  0
C  C71  1  0.96155239  0.10022324  0.31485881  1  0  -0.039313  0  3.634665  0  0  -0.109775  0  3.888556  0  0  -0.10433  0  3.897116  0  0.292883  0  -0.041692  -0.113127  0  3.88248  0
C  C72  1  0.01864346  0.94969007  0.58777899  1  0  0.061546  0  3.758953  0  0  0.079859  0  4.000732  0  0  0.078901  0  4.024217  0  -0.008754  0  -0.010895  0.080732  0  3.984109  0
C  C73  1  0.98136198  0.05030641  0.41222393  1  0  0.061492  0  3.759062  0  0  0.079808  0  4.000915  0  0  0.078847  0  4.024404  0  -0.008553  0  -0.010896  0.080686  0  3.984295  0
C  C74  1  0.13388055  0.01162359  0.55177120  1  0  -0.109165  0  3.747197  0  0  -0.127608  0  3.992807  0  0  -0.129822  0  4.014209  0  -0.035262  0  -0.087816  -0.12565  0  3.978929  0
C  C75  1  0.86612818  0.98837394  0.44823320  1  0  -0.109237  0  3.747264  0  0  -0.127591  0  3.992881  0  0  -0.129801  0  4.014282  0  -0.035632  0  -0.087853  -0.125645  0  3.979005  0
C  C76  1  0.88467654  0.93864666  0.53512825  1  0  -0.100877  0  3.739829  0  0  -0.119058  0  3.98498  0  0  -0.121621  0  4.007231  0  -0.063596  0  -0.086605  -0.117437  0  3.970472  0
C  C77  1  0.11532989  0.06134982  0.46487642  1  0  -0.100849  0  3.739866  0  0  -0.119011  0  3.985004  0  0  -0.121589  0  4.007286  0  -0.063809  0  -0.086558  -0.117392  0  3.970477  0
C  C78  1  0.29964990  0.38150180  0.44606207  1  0  -0.00524  0  3.739354  0  0  -0.041858  0  4.01265  0  0  -0.039881  0  4.031338  0  0.348923  0  -0.001581  -0.043155  0  3.999915  0
C  C79  1  0.70034838  0.61849782  0.55393342  1  0  -0.005132  0  3.739193  0  0  -0.041745  0  4.012488  0  0  -0.039777  0  4.031179  0  0.348801  0  -0.001526  -0.043044  0  3.999757  0
C  C80  1  0.39350269  0.36718465  0.52554225  1  0  -0.056798  0  3.643271  0  0  -0.097222  0  3.906058  0  0  -0.095754  0  3.924716  0  0.338182  0  0.00711  -0.098126  0  3.893296  0
C  C81  1  0.60649560  0.63281498  0.47445410  1  0  -0.056787  0  3.643329  0  0  -0.097218  0  3.906107  0  0  -0.095748  0  3.924767  0  0.338211  0  0.007073  -0.098142  0  3.89333  0
C  C82  1  0.43716989  0.27238624  0.32286522  1  0  0.143729  0  3.665098  0  0  0.081065  0  3.931483  0  0  0.094045  0  3.944705  0  0.977975  0  0.140916  0.073022  0  3.921782  0
C  C83  1  0.56282839  0.72761338  0.67713197  1  0  0.143665  0  3.665  0  0  0.080986  0  3.931389  0  0  0.093968  0  3.944607  0  0.977985  0  0.140877  0.072944  0  3.92169  0
C  C84  1  0.59423607  0.25716739  0.48676596  1  0  -0.055357  0  3.649761  0  0  -0.123343  0  3.903253  0  0  -0.119089  0  3.913175  0  0.221596  0  -0.047414  -0.125907  0  3.89611  0
C  C85  1  0.40576209  0.74283538  0.51323350  1  0  -0.055388  0  3.649751  0  0  -0.123455  0  3.903367  0  0  -0.119233  0  3.913331  0  0.221571  0  -0.047407  -0.125974  0  3.896163  0
C  C86  1  0.54477034  0.12349032  0.49285314  1  0  0.063034  0  3.756501  0  0  0.079222  0  4.003292  0  0  0.078275  0  4.028179  0  0.002721  0  -0.01507  0.079996  0  3.986826  0
C  C87  1  0.45522966  0.87650825  0.50714366  1  0  0.063034  0  3.756419  0  0  0.079227  0  4.003253  0  0  0.078287  0  4.02814  0  0.002417  0  -0.015133  0.07999  0  3.986775  0
C  C88  1  0.56621602  0.12659232  0.61338047  1  0  -0.105549  0  3.725152  0  0  -0.121829  0  3.966156  0  0  -0.124449  0  3.987763  0  -0.008147  0  -0.083883  -0.119741  0  3.951937  0
C  C89  1  0.43378298  0.87340626  0.38661544  1  0  -0.105535  0  3.725065  0  0  -0.12181  0  3.966053  0  0  -0.124427  0  3.987654  0  -0.007564  0  -0.083871  -0.119721  0  3.951839  0
C  C90  1  0.47835716  0.99614359  0.37966002  1  0  -0.119586  0  3.759386  0  0  -0.14003  0  4.009014  0  0  -0.14249  0  4.030608  0  -0.113215  0  -0.091652  -0.138785  0  3.995639  0
C  C91  1  0.52164184  0.00385498  0.62033674  1  0  -0.119581  0  3.759386  0  0  -0.140038  0  4.009009  0  0  -0.142491  0  4.030596  0  -0.113424  0  -0.091615  -0.138792  0  3.995635  0
N  N92  1  0.12563616  0.19101062  0.01588108  1  0  -0.386161  0  3.344568  0  0  -0.303498  0  3.652703  0  0  -0.32379  0  3.664878  0  -1.264031  0  -0.360865  -0.289995  0  3.644563  0
N  N93  1  0.87436213  0.80898900  0.98411952  1  0  -0.386183  0  3.344663  0  0  -0.303502  0  3.652795  0  0  -0.323789  0  3.664964  0  -1.264077  0  -0.360872  -0.290004  0  3.644654  0
N  N94  1  0.04209427  0.00851950  0.81946074  1  0  -0.054347  0  3.577064  0  0  0.040424  0  3.795977  0  0  0.02546  0  3.82278  0  -1.236178  0  -0.23661  0.050378  0  3.7773  0
N  N95  1  0.95790616  0.99147698  0.18054281  1  0  -0.0544  0  3.577238  0  0  0.040453  0  3.796127  0  0  0.02549  0  3.822931  0  -1.236319  0  -0.236568  0.050408  0  3.777446  0
N  N96  1  0.32813154  0.32198784  0.32006049  1  0  -0.389062  0  3.328098  0  0  -0.311367  0  3.638495  0  0  -0.330236  0  3.649769  0  -1.22924  0  -0.360087  -0.298231  0  3.630244  0
N  N97  1  0.67186775  0.67801178  0.67993675  1  0  -0.389046  0  3.327814  0  0  -0.311343  0  3.638203  0  0  -0.330207  0  3.649472  0  -1.229152  0  -0.360076  -0.298206  0  3.629951  0
N  N98  1  0.47941988  0.29814476  0.44585144  1  0  -0.057695  0  3.595333  0  0  0.03713  0  3.813677  0  0  0.021943  0  3.841739  0  -1.235901  0  -0.239677  0.047224  0  3.794182  0
N  N99  1  0.52057783  0.70185277  0.55414479  1  0  -0.057668  0  3.595146  0  0  0.03717  0  3.813529  0  0  0.021989  0  3.841597  0  -1.235927  0  -0.239639  0.047252  0  3.794027  0
O  O100  1  0.19286541  0.51733204  0.24365584  1  0  -0.669194  0  2.029573  0  0  -0.586995  0  2.29871  0  0  -0.615144  0  2.283087  0  -1.185295  0  -0.344699  -0.567288  0  2.308786  0
O  O101  1  0.80713217  0.48266863  0.75634180  1  0  -0.669155  0  2.02955  0  0  -0.586936  0  2.298653  0  0  -0.615089  0  2.283033  0  -1.185311  0  -0.344683  -0.567236  0  2.308747  0
O  O102  1  0.01756626  0.39877539  0.29736367  1  0  -0.645063  0  1.860935  0  0  -0.602581  0  2.077348  0  0  -0.623492  0  2.067338  0  -1.204061  0  -0.34701  -0.587991  0  2.083771  0
O  O103  1  0.98243490  0.60122738  0.70264018  1  0  -0.645044  0  1.860912  0  0  -0.602569  0  2.077326  0  0  -0.62348  0  2.067316  0  -1.204084  0  -0.347039  -0.587978  0  2.08375  0
O  O104  1  0.43952197  0.42608805  0.12511675  1  0  -0.663297  0  2.002216  0  0  -0.586008  0  2.267632  0  0  -0.614872  0  2.253389  0  -1.186552  0  -0.343946  -0.565847  0  2.276816  0
O  O105  1  0.56047719  0.57391471  0.87488360  1  0  -0.66329  0  2.002134  0  0  -0.586009  0  2.267554  0  0  -0.61487  0  2.253312  0  -1.186481  0  -0.34397  -0.565849  0  2.276735  0
O  O106  1  0.45985345  0.20583675  0.03179658  1  0  -0.661021  0  1.875625  0  0  -0.617698  0  2.086887  0  0  -0.639306  0  2.075802  0  -1.20532  0  -0.355545  -0.602669  0  2.094294  0
O  O107  1  0.54014571  0.79416601  0.96820292  1  0  -0.661071  0  1.87556  0  0  -0.617743  0  2.086831  0  0  -0.639349  0  2.075742  0  -1.205399  0  -0.355557  -0.60271  0  2.094235  0
