# generated using pymatgen
data_CaB2H16(C2O)6
_symmetry_space_group_name_H-M   'P 1'
_cell_length_a   5.56959102
_cell_length_b   7.96929506
_cell_length_c   15.54396918
_cell_angle_alpha   99.90843959
_cell_angle_beta   92.02166783
_cell_angle_gamma   90.82598806
_symmetry_Int_Tables_number   1
_chemical_formula_structural   CaB2H16(C2O)6
_chemical_formula_sum   'Ca2 B4 H32 C24 O12'
_cell_volume   679.06905802
_cell_formula_units_Z   2
loop_
 _symmetry_equiv_pos_site_id
 _symmetry_equiv_pos_as_xyz
  1  'x, y, z'
loop_
 _atom_site_type_symbol
 _atom_site_label
 _atom_site_symmetry_multiplicity
 _atom_site_fract_x
 _atom_site_fract_y
 _atom_site_fract_z
 _atom_site_occupancy
 _atom_site_hle17_bader_spin_density
 _atom_site_hle17_ddec_charge
 _atom_site_hle17_ddec_spin_density
 _atom_site_hle17_ddec_sum_bond_order
 _atom_site_hle17_magmom
 _atom_site_hse06_10hf_bader_spin_density
 _atom_site_hse06_10hf_ddec_charge
 _atom_site_hse06_10hf_ddec_spin_density
 _atom_site_hse06_10hf_ddec_sum_bond_order
 _atom_site_hse06_10hf_magmom
 _atom_site_hse06_bader_spin_density
 _atom_site_hse06_ddec_charge
 _atom_site_hse06_ddec_spin_density
 _atom_site_hse06_ddec_sum_bond_order
 _atom_site_hse06_magmom
 _atom_site_pbe_bader_spin_density
 _atom_site_pbe_cm5_charge
 _atom_site_pbe_ddec_charge
 _atom_site_pbe_ddec_spin_density
 _atom_site_pbe_ddec_sum_bond_order
 _atom_site_pbe_magmom
Ca  Ca0  1  0.98451401  0.75456810  0.00025605  1  0  1.56234  0  1.064519  0  0  1.438227  0  1.392049  0  0  1.480337  0  1.349317  0  0  1.00415  1.406778  0  1.421989  0
Ca  Ca1  1  0.01547978  0.24543040  0.99974481  1  0  1.562301  0  1.064566  0  0  1.438189  0  1.392114  0  0  1.480304  0  1.349375  0  0  1.004126  1.406743  0  1.422054  0
B  B2  1  0.85827479  0.05181509  0.14496442  1  0  0.92311  0  2.982518  0  0  0.772441  0  3.317358  0  0  0.800974  0  3.296549  0  0  -0.084018  0.752521  0  3.331508  0
B  B3  1  0.14171556  0.94818725  0.85503739  1  0  0.923152  0  2.982489  0  0  0.772449  0  3.317454  0  0  0.800985  0  3.296644  0  0  -0.084012  0.752524  0  3.331608  0
B  B4  1  0.72474321  0.45391093  0.88446549  1  0  0.93149  0  2.951036  0  0  0.779602  0  3.286281  0  0  0.807054  0  3.268521  0  0  -0.085005  0.760265  0  3.298741  0
B  B5  1  0.27525426  0.54609007  0.11553632  1  0  0.931519  0  2.950963  0  0  0.779627  0  3.286254  0  0  0.807094  0  3.268462  0  0  -0.084997  0.76029  0  3.29873  0
H  H6  1  0.58717291  0.01371012  0.29100875  1  0  0.065956  0  0.994083  0  0  0.075836  0  1.062858  0  0  0.077931  0  1.063402  0  0  0.088685  0.074106  0  1.063094  0
H  H7  1  0.41283537  0.98629204  0.70899400  1  0  0.066024  0  0.994009  0  0  0.075877  0  1.062819  0  0  0.077968  0  1.063363  0  0  0.088704  0.07415  0  1.063053  0
H  H8  1  0.66418829  0.12699658  0.44644898  1  0  0.074382  0  0.980969  0  0  0.086342  0  1.043539  0  0  0.088577  0  1.042817  0  0  0.093235  0.084677  0  1.044307  0
H  H9  1  0.33583785  0.87300287  0.55355318  1  0  0.074364  0  0.980958  0  0  0.086314  0  1.043549  0  0  0.088549  0  1.042826  0  0  0.093199  0.08464  0  1.044327  0
H  H10  1  0.02459709  0.31080732  0.49642229  1  0  0.080623  0  0.970007  0  0  0.093213  0  1.031119  0  0  0.095659  0  1.030517  0  0  0.096  0.091527  0  1.03151  0
H  H11  1  0.97542908  0.68918717  0.50357233  1  0  0.08069  0  0.969982  0  0  0.093272  0  1.031089  0  0  0.095719  0  1.030488  0  0  0.095985  0.091589  0  1.031483  0
H  H12  1  0.31522830  0.37455091  0.38600699  1  0  0.083397  0  0.968596  0  0  0.094363  0  1.029406  0  0  0.09629  0  1.030388  0  0  0.094138  0.092828  0  1.029193  0
H  H13  1  0.68478214  0.62545141  0.61398615  1  0  0.083309  0  0.968447  0  0  0.094235  0  1.02934  0  0  0.096157  0  1.030321  0  0  0.094088  0.092698  0  1.029128  0
H  H14  1  0.24056470  0.25991986  0.23039413  1  0  0.072069  0  0.977678  0  0  0.084125  0  1.043032  0  0  0.086673  0  1.042116  0  0  0.098186  0.082193  0  1.044029  0
H  H15  1  0.75942985  0.74008772  0.76959858  1  0  0.072205  0  0.977641  0  0  0.084227  0  1.043022  0  0  0.08677  0  1.042116  0  0  0.098228  0.082316  0  1.043995  0
H  H16  1  0.73914727  0.82933309  0.18255147  1  0  0.389187  0  0.878118  0  0  0.365307  0  0.948148  0  0  0.372799  0  0.940074  0  0  0.320244  0.359989  0  0.953867  0
H  H17  1  0.26084477  0.17066793  0.81745153  1  0  0.389241  0  0.878085  0  0  0.36536  0  0.948123  0  0  0.372854  0  0.940047  0  0  0.320269  0.360042  0  0.953845  0
H  H18  1  0.23028419  0.01787423  0.13272278  1  0  0.419675  0  0.831187  0  0  0.399529  0  0.889513  0  0  0.407882  0  0.880267  0  0  0.342704  0.393431  0  0.896379  0
H  H19  1  0.76970436  0.98212688  0.86727760  1  0  0.419715  0  0.831186  0  0  0.399555  0  0.889535  0  0  0.407916  0  0.880271  0  0  0.342705  0.393457  0  0.896397  0
H  H20  1  0.58457587  0.21856268  0.11189113  1  0  0.422032  0  0.864735  0  0  0.395494  0  0.930376  0  0  0.405669  0  0.91529  0  0  0.321977  0.388148  0  0.941312  0
H  H21  1  0.41541261  0.78143716  0.88810912  1  0  0.421964  0  0.864728  0  0  0.3954  0  0.93049  0  0  0.405578  0  0.915397  0  0  0.321978  0.388053  0  0.94143  0
H  H22  1  0.34002404  0.55964240  0.78633156  1  0  0.067989  0  0.995132  0  0  0.080866  0  1.059833  0  0  0.083581  0  1.058446  0  0  0.099388  0.078887  0  1.060971  0
H  H23  1  0.65997708  0.44035984  0.21367042  1  0  0.067972  0  0.995192  0  0  0.080879  0  1.059851  0  0  0.083574  0  1.058486  0  0  0.099402  0.078901  0  1.060989  0
H  H24  1  0.18733432  0.44704832  0.63702096  1  0  0.083765  0  0.977027  0  0  0.093127  0  1.041679  0  0  0.094998  0  1.042494  0  0  0.094587  0.09155  0  1.041708  0
H  H25  1  0.81266637  0.55294500  0.36298019  1  0  0.083757  0  0.976991  0  0  0.093087  0  1.04167  0  0  0.094956  0  1.042487  0  0  0.094571  0.09151  0  1.041706  0
H  H26  1  0.41105428  0.22231957  0.54204807  1  0  0.076506  0  0.97801  0  0  0.087453  0  1.04202  0  0  0.089938  0  1.041104  0  0  0.094794  0.08571  0  1.042689  0
H  H27  1  0.58894622  0.77767116  0.45795477  1  0  0.076481  0  0.978007  0  0  0.087433  0  1.042007  0  0  0.089918  0  1.04109  0  0  0.094821  0.085692  0  1.042673  0
H  H28  1  0.78794936  0.10755146  0.60157266  1  0  0.085032  0  0.955559  0  0  0.096939  0  1.014749  0  0  0.098913  0  1.015382  0  0  0.097641  0.095577  0  1.014271  0
H  H29  1  0.21204957  0.89244438  0.39843126  1  0  0.084959  0  0.955518  0  0  0.096889  0  1.014702  0  0  0.098864  0  1.015334  0  0  0.097612  0.095528  0  1.014222  0
H  H30  1  0.92755087  0.21043705  0.75253138  1  0  0.058755  0  1.000714  0  0  0.069701  0  1.070785  0  0  0.07225  0  1.070015  0  0  0.09292  0.067506  0  1.072289  0
H  H31  1  0.07245372  0.78956261  0.24747042  1  0  0.058717  0  1.000676  0  0  0.069652  0  1.070759  0  0  0.072201  0  1.069989  0  0  0.092902  0.06746  0  1.072258  0
H  H32  1  0.08610243  0.46630399  0.84950571  1  0  0.402924  0  0.869871  0  0  0.379047  0  0.93709  0  0  0.387407  0  0.927839  0  0  0.327359  0.372902  0  0.944047  0
H  H33  1  0.91390043  0.53369944  0.15049963  1  0  0.402953  0  0.869798  0  0  0.379076  0  0.937007  0  0  0.387432  0  0.927763  0  0  0.327392  0.37293  0  0.943969  0
H  H34  1  0.51582413  0.61931179  0.96800935  1  0  0.408792  0  0.896989  0  0  0.380309  0  0.966359  0  0  0.391516  0  0.949978  0  0  0.321686  0.372408  0  0.97678  0
H  H35  1  0.48417140  0.38068667  0.03199283  1  0  0.408744  0  0.897113  0  0  0.380315  0  0.966357  0  0  0.391521  0  0.94998  0  0  0.321685  0.372411  0  0.976823  0
H  H36  1  0.52865854  0.24094036  0.91078223  1  0  0.415815  0  0.888666  0  0  0.385264  0  0.956699  0  0  0.395872  0  0.941136  0  0  0.318577  0.377738  0  0.96774  0
H  H37  1  0.47133539  0.75906070  0.08921823  1  0  0.415827  0  0.888654  0  0  0.385266  0  0.956698  0  0  0.395875  0  0.941133  0  0  0.318579  0.37774  0  0.96774  0
C  C38  1  0.74930305  0.09164105  0.31057125  1  0  -0.060549  0  3.799326  0  0  -0.078482  0  4.035156  0  0  -0.080901  0  4.059198  0  0  -0.096191  -0.076717  0  4.019318  0
C  C39  1  0.25070725  0.90836368  0.68942919  1  0  -0.060528  0  3.799199  0  0  -0.078431  0  4.035046  0  0  -0.080843  0  4.059085  0  0  -0.096215  -0.076671  0  4.019208  0
C  C40  1  0.79133783  0.15622487  0.39920681  1  0  -0.078293  0  3.79242  0  0  -0.089095  0  4.037891  0  0  -0.09114  0  4.060423  0  0  -0.09722  -0.087482  0  4.022669  0
C  C41  1  0.20867729  0.84376960  0.60079470  1  0  -0.07833  0  3.792638  0  0  -0.089125  0  4.038089  0  0  -0.09117  0  4.060623  0  0  -0.09721  -0.087506  0  4.022871  0
C  C42  1  0.99430505  0.25863091  0.42718173  1  0  -0.092542  0  3.795223  0  0  -0.104809  0  4.039962  0  0  -0.10703  0  4.060922  0  0  -0.100997  -0.103155  0  4.025287  0
C  C43  1  0.00570873  0.74137001  0.57281649  1  0  -0.092671  0  3.79544  0  0  -0.10492  0  4.040156  0  0  -0.107143  0  4.061117  0  0  -0.100987  -0.103271  0  4.025481  0
C  C44  1  0.15573713  0.29467276  0.36558974  1  0  -0.075708  0  3.772847  0  0  -0.086221  0  4.018959  0  0  -0.088132  0  4.04122  0  0  -0.09746  -0.084823  0  4.004178  0
C  C45  1  0.84427518  0.70533207  0.63440495  1  0  -0.075467  0  3.772685  0  0  -0.08596  0  4.01882  0  0  -0.087861  0  4.041073  0  0  -0.097344  -0.084562  0  4.004049  0
C  C46  1  0.11222668  0.22841137  0.27705343  1  0  -0.056585  0  3.771411  0  0  -0.075214  0  4.010903  0  0  -0.077339  0  4.033964  0  0  -0.089611  -0.073488  0  3.995363  0
C  C47  1  0.88777135  0.77159488  0.72294050  1  0  -0.056772  0  3.771579  0  0  -0.075384  0  4.011102  0  0  -0.077509  0  4.034163  0  0  -0.089698  -0.07366  0  3.995514  0
C  C48  1  0.90884469  0.12510978  0.24724346  1  0  -0.315888  0  3.78891  0  0  -0.262825  0  4.018344  0  0  -0.270238  0  4.040293  0  0  -0.027539  -0.257738  0  4.003132  0
C  C49  1  0.09115497  0.87489637  0.75275500  1  0  -0.31596  0  3.788915  0  0  -0.262902  0  4.018363  0  0  -0.270321  0  4.040318  0  0  -0.027541  -0.257813  0  4.003159  0
C  C50  1  0.43473572  0.45529137  0.74750389  1  0  -0.076607  0  3.790705  0  0  -0.092159  0  4.027482  0  0  -0.094598  0  4.048938  0  0  -0.09336  -0.090216  0  4.012942  0
C  C51  1  0.56526708  0.54470831  0.25249788  1  0  -0.076586  0  3.790798  0  0  -0.092155  0  4.027563  0  0  -0.09458  0  4.049029  0  0  -0.093366  -0.090212  0  4.013023  0
C  C52  1  0.35028196  0.39462072  0.66187682  1  0  -0.075914  0  3.777728  0  0  -0.086189  0  4.022296  0  0  -0.087574  0  4.044589  0  0  -0.095831  -0.085136  0  4.007808  0
C  C53  1  0.64971716  0.60537771  0.33812541  1  0  -0.075967  0  3.777728  0  0  -0.086228  0  4.022337  0  0  -0.087612  0  4.044626  0  0  -0.095824  -0.085176  0  4.007853  0
C  C54  1  0.47711944  0.26966941  0.60877492  1  0  -0.083305  0  3.783383  0  0  -0.096269  0  4.028005  0  0  -0.09919  0  4.049748  0  0  -0.09609  -0.094205  0  4.012835  0
C  C55  1  0.52287767  0.73032394  0.39122617  1  0  -0.083205  0  3.78347  0  0  -0.096158  0  4.028055  0  0  -0.099078  0  4.049801  0  0  -0.096083  -0.094093  0  4.012881  0
C  C56  1  0.68666986  0.20575289  0.64192320  1  0  -0.070329  0  3.76657  0  0  -0.079518  0  4.009951  0  0  -0.081001  0  4.031964  0  0  -0.09256  -0.078175  0  3.994776  0
C  C57  1  0.31334005  0.79424419  0.35807717  1  0  -0.070326  0  3.766653  0  0  -0.079561  0  4.010084  0  0  -0.081044  0  4.032102  0  0  -0.092596  -0.078216  0  3.994906  0
C  C58  1  0.76591070  0.26569666  0.72818681  1  0  -0.062758  0  3.790353  0  0  -0.081846  0  4.032222  0  0  -0.084538  0  4.055211  0  0  -0.091069  -0.080053  0  4.017564  0
C  C59  1  0.23409577  0.73430426  0.27181450  1  0  -0.06269  0  3.790226  0  0  -0.081757  0  4.032105  0  0  -0.084448  0  4.055095  0  0  -0.091022  -0.079965  0  4.017445  0
C  C60  1  0.64317655  0.39191064  0.78332061  1  0  -0.296985  0  3.760778  0  0  -0.246754  0  3.993102  0  0  -0.253225  0  4.014969  0  0  -0.023238  -0.242297  0  3.978039  0
C  C61  1  0.35682453  0.60808909  0.21667921  1  0  -0.29697  0  3.76071  0  0  -0.246759  0  3.993053  0  0  -0.253232  0  4.014915  0  0  -0.023239  -0.242303  0  3.977996  0
O  O62  1  0.72363179  0.88103644  0.13022677  1  0  -0.850278  0  1.983254  0  0  -0.767835  0  2.204762  0  0  -0.789078  0  2.184935  0  0  -0.424064  -0.752432  0  2.218184  0
O  O63  1  0.27636033  0.11896588  0.86977571  1  0  -0.850361  0  1.983251  0  0  -0.767911  0  2.204739  0  0  -0.789155  0  2.184908  0  0  -0.424089  -0.75251  0  2.218162  0
O  O64  1  0.08932739  0.02341374  0.09482926  1  0  -0.895163  0  1.98055  0  0  -0.813482  0  2.21556  0  0  -0.837407  0  2.196463  0  0  -0.472407  -0.796104  0  2.228458  0
O  O65  1  0.91066287  0.97658483  0.90516962  1  0  -0.895196  0  1.980534  0  0  -0.813497  0  2.215539  0  0  -0.837421  0  2.196442  0  0  -0.472405  -0.796119  0  2.228443  0
O  O66  1  0.73447936  0.16327667  0.09323204  1  0  -0.870834  0  2.026698  0  0  -0.790378  0  2.268339  0  0  -0.814046  0  2.244269  0  0  -0.463984  -0.773212  0  2.284716  0
O  O67  1  0.26550362  0.83671942  0.90676584  1  0  -0.870772  0  2.026757  0  0  -0.790285  0  2.268463  0  0  -0.813957  0  2.244402  0  0  -0.463983  -0.773119  0  2.284837  0
O  O68  1  0.99599562  0.46657872  0.90199188  1  0  -0.887734  0  1.969129  0  0  -0.806603  0  2.206896  0  0  -0.82997  0  2.188198  0  0  -0.462934  -0.789612  0  2.219683  0
O  O69  1  0.00400004  0.53342354  0.09801194  1  0  -0.887848  0  1.969133  0  0  -0.806695  0  2.206887  0  0  -0.830063  0  2.188189  0  0  -0.462972  -0.789707  0  2.219675  0
O  O70  1  0.63490135  0.62506898  0.92214780  1  0  -0.889185  0  2.012208  0  0  -0.804864  0  2.247238  0  0  -0.82902  0  2.222747  0  0  -0.462453  -0.787473  0  2.263057  0
O  O71  1  0.36508896  0.37493210  0.07785324  1  0  -0.88908  0  2.012223  0  0  -0.804856  0  2.247209  0  0  -0.829012  0  2.222717  0  0  -0.462444  -0.78746  0  2.263059  0
O  O72  1  0.64585826  0.32916370  0.94010457  1  0  -0.885155  0  2.067353  0  0  -0.794567  0  2.292555  0  0  -0.819829  0  2.269866  0  0  -0.450226  -0.776357  0  2.307829  0
O  O73  1  0.35413563  0.67083609  0.05989513  1  0  -0.885195  0  2.067358  0  0  -0.794584  0  2.292568  0  0  -0.81985  0  2.269877  0  0  -0.450228  -0.776377  0  2.307838  0
