# generated using pymatgen
data_CuH8(CO)7
_symmetry_space_group_name_H-M   'P 1'
_cell_length_a   6.47949653
_cell_length_b   8.60701104
_cell_length_c   9.63973064
_cell_angle_alpha   68.73607950
_cell_angle_beta   77.38286932
_cell_angle_gamma   85.50346205
_symmetry_Int_Tables_number   1
_chemical_formula_structural   CuH8(CO)7
_chemical_formula_sum   'Cu2 H16 C14 O14'
_cell_volume   488.90064249
_cell_formula_units_Z   2
loop_
 _symmetry_equiv_pos_site_id
 _symmetry_equiv_pos_as_xyz
  1  'x, y, z'
loop_
 _atom_site_type_symbol
 _atom_site_label
 _atom_site_symmetry_multiplicity
 _atom_site_fract_x
 _atom_site_fract_y
 _atom_site_fract_z
 _atom_site_occupancy
 _atom_site_hle17_ddec_charge
 _atom_site_hle17_ddec_spin_density
 _atom_site_hle17_ddec_sum_bond_order
 _atom_site_hle17_magmom
 _atom_site_hse06_10hf_ddec_charge
 _atom_site_hse06_10hf_ddec_spin_density
 _atom_site_hse06_10hf_ddec_sum_bond_order
 _atom_site_hse06_10hf_magmom
 _atom_site_hse06_ddec_charge
 _atom_site_hse06_ddec_spin_density
 _atom_site_hse06_ddec_sum_bond_order
 _atom_site_hse06_magmom
 _atom_site_pbe_cm5_charge
 _atom_site_pbe_ddec_charge
 _atom_site_pbe_ddec_spin_density
 _atom_site_pbe_ddec_sum_bond_order
 _atom_site_pbe_magmom
Cu  Cu0  1  0.58967582  0.80977607  0.34888009  1  0.976098  -0.659174  1.622935  -0.487  0.989858  -0.78167  2.001527  -0.636  1.098242  -0.853673  1.919631  -0.735  0.695862  0.918053  -0.733306  2.067549  -0.576
Cu  Cu1  1  0.41031437  0.19022446  0.65112146  1  0.975994  -0.659146  1.622948  -0.487  0.989787  -0.78166  2.001527  -0.636  1.098214  -0.853688  1.919632  -0.735  0.695803  0.917965  -0.733293  2.067523  -0.576
H  H2  1  0.77564083  0.86284803  0.97199380  1  0.115981  0.00063  0.916933  0.0  0.125814  0.000289  0.972782  0.0  0.12864  0.000276  0.971759  0.0  0.115797  0.123431  0.000186  0.97396  0.0
H  H3  1  0.22435918  0.13716350  0.02800187  1  0.115956  0.000633  0.917029  0.0  0.125801  0.000289  0.972865  0.0  0.128624  0.000275  0.971844  0.0  0.115798  0.123432  0.000186  0.974019  0.0
H  H4  1  0.65024418  0.91311508  0.73388687  1  0.093171  0.000621  0.954523  0.0  0.093793  0.000272  1.03099  0.0  0.096456  0.000286  1.027716  0.0  0.101888  0.091533  0.000151  1.033804  0.0
H  H5  1  0.34973984  0.08689757  0.26611224  1  0.093112  0.000621  0.954696  0.0  0.09379  0.000272  1.031066  0.0  0.096457  0.000286  1.027793  0.0  0.101844  0.091528  0.000151  1.033882  0.0
H  H6  1  0.04258268  0.65403603  0.62163267  1  0.432371  0.000286  0.873424  0.0  0.396813  0.000113  0.943372  0.0  0.409653  7.9e-05  0.925155  0.0  0.28747  0.387656  0.000102  0.956345  0.0
H  H7  1  0.95742716  0.34595842  0.37836057  1  0.432453  0.000284  0.873319  0.0  0.396843  0.000113  0.943338  0.0  0.409683  7.9e-05  0.925122  0.0  0.287488  0.387687  0.000102  0.956311  0.0
H  H8  1  0.89965916  0.64325580  0.51095734  1  0.417511  0.000201  0.856385  0.0  0.387331  0.000194  0.934091  0.0  0.3967  0.000183  0.922964  0.0  0.303981  0.380524  0.00019  0.942249  0.0
H  H9  1  0.10035630  0.35674343  0.48902355  1  0.417493  0.000204  0.856431  0.0  0.387311  0.000194  0.934139  0.0  0.396678  0.000183  0.923013  0.0  0.303949  0.380502  0.00019  0.942298  0.0
H  H10  1  0.36614180  0.62054965  0.31684194  1  0.425047  0.001449  0.883461  0.002  0.398733  0.000613  0.94108  0.001  0.412418  0.000747  0.921654  0.001  0.292495  0.38932  0.000408  0.954415  0.001
H  H11  1  0.63386006  0.37944641  0.68316068  1  0.424996  0.001449  0.883524  0.002  0.398662  0.000613  0.94118  0.001  0.412351  0.000747  0.921747  0.001  0.292483  0.389245  0.000408  0.954519  0.001
H  H12  1  0.21128162  0.73553873  0.38743262  1  0.431727  0.00055  0.871555  0.002  0.405362  -0.000163  0.926251  0.0  0.418595  -1.2e-05  0.907824  0.0  0.288979  0.396208  -0.000328  0.938986  0.0
H  H13  1  0.78871520  0.26445848  0.61256220  1  0.431709  0.000549  0.871557  0.002  0.405345  -0.000163  0.926253  0.0  0.418579  -1.2e-05  0.907825  0.0  0.288961  0.396194  -0.000328  0.938981  0.0
H  H14  1  0.89615183  0.89696117  0.40987359  1  0.426624  0.001024  0.865109  0.001  0.402493  0.000467  0.91937  0.001  0.414571  0.000634  0.902322  0.001  0.297615  0.39408  0.000303  0.931243  0.0
H  H15  1  0.10385252  0.10303992  0.59012134  1  0.426605  0.001023  0.865137  0.001  0.402474  0.000468  0.919397  0.001  0.414554  0.000635  0.902349  0.001  0.297608  0.394064  0.000303  0.931268  0.0
H  H16  1  0.72808042  0.04929748  0.37674679  1  0.427749  -5.2e-05  0.874213  0.001  0.400833  -0.000826  0.931474  0.0  0.413995  -0.000507  0.912932  0.0  0.293129  0.391918  -0.001127  0.943965  0.0
H  H17  1  0.27192417  0.95070135  0.62324750  1  0.427566  -5.3e-05  0.874453  0.001  0.400662  -0.000827  0.931689  0.0  0.413824  -0.000507  0.913149  0.0  0.293058  0.391745  -0.001127  0.944183  0.0
C  C18  1  0.79047522  0.57366202  0.19655051  1  0.65741  0.015034  3.876675  0.012  0.620076  0.003891  4.173013  0.004  0.660206  0.002572  4.165274  0.002  0.219073  0.592804  0.003417  4.177176  0.004
C  C19  1  0.20951023  0.42633999  0.80346202  1  0.657651  0.015042  3.876496  0.012  0.620186  0.003891  4.173031  0.004  0.66032  0.00257  4.165289  0.002  0.219096  0.592913  0.003416  4.177185  0.004
C  C20  1  0.66039452  0.61171616  0.07708503  1  -0.075436  -0.021838  3.692906  -0.021  -0.073042  -0.003036  3.943015  -0.004  -0.080041  -0.000935  3.964115  -0.002  -0.005881  -0.070017  -0.002911  3.930118  -0.003
C  C21  1  0.33958776  0.38828514  0.92292396  1  -0.075563  -0.021835  3.692723  -0.021  -0.073088  -0.003034  3.942874  -0.004  -0.080088  -0.000933  3.963971  -0.002  -0.005812  -0.070074  -0.002909  3.929997  -0.003
C  C22  1  0.53882675  0.48498327  0.06792604  1  0.051396  0.00257  3.675832  0.002  0.054531  -0.001443  3.906212  -0.001  0.05642  -0.00073  3.928351  -0.001  0.012434  0.053116  -0.002127  3.892829  -0.002
C  C23  1  0.46115505  0.51502257  0.93208423  1  0.051491  0.002555  3.675699  0.002  0.054528  -0.001445  3.906177  -0.001  0.056419  -0.000731  3.928318  -0.001  0.012386  0.053107  -0.002128  3.892769  -0.002
C  C24  1  0.68396891  0.76716901  0.96313005  1  -0.039222  -0.002905  3.692728  -0.003  -0.07143  0.000235  3.95897  0.0  -0.072595  0.000794  3.98051  0.0  -0.071576  -0.070056  -0.001085  3.944402  -0.001
C  C25  1  0.31601611  0.23283553  0.03687470  1  -0.039053  -0.002914  3.692637  -0.003  -0.071291  0.000232  3.958889  0.0  -0.072453  0.000793  3.980428  0.0  -0.07157  -0.069935  -0.001087  3.944322  -0.001
C  C26  1  0.61045962  0.79613599  0.82915185  1  -0.051536  0.000806  3.704554  0.0  -0.082552  -0.000419  3.981138  -0.001  -0.08391  -5.3e-05  4.002634  0.0  -0.075074  -0.081424  -0.001047  3.967164  -0.001
C  C27  1  0.38953219  0.20387876  0.17085082  1  -0.051678  0.000812  3.704509  0.0  -0.082721  -0.000417  3.981102  -0.001  -0.084083  -5.3e-05  4.002596  0.0  -0.075073  -0.08157  -0.001046  3.96715  -0.001
C  C28  1  0.48904914  0.32914049  0.19012742  1  -0.061394  -0.02889  3.687408  -0.027  -0.059614  -0.006768  3.939439  -0.007  -0.066682  -0.003454  3.96117  -0.004  -0.005103  -0.057273  -0.00771  3.927211  -0.008
C  C29  1  0.51095518  0.67086242  0.80987765  1  -0.061698  -0.028878  3.687676  -0.027  -0.059952  -0.006764  3.939751  -0.007  -0.067024  -0.003453  3.961486  -0.004  -0.005191  -0.057546  -0.007707  3.927432  -0.008
C  C30  1  0.49261130  0.31019583  0.34944042  1  0.650721  0.008296  3.896153  0.007  0.600677  0.002446  4.199142  0.003  0.637885  0.002534  4.193298  0.002  0.212455  0.575953  0.001441  4.201628  0.002
C  C31  1  0.50740504  0.68979977  0.65056832  1  0.650609  0.008297  3.896107  0.007  0.600699  0.002444  4.198883  0.003  0.637909  0.002533  4.193032  0.002  0.212499  0.57595  0.00144  4.201361  0.002
O  O32  1  0.80599079  0.68178038  0.25761057  1  -0.600625  -0.109811  2.029655  -0.147  -0.591932  -0.065569  2.314275  -0.099  -0.644944  -0.043096  2.304353  -0.072  -0.330797  -0.557549  -0.077099  2.322036  -0.109
O  O33  1  0.19401619  0.31821530  0.74240914  1  -0.600687  -0.10981  2.02966  -0.147  -0.591948  -0.065568  2.314343  -0.099  -0.64497  -0.043093  2.304429  -0.072  -0.3308  -0.557561  -0.077101  2.322086  -0.109
O  O34  1  0.89059752  0.43767992  0.22615514  1  -0.562429  -0.025935  1.948686  -0.033  -0.51998  -0.013374  2.158903  -0.019  -0.550613  -0.006478  2.151513  -0.01  -0.290519  -0.496852  -0.021936  2.162456  -0.029
O  O35  1  0.10939040  0.56232549  0.77383847  1  -0.562508  -0.025939  1.948639  -0.033  -0.52006  -0.013378  2.158919  -0.019  -0.550696  -0.00648  2.151528  -0.01  -0.290539  -0.496921  -0.021944  2.162454  -0.029
O  O36  1  0.40731229  0.42289823  0.39835856  1  -0.643096  0.001254  2.077878  -0.001  -0.597211  0.002386  2.32057  0.0  -0.6257  0.003051  2.309098  0.001  -0.304164  -0.576226  0.000576  2.328318  -0.002
O  O37  1  0.59271006  0.57709981  0.60164452  1  -0.643021  0.001251  2.077931  -0.001  -0.597163  0.002386  2.320542  0.0  -0.625644  0.003052  2.309051  0.001  -0.30423  -0.576205  0.000576  2.328344  -0.002
O  O38  1  0.55637372  0.17325822  0.44106605  1  -0.630105  -0.065768  2.090723  -0.09  -0.585209  -0.048326  2.350723  -0.073  -0.630139  -0.03432  2.343839  -0.058  -0.308992  -0.555636  -0.055753  2.355212  -0.079
O  O39  1  0.44363287  0.82672324  0.55893239  1  -0.630021  -0.065768  2.090782  -0.09  -0.585132  -0.048321  2.350672  -0.073  -0.630052  -0.034318  2.343773  -0.058  -0.308972  -0.555555  -0.055752  2.355174  -0.079
O  O40  1  0.00682391  0.71435962  0.51608606  1  -0.82593  0.000738  1.883386  0.0  -0.761575  0.000494  2.053137  0.0  -0.784129  0.000647  2.023836  0.0  -0.562667  -0.745273  8.4e-05  2.073615  0.0
O  O41  1  0.99319196  0.28563708  0.48390261  1  -0.825966  0.000737  1.883357  0.0  -0.761594  0.000493  2.053213  0.0  -0.784147  0.000647  2.02391  0.0  -0.56263  -0.745292  8.3e-05  2.073693  0.0
O  O42  1  0.34250969  0.74139310  0.30489762  1  -0.818647  -0.068256  1.945478  -0.089  -0.782841  -0.04971  2.157831  -0.071  -0.821444  -0.037342  2.116663  -0.058  -0.587829  -0.756271  -0.057075  2.185909  -0.076
O  O43  1  0.65749211  0.25860266  0.69509982  1  -0.818574  -0.06825  1.945455  -0.089  -0.78275  -0.049708  2.157797  -0.07  -0.821367  -0.03734  2.116642  -0.058  -0.587802  -0.756175  -0.057072  2.185864  -0.076
O  O44  1  0.80853653  0.96508025  0.33596070  1  -0.797214  -0.050851  1.922507  -0.066  -0.750752  -0.040106  2.113745  -0.056  -0.783422  -0.031199  2.072151  -0.048  -0.578491  -0.727848  -0.045361  2.142246  -0.06
O  O45  1  0.19146667  0.03491705  0.66403517  1  -0.797036  -0.050843  1.922729  -0.066  -0.750569  -0.040102  2.113958  -0.056  -0.783248  -0.031197  2.072373  -0.048  -0.578439  -0.727667  -0.045354  2.142448  -0.06
