# generated using pymatgen
data_CuH9C7SIN
_symmetry_space_group_name_H-M   'P 1'
_cell_length_a   7.38268573
_cell_length_b   9.47367691
_cell_length_c   14.85076689
_cell_angle_alpha   89.03346900
_cell_angle_beta   87.94213517
_cell_angle_gamma   68.51107441
_symmetry_Int_Tables_number   1
_chemical_formula_structural   CuH9C7SIN
_chemical_formula_sum   'Cu4 H36 C28 S4 I4 N4'
_cell_volume   965.84880514
_cell_formula_units_Z   4
loop_
 _symmetry_equiv_pos_site_id
 _symmetry_equiv_pos_as_xyz
  1  'x, y, z'
loop_
 _atom_site_type_symbol
 _atom_site_label
 _atom_site_symmetry_multiplicity
 _atom_site_fract_x
 _atom_site_fract_y
 _atom_site_fract_z
 _atom_site_occupancy
 _atom_site_hle17_bader_spin_density
 _atom_site_hle17_ddec_charge
 _atom_site_hle17_ddec_spin_density
 _atom_site_hle17_ddec_sum_bond_order
 _atom_site_hle17_magmom
 _atom_site_hse06_10hf_bader_spin_density
 _atom_site_hse06_10hf_ddec_charge
 _atom_site_hse06_10hf_ddec_spin_density
 _atom_site_hse06_10hf_ddec_sum_bond_order
 _atom_site_hse06_10hf_magmom
 _atom_site_hse06_bader_spin_density
 _atom_site_hse06_ddec_charge
 _atom_site_hse06_ddec_spin_density
 _atom_site_hse06_ddec_sum_bond_order
 _atom_site_hse06_magmom
 _atom_site_pbe_bader_spin_density
 _atom_site_pbe_cm5_charge
 _atom_site_pbe_ddec_charge
 _atom_site_pbe_ddec_spin_density
 _atom_site_pbe_ddec_sum_bond_order
 _atom_site_pbe_magmom
Cu  Cu0  1  0.52353618  0.87094859  0.54186959  1  0  0.294055  0  2.311135  0  0  0.22059  0  2.812987  0  0  0.227148  0  2.760975  0  0  0.327699  0.218708  0  2.846078  0
Cu  Cu1  1  0.47646151  0.12905577  0.45813011  1  0  0.294063  0  2.311213  0  0  0.220582  0  2.813111  0  0  0.227145  0  2.761086  0  0  0.327692  0.218701  0  2.846097  0
Cu  Cu2  1  0.53720666  0.86124931  0.96676012  1  0  0.289587  0  2.300328  0  0  0.216178  0  2.796596  0  0  0.222408  0  2.746019  0  0  0.327441  0.215168  0  2.82744  0
Cu  Cu3  1  0.46279331  0.13874712  0.03323893  1  0  0.289559  0  2.300384  0  0  0.216147  0  2.796659  0  0  0.222354  0  2.74608  0  0  0.327455  0.21513  0  2.827557  0
H  H4  1  0.49831325  0.90126791  0.75740833  1  0  0.091964  0  0.96734  0  0  0.097972  0  1.038641  0  0  0.100434  0  1.037313  0  0  0.089001  0.09571  0  1.040177  0
H  H5  1  0.50168462  0.09873305  0.24259274  1  0  0.091962  0  0.967331  0  0  0.097976  0  1.03863  0  0  0.100437  0  1.037307  0  0  0.088991  0.095716  0  1.040165  0
H  H6  1  0.87619532  0.00109602  0.60207558  1  0  0.102249  0  0.933839  0  0  0.116568  0  0.997557  0  0  0.118106  0  0.997249  0  0  0.094463  0.115582  0  0.997256  0
H  H7  1  0.12380509  0.99890831  0.39792542  1  0  0.102254  0  0.933864  0  0  0.116556  0  0.997589  0  0  0.118092  0  0.997279  0  0  0.09446  0.115572  0  0.997287  0
H  H8  1  0.65759919  0.07839228  0.66894537  1  0  0.088757  0  0.960033  0  0  0.10319  0  1.027062  0  0  0.104505  0  1.026899  0  0  0.086779  0.102336  0  1.026948  0
H  H9  1  0.34240207  0.92161317  0.33105426  1  0  0.088788  0  0.959955  0  0  0.103243  0  1.026954  0  0  0.104555  0  1.026788  0  0  0.086808  0.102389  0  1.026846  0
H  H10  1  0.05939529  0.87738776  0.73893554  1  0  0.072409  0  0.959746  0  0  0.090117  0  1.022506  0  0  0.090608  0  1.023654  0  0  0.086119  0.089815  0  1.021873  0
H  H11  1  0.94060293  0.12261547  0.26106349  1  0  0.072431  0  0.959732  0  0  0.090129  0  1.022486  0  0  0.090618  0  1.023634  0  0  0.086125  0.089826  0  1.021852  0
H  H12  1  0.96544081  0.07563159  0.74702615  1  0  0.081963  0  0.952656  0  0  0.099824  0  1.014642  0  0  0.100458  0  1.015751  0  0  0.083206  0.099254  0  1.014036  0
H  H13  1  0.03456012  0.92437161  0.25297418  1  0  0.081977  0  0.952676  0  0  0.09982  0  1.014676  0  0  0.100452  0  1.015782  0  0  0.083206  0.09925  0  1.014068  0
H  H14  1  0.67787036  0.06588747  0.84230801  1  0  0.088497  0  0.960336  0  0  0.102907  0  1.027447  0  0  0.104391  0  1.027077  0  0  0.085515  0.102144  0  1.027171  0
H  H15  1  0.32213057  0.93411572  0.15769232  1  0  0.088492  0  0.960366  0  0  0.102898  0  1.027478  0  0  0.104382  0  1.027108  0  0  0.085511  0.102139  0  1.027202  0
H  H16  1  0.90621077  0.97450848  0.89294056  1  0  0.099002  0  0.941303  0  0  0.11339  0  1.005313  0  0  0.11472  0  1.005505  0  0  0.090274  0.112517  0  1.005235  0
H  H17  1  0.09379068  0.02549359  0.10705909  1  0  0.099012  0  0.941301  0  0  0.113397  0  1.00531  0  0  0.114727  0  1.005503  0  0  0.090272  0.112521  0  1.005231  0
H  H18  1  0.29402783  0.77347409  0.80528962  1  0  0.09469  0  0.974078  0  0  0.104819  0  1.03767  0  0  0.107831  0  1.036158  0  0  0.096628  0.102358  0  1.039435  0
H  H19  1  0.70597316  0.22652007  0.19471145  1  0  0.09476  0  0.974033  0  0  0.104857  0  1.037658  0  0  0.107865  0  1.03615  0  0  0.09664  0.102391  0  1.039423  0
H  H20  1  0.20056050  0.54610566  0.79965497  1  0  0.081338  0  0.961852  0  0  0.087007  0  1.031192  0  0  0.090193  0  1.030132  0  0  0.091284  0.084659  0  1.03231  0
H  H21  1  0.79945394  0.45388271  0.20034863  1  0  0.081406  0  0.961823  0  0  0.087125  0  1.031107  0  0  0.09031  0  1.030048  0  0  0.091288  0.084777  0  1.032224  0
H  H22  1  0.44222205  0.29985867  0.74489447  1  0  0.082388  0  0.98616  0  0  0.085313  0  1.062777  0  0  0.088847  0  1.060826  0  0  0.084432  0.08286  0  1.064133  0
H  H23  1  0.55779526  0.70013532  0.25510770  1  0  0.082414  0  0.986139  0  0  0.085315  0  1.062773  0  0  0.088849  0  1.060823  0  0  0.084436  0.082863  0  1.064129  0
H  H24  1  0.77815829  0.28358906  0.69576920  1  0  0.088677  0  0.976061  0  0  0.100855  0  1.035277  0  0  0.103376  0  1.035095  0  0  0.094671  0.098769  0  1.035644  0
H  H25  1  0.22185592  0.71641175  0.30423162  1  0  0.088728  0  0.97607  0  0  0.1009  0  1.03527  0  0  0.103422  0  1.035086  0  0  0.094656  0.098793  0  1.03567  0
H  H26  1  0.86847971  0.50945288  0.70234303  1  0  0.090494  0  0.962148  0  0  0.098936  0  1.028666  0  0  0.102  0  1.027324  0  0  0.093529  0.096518  0  1.029771  0
H  H27  1  0.13152019  0.49055259  0.29765662  1  0  0.090498  0  0.962134  0  0  0.098952  0  1.028649  0  0  0.102018  0  1.027307  0  0  0.09353  0.09653  0  1.029754  0
H  H28  1  0.24047094  0.48440698  0.46169723  1  0  0.145529  0  0.949285  0  0  0.159509  0  1.017981  0  0  0.16171  0  1.01694  0  0  0.106324  0.157365  0  1.019228  0
H  H29  1  0.75952740  0.51560188  0.53830376  1  0  0.145731  0  0.949148  0  0  0.159622  0  1.017931  0  0  0.161827  0  1.016885  0  0  0.106376  0.157475  0  1.019184  0
H  H30  1  0.03798064  0.62309798  0.51985874  1  0  0.138563  0  0.978378  0  0  0.153334  0  1.044642  0  0  0.15534  0  1.044505  0  0  0.096137  0.151362  0  1.045513  0
H  H31  1  0.96200465  0.37690083  0.48014456  1  0  0.138606  0  0.97851  0  0  0.15336  0  1.044752  0  0  0.155362  0  1.044618  0  0  0.096145  0.151389  0  1.04562  0
H  H32  1  0.22305922  0.47933690  0.58153832  1  0  0.150273  0  0.93791  0  0  0.165183  0  1.001805  0  0  0.16751  0  1.001236  0  0  0.104625  0.163095  0  1.002891  0
H  H33  1  0.77694256  0.52066742  0.41846131  1  0  0.150196  0  0.93788  0  0  0.165081  0  1.001789  0  0  0.167409  0  1.001219  0  0  0.104571  0.162998  0  1.002866  0
H  H34  1  0.03698602  0.63014404  0.00568576  1  0  0.142349  0  0.96895  0  0  0.158126  0  1.031926  0  0  0.160446  0  1.031193  0  0  0.097565  0.156276  0  1.032799  0
H  H35  1  0.96300509  0.36985701  0.99431002  1  0  0.142315  0  0.968933  0  0  0.158091  0  1.031924  0  0  0.160416  0  1.031186  0  0  0.09753  0.156239  0  1.032799  0
H  H36  1  0.18237823  0.53701363  0.09785383  1  0  0.150725  0  0.93702  0  0  0.166671  0  0.998502  0  0  0.168685  0  0.998595  0  0  0.108189  0.16541  0  0.998198  0
H  H37  1  0.81761560  0.46298739  0.90214326  1  0  0.150703  0  0.93719  0  0  0.166651  0  0.998657  0  0  0.168665  0  0.99875  0  0  0.108162  0.165388  0  0.998354  0
H  H38  1  0.24936303  0.45998910  0.98707065  1  0  0.145866  0  0.948956  0  0  0.157704  0  1.019867  0  0  0.160913  0  1.017329  0  0  0.105015  0.155496  0  1.021597  0
H  H39  1  0.75063236  0.54000852  0.01292510  1  0  0.145864  0  0.949  0  0  0.157666  0  1.019945  0  0  0.160872  0  1.017411  0  0  0.104969  0.155459  0  1.021674  0
C  C40  1  0.63179913  0.79893852  0.75237229  1  0  -0.078033  0  3.59301  0  0  -0.078673  0  3.837243  0  0  -0.07775  0  3.849336  0  0  -0.069093  -0.079347  0  3.829856  0
C  C41  1  0.36819876  0.20106245  0.24762743  1  0  -0.078045  0  3.593049  0  0  -0.078706  0  3.837344  0  0  -0.077782  0  3.849439  0  0  -0.069083  -0.079381  0  3.829956  0
C  C42  1  0.80078906  0.98558769  0.66445188  1  0  -0.14082  0  3.63167  0  0  -0.175524  0  3.888525  0  0  -0.17565  0  3.899861  0  0  -0.156823  -0.174932  0  3.880234  0
C  C43  1  0.19920864  0.01441667  0.33554781  1  0  -0.140795  0  3.631663  0  0  -0.175486  0  3.888469  0  0  -0.175599  0  3.899779  0  0  -0.1568  -0.174897  0  3.880177  0
C  C44  1  0.92289410  0.97576285  0.74619438  1  0  -0.104106  0  3.724506  0  0  -0.144855  0  3.979577  0  0  -0.147011  0  3.995893  0  0  -0.177192  -0.143065  0  3.968254  0
C  C45  1  0.07710599  0.02423922  0.25380597  1  0  -0.104146  0  3.724655  0  0  -0.144877  0  3.979676  0  0  -0.147025  0  3.995977  0  0  -0.177188  -0.143087  0  3.968348  0
C  C46  1  0.81835301  0.97052625  0.83548736  1  0  -0.135358  0  3.622399  0  0  -0.170306  0  3.87783  0  0  -0.170406  0  3.889509  0  0  -0.157843  -0.170415  0  3.869908  0
C  C47  1  0.18164539  0.02947358  0.16451371  1  0  -0.13539  0  3.622424  0  0  -0.17035  0  3.877857  0  0  -0.17045  0  3.889526  0  0  -0.157866  -0.170459  0  3.869938  0
C  C48  1  0.58393666  0.65769336  0.75191293  1  0  0.059096  0  3.783706  0  0  0.077625  0  4.022124  0  0  0.07686  0  4.046469  0  0  -0.024087  0.077829  0  4.005921  0
C  C49  1  0.41607010  0.34230301  0.24808669  1  0  0.05919  0  3.783535  0  0  0.077682  0  4.021981  0  0  0.07692  0  4.046325  0  0  -0.024073  0.077891  0  4.005776  0
C  C50  1  0.39775308  0.66559599  0.78045347  1  0  -0.108426  0  3.73524  0  0  -0.127587  0  3.978715  0  0  -0.130188  0  4.000585  0  0  -0.092219  -0.126625  0  3.965901  0
C  C51  1  0.60225503  0.33440036  0.21954747  1  0  -0.10854  0  3.735195  0  0  -0.127652  0  3.978694  0  0  -0.130251  0  4.000566  0  0  -0.092251  -0.126689  0  3.965886  0
C  C52  1  0.34724111  0.53744862  0.77815497  1  0  -0.070379  0  3.772253  0  0  -0.077169  0  4.011889  0  0  -0.080568  0  4.03534  0  0  -0.095904  -0.075541  0  3.997479  0
C  C53  1  0.65277062  0.46253978  0.22184598  1  0  -0.070499  0  3.772411  0  0  -0.077342  0  4.012037  0  0  -0.080739  0  4.035488  0  0  -0.095947  -0.07571  0  3.997628  0
C  C54  1  0.48325279  0.39930206  0.74743567  1  0  -0.068478  0  3.759955  0  0  -0.079136  0  4.001112  0  0  -0.081497  0  4.023887  0  0  -0.094619  -0.078349  0  3.986217  0
C  C55  1  0.51676503  0.60069079  0.25256784  1  0  -0.068453  0  3.760109  0  0  -0.07908  0  4.001265  0  0  -0.08144  0  4.024036  0  0  -0.09458  -0.078291  0  3.98637  0
C  C56  1  0.67048832  0.39014397  0.72020394  1  0  -0.070584  0  3.766498  0  0  -0.079428  0  4.005185  0  0  -0.082406  0  4.028648  0  0  -0.096272  -0.07611  0  3.987969  0
C  C57  1  0.32952560  0.60985460  0.27979286  1  0  -0.070658  0  3.766784  0  0  -0.079493  0  4.005449  0  0  -0.082473  0  4.02892  0  0  -0.096287  -0.076164  0  3.988233  0
C  C58  1  0.72146610  0.51804442  0.72311470  1  0  -0.134439  0  3.766442  0  0  -0.152292  0  4.011664  0  0  -0.155097  0  4.033033  0  0  -0.10125  -0.149195  0  3.995146  0
C  C59  1  0.27854235  0.48195419  0.27688555  1  0  -0.134462  0  3.766477  0  0  -0.152322  0  4.011724  0  0  -0.155132  0  4.033098  0  0  -0.101227  -0.149219  0  3.995197  0
C  C60  1  0.30026204  0.65545424  0.52618033  1  0  0.421877  0  3.645685  0  0  0.415926  0  3.916743  0  0  0.429814  0  3.930989  0  0  0.211478  0.40611  0  3.907296  0
C  C61  1  0.69972521  0.34455811  0.47382081  1  0  0.421643  0  3.646001  0  0  0.415671  0  3.917026  0  0  0.429563  0  3.931275  0  0  0.211332  0.405854  0  3.907533  0
C  C62  1  0.19440144  0.55485641  0.52242660  1  0  -0.375942  0  3.759559  0  0  -0.444846  0  3.985268  0  0  -0.44838  0  3.988165  0  0  -0.215672  -0.441897  0  3.984491  0
C  C63  1  0.80559505  0.44514455  0.47757785  1  0  -0.376072  0  3.759741  0  0  -0.444828  0  3.985389  0  0  -0.448352  0  3.988277  0  0  -0.21567  -0.441883  0  3.984583  0
C  C64  1  0.30253643  0.65793833  0.01168328  1  0  0.421329  0  3.646194  0  0  0.414098  0  3.916168  0  0  0.428347  0  3.93023  0  0  0.212293  0.404634  0  3.906084  0
C  C65  1  0.69745300  0.34205141  0.98831935  1  0  0.421421  0  3.646447  0  0  0.414192  0  3.916398  0  0  0.428437  0  3.930458  0  0  0.212366  0.404729  0  3.906339  0
C  C66  1  0.18658763  0.56557963  0.02597015  1  0  -0.372312  0  3.748381  0  0  -0.438887  0  3.971864  0  0  -0.442686  0  3.974066  0  0  -0.215361  -0.436178  0  3.970272  0
C  C67  1  0.81340285  0.43441693  0.97402299  1  0  -0.372228  0  3.748371  0  0  -0.438811  0  3.971882  0  0  -0.442613  0  3.974089  0  0  -0.215223  -0.436098  0  3.9703  0
S  S68  1  0.75889482  0.81112656  0.64666829  1  0  0.006121  0  2.786716  0  0  0.026194  0  3.198941  0  0  0.025247  0  3.187641  0  0  -0.0339  0.024957  0  3.207286  0
S  S69  1  0.24110184  0.18888006  0.35333208  1  0  0.006047  0  2.786756  0  0  0.026104  0  3.199008  0  0  0.02515  0  3.187704  0  0  -0.033955  0.024875  0  3.207301  0
S  S70  1  0.77111730  0.79624045  0.85268183  1  0  -0.005374  0  2.706268  0  0  0.01764  0  3.108474  0  0  0.015674  0  3.09876  0  0  -0.036011  0.018474  0  3.114723  0
S  S71  1  0.22887988  0.20376505  0.14731652  1  0  -0.005339  0  2.706179  0  0  0.017697  0  3.108367  0  0  0.015736  0  3.098647  0  0  -0.035986  0.018527  0  3.114645  0
I  I72  1  0.74887791  0.86819049  0.39848311  1  0  -0.460229  0  1.342239  0  0  -0.404056  0  1.71382  0  0  -0.421615  0  1.683755  0  0  -0.22074  -0.39073  0  1.733397  0
I  I73  1  0.25111965  0.13180823  0.60151663  1  0  -0.460224  0  1.342238  0  0  -0.404068  0  1.713851  0  0  -0.421625  0  1.683781  0  0  -0.220743  -0.390742  0  1.733422  0
I  I74  1  0.74114723  0.89133048  0.10179544  1  0  -0.453975  0  1.369911  0  0  -0.397588  0  1.742518  0  0  -0.415286  0  1.71262  0  0  -0.215686  -0.385931  0  1.762249  0
I  I75  1  0.25885357  0.10866708  0.89820426  1  0  -0.453974  0  1.369898  0  0  -0.397591  0  1.74253  0  0  -0.415285  0  1.712626  0  0  -0.215684  -0.385933  0  1.76226  0
N  N76  1  0.38503144  0.73745850  0.52893175  1  0  -0.421292  0  3.111091  0  0  -0.386565  0  3.433424  0  0  -0.39539  0  3.431129  0  0  -0.38543  -0.381701  0  3.435227  0
N  N77  1  0.61495023  0.26254826  0.47107019  1  0  -0.421091  0  3.111248  0  0  -0.386364  0  3.433595  0  0  -0.395188  0  3.431295  0  0  -0.385315  -0.38149  0  3.435306  0
N  N78  1  0.39528068  0.73315680  0.99879977  1  0  -0.428055  0  3.129438  0  0  -0.392713  0  3.453553  0  0  -0.401595  0  3.45102  0  0  -0.384561  -0.387342  0  3.453903  0
N  N79  1  0.60471605  0.26684081  0.00119798  1  0  -0.428137  0  3.129919  0  0  -0.392797  0  3.454049  0  0  -0.401676  0  3.451502  0  0  -0.384648  -0.38743  0  3.454447  0
