# generated using pymatgen
data_Cd3H36C30N6(Cl3O)2
_symmetry_space_group_name_H-M   'P 1'
_cell_length_a   9.32486918
_cell_length_b   10.28968662
_cell_length_c   10.82009090
_cell_angle_alpha   112.64699795
_cell_angle_beta   104.22301135
_cell_angle_gamma   96.60697174
_symmetry_Int_Tables_number   1
_chemical_formula_structural   Cd3H36C30N6(Cl3O)2
_chemical_formula_sum   'Cd3 H36 C30 N6 Cl6 O2'
_cell_volume   902.90028115
_cell_formula_units_Z   1
loop_
 _symmetry_equiv_pos_site_id
 _symmetry_equiv_pos_as_xyz
  1  'x, y, z'
loop_
 _atom_site_type_symbol
 _atom_site_label
 _atom_site_symmetry_multiplicity
 _atom_site_fract_x
 _atom_site_fract_y
 _atom_site_fract_z
 _atom_site_occupancy
 _atom_site_pbe_bader_spin_density
 _atom_site_pbe_cm5_charge
 _atom_site_pbe_ddec_charge
 _atom_site_pbe_ddec_spin_density
 _atom_site_pbe_ddec_sum_bond_order
 _atom_site_pbe_magmom
Cd  Cd0  1  0.91776477  0.29340643  0.89690098  1  0  0.589307  0.785826  0  2.409371  0
Cd  Cd1  1  0.08223065  0.70659423  0.10310128  1  0  0.589308  0.785816  0  2.409381  0
Cd  Cd2  1  0.99999995  0.00000288  0.00000064  1  0  0.590578  0.849952  0  2.407105  0
H  H3  1  0.68855398  0.83604903  0.99730045  1  0  0.11138  0.046885  0  1.01262  0
H  H4  1  0.31145086  0.16395804  0.00269786  1  0  0.111371  0.046876  0  1.01259  0
H  H5  1  0.34862539  0.57337889  0.78791114  1  0  0.103778  0.126077  0  0.994478  0
H  H6  1  0.65138514  0.42661619  0.21210526  1  0  0.10374  0.126095  0  0.994503  0
H  H7  1  0.45675495  0.70923802  0.95797555  1  0  0.098054  0.118595  0  1.031851  0
H  H8  1  0.54325673  0.29076573  0.04203687  1  0  0.098036  0.118553  0  1.031925  0
H  H9  1  0.48522370  0.52851726  0.90252851  1  0  0.094373  0.115956  0  1.020008  0
H  H10  1  0.51479431  0.47148969  0.09749290  1  0  0.094442  0.116021  0  1.020012  0
H  H11  1  0.46355632  0.48311874  0.61546821  1  0  0.1081  0.123738  0  1.001244  0
H  H12  1  0.53645697  0.51687414  0.38454521  1  0  0.108075  0.123666  0  1.001331  0
H  H13  1  0.65963408  0.48718582  0.68453484  1  0  0.101266  0.119898  0  1.020753  0
H  H14  1  0.34038117  0.51281899  0.31548520  1  0  0.101278  0.119883  0  1.020955  0
H  H15  1  0.61046342  0.61544599  0.61862981  1  0  0.10464  0.119409  0  1.020105  0
H  H16  1  0.38954382  0.38454912  0.38138036  1  0  0.104564  0.119264  0  1.020196  0
H  H17  1  0.32314577  0.09372671  0.32401278  1  0  0.099413  0.113903  0  1.037766  0
H  H18  1  0.67686898  0.90626722  0.67597639  1  0  0.099454  0.113893  0  1.037856  0
H  H19  1  0.16264121  0.11125372  0.47615092  1  0  0.088524  0.095258  0  1.055794  0
H  H20  1  0.83735622  0.88875017  0.52382985  1  0  0.088585  0.0953  0  1.055784  0
H  H21  1  0.27319149  0.20040410  0.73598647  1  0  0.085941  0.092007  0  1.046879  0
H  H22  1  0.72679599  0.79959990  0.26399682  1  0  0.086008  0.092077  0  1.046748  0
H  H23  1  0.55670621  0.26548344  0.84931464  1  0  0.092366  0.102774  0  1.056254  0
H  H24  1  0.44328039  0.73451731  0.15068207  1  0  0.092349  0.102754  0  1.056263  0
H  H25  1  0.53046569  0.07128380  0.23653005  1  0  0.10876  0.129158  0  0.998755  0
H  H26  1  0.46953691  0.92871026  0.76346118  1  0  0.108772  0.129225  0  0.998663  0
H  H27  1  0.72661588  0.06752532  0.27557232  1  0  0.101039  0.123934  0  1.029651  0
H  H28  1  0.27338672  0.93247309  0.72442604  1  0  0.101015  0.123897  0  1.029663  0
H  H29  1  0.67282622  0.23164264  0.28843863  1  0  0.103646  0.125265  0  1.001712  0
H  H30  1  0.32717527  0.76835144  0.71155514  1  0  0.103638  0.125248  0  1.001652  0
H  H31  1  0.94685230  0.14642280  0.45885170  1  0  0.100548  0.123907  0  1.011947  0
H  H32  1  0.05314505  0.85357675  0.54114873  1  0  0.100571  0.123946  0  1.011851  0
H  H33  1  0.02278706  0.25042923  0.64447496  1  0  0.099743  0.125475  0  1.003915  0
H  H34  1  0.97720560  0.74957364  0.35552752  1  0  0.099731  0.125446  0  1.003944  0
H  H35  1  0.93193397  0.51859636  0.71323379  1  0  0.093803  0.098705  0  1.031267  0
H  H36  1  0.06806529  0.48140209  0.28677126  1  0  0.09383  0.098717  0  1.031326  0
H  H37  1  0.02143463  0.26419393  0.32928486  1  0  0.092587  0.106979  0  1.035433  0
H  H38  1  0.97855801  0.73580459  0.67072065  1  0  0.09259  0.106957  0  1.035447  0
C  C39  1  0.69408014  0.76711204  0.89216752  1  0  0.162484  0.29071  0  4.113369  0
C  C40  1  0.30592052  0.23289182  0.10783611  1  0  0.16254  0.290799  0  4.113306  0
C  C41  1  0.46091050  0.61371565  0.86864595  1  0  -0.138182  -0.283092  0  3.918038  0
C  C42  1  0.53910531  0.38628698  0.13136879  1  0  -0.138269  -0.283192  0  3.918155  0
C  C43  1  0.57756797  0.55377045  0.67430102  1  0  -0.13541  -0.265879  0  3.867545  0
C  C44  1  0.42244175  0.44623007  0.32571535  1  0  -0.135308  -0.265617  0  3.867672  0
C  C45  1  0.78536231  0.21674728  0.56227348  1  0  0.235997  0.326557  0  3.946729  0
C  C46  1  0.21463670  0.78325008  0.43772373  1  0  0.235956  0.326437  0  3.946853  0
C  C47  1  0.59742897  0.21580224  0.64973146  1  0  0.078733  0.136463  0  4.106784  0
C  C48  1  0.40256593  0.78420060  0.35026409  1  0  0.078704  0.136453  0  4.106999  0
C  C49  1  0.53249739  0.16962476  0.50264453  1  0  0.09148  0.081386  0  4.02173  0
C  C50  1  0.46750385  0.83037692  0.49735011  1  0  0.091453  0.081333  0  4.021787  0
C  C51  1  0.37532306  0.13176814  0.43734241  1  0  -0.097828  -0.161602  0  3.99625  0
C  C52  1  0.62467956  0.86823027  0.56264672  1  0  -0.097895  -0.161696  0  3.996397  0
C  C53  1  0.28540128  0.14359759  0.52500988  1  0  -0.102707  -0.083763  0  4.005268  0
C  C54  1  0.71459368  0.85641392  0.47497407  1  0  -0.102665  -0.08368  0  4.005081  0
C  C55  1  0.34860706  0.19233523  0.67194418  1  0  -0.104107  -0.09172  0  4.013279  0
C  C56  1  0.65138347  0.80767199  0.32804002  1  0  -0.104228  -0.09177  0  4.012808  0
C  C57  1  0.50556222  0.22835307  0.73613138  1  0  -0.100612  -0.162113  0  3.990466  0
C  C58  1  0.49442828  0.77165416  0.26386022  1  0  -0.100561  -0.162146  0  3.990524  0
C  C59  1  0.64578671  0.13393010  0.30457074  1  0  -0.128425  -0.258758  0  3.861735  0
C  C60  1  0.35421395  0.86606507  0.69542417  1  0  -0.128388  -0.258768  0  3.861636  0
C  C61  1  0.93938376  0.24100938  0.54811176  1  0  -0.149283  -0.295565  0  3.951575  0
C  C62  1  0.06061331  0.75898909  0.45188729  1  0  -0.149286  -0.295586  0  3.95139  0
C  C63  1  0.97310058  0.37581741  0.52406482  1  0  -0.015917  0.116946  0  3.96163  0
C  C64  1  0.02687717  0.62417909  0.47593122  1  0  -0.016006  0.116861  0  3.961219  0
C  C65  1  0.96117398  0.50947439  0.61904384  1  0  -0.10065  -0.140991  0  3.991568  0
C  C66  1  0.03881646  0.49051981  0.38095223  1  0  -0.100637  -0.140907  0  3.991191  0
C  C67  1  0.01226389  0.36738604  0.40473181  1  0  -0.097914  -0.137288  0  3.984112  0
C  C68  1  0.98772737  0.63261141  0.59527301  1  0  -0.097877  -0.137165  0  3.984074  0
N  N69  1  0.57669757  0.65351676  0.81247154  1  0  -0.28484  0.030944  0  3.729411  0
N  N70  1  0.42331189  0.34648702  0.18754226  1  0  -0.284771  0.030934  0  3.729291  0
N  N71  1  0.75485838  0.24427433  0.68304278  1  0  -0.365281  -0.410476  0  3.486235  0
N  N72  1  0.24513456  0.75572527  0.31695395  1  0  -0.365302  -0.410407  0  3.48637  0
N  N73  1  0.65466435  0.17161294  0.45084362  1  0  -0.23883  -0.01641  0  3.691567  0
N  N74  1  0.34533769  0.82838330  0.54915106  1  0  -0.238804  -0.016329  0  3.691512  0
Cl  Cl75  1  0.03199224  0.05943393  0.79036857  1  0  -0.284599  -0.497748  0  1.266066  0
Cl  Cl76  1  0.96799987  0.94056677  0.20962931  1  0  -0.28458  -0.497751  0  1.266072  0
Cl  Cl77  1  0.20582713  0.84078493  0.98732684  1  0  -0.292622  -0.472906  0  1.261759  0
Cl  Cl78  1  0.79416304  0.15921253  0.01267036  1  0  -0.292631  -0.472915  0  1.261744  0
Cl  Cl79  1  0.17302527  0.46362071  0.97091815  1  0  -0.291605  -0.463378  0  1.269149  0
Cl  Cl80  1  0.82697179  0.53637776  0.02908644  1  0  -0.291598  -0.463376  0  1.269165  0
O  O81  1  0.80411359  0.79489820  0.85112192  1  0  -0.312445  -0.460069  0  2.372949  0
O  O82  1  0.19588873  0.20510348  0.14888127  1  0  -0.312484  -0.460098  0  2.372949  0
