# generated using pymatgen
data_Al3H15C38N(ClO7)2
_symmetry_space_group_name_H-M   'P 1'
_cell_length_a   12.51666305
_cell_length_b   12.48481479
_cell_length_c   28.75787474
_cell_angle_alpha   90.05563205
_cell_angle_beta   90.07112467
_cell_angle_gamma   60.84144112
_symmetry_Int_Tables_number   1
_chemical_formula_structural   Al3H15C38N(ClO7)2
_chemical_formula_sum   'Al6 H30 C76 N2 Cl4 O28'
_cell_volume   3924.44243785
_cell_formula_units_Z   2
loop_
 _symmetry_equiv_pos_site_id
 _symmetry_equiv_pos_as_xyz
  1  'x, y, z'
loop_
 _atom_site_type_symbol
 _atom_site_label
 _atom_site_symmetry_multiplicity
 _atom_site_fract_x
 _atom_site_fract_y
 _atom_site_fract_z
 _atom_site_occupancy
 _atom_site_pbe_bader_charge
 _atom_site_pbe_bader_spin_density
 _atom_site_pbe_cm5_charge
 _atom_site_pbe_ddec_charge
 _atom_site_pbe_ddec_spin_density
 _atom_site_pbe_ddec_sum_bond_order
 _atom_site_pbe_magmom
Al  Al0  1  0.41816261  0.40684686  0.50029141  1  2.499715  0  0.399167  1.683771  0  2.556449  0
Al  Al1  1  0.42223514  0.66254128  0.50093328  1  2.481922  0  0.508453  1.661538  0  2.510291  0
Al  Al2  1  0.66305216  0.42929636  0.49983291  1  2.47874  0  0.509496  1.661341  0  2.509031  0
Al  Al3  1  0.92310442  0.92526667  0.99962693  1  2.494046  0  0.398278  1.681854  0  2.560201  0
Al  Al4  1  0.67123997  0.91587517  0.99957598  1  2.478183  0  0.509901  1.66041  0  2.506229  0
Al  Al5  1  0.90612798  0.67648776  0.99996147  1  2.477696  0  0.509031  1.66394  0  2.507869  0
H  H6  1  0.46690518  0.82048710  0.78075768  1  0.091236  0  0.102293  0.103087  0  0.991992  0
H  H7  1  0.48022095  0.32126633  0.71036758  1  0.096596  0  0.110624  0.114037  0  0.988229  0
H  H8  1  0.19070850  0.48645695  0.70395210  1  0.083304  0  0.11896  0.126966  0  0.972073  0
H  H9  1  0.15288247  0.49482617  0.78952765  1  0.089913  0  0.11884  0.125291  0  0.967801  0
H  H10  1  0.16888787  0.84205014  0.71119403  1  0.135296  0  0.117279  0.135869  0  0.975854  0
H  H11  1  0.85013628  0.63942145  0.21294230  1  0.113297  0  0.101237  0.121302  0  1.026039  0
H  H12  1  0.47812796  0.70940351  0.19777182  1  0.105471  0  0.114854  0.12125  0  0.98068  0
H  H13  1  0.46324442  0.69712686  0.28361116  1  0.097227  0  0.111324  0.114056  0  0.995055  0
H  H14  1  0.59100385  0.36460404  0.28397194  1  0.067876  0  0.106664  0.111057  0  0.992438  0
H  H15  1  0.59673951  0.87291217  0.71236953  1  0.080733  0  0.107658  0.100225  0  0.980998  0
H  H16  1  0.58348747  0.33733414  0.19829574  1  0.064357  0  0.10885  0.120731  0  0.988334  0
H  H17  1  0.18989495  0.83386569  0.28768061  1  0.089069  0  0.115226  0.121342  0  0.978149  0
H  H18  1  0.15325476  0.83397928  0.20224326  1  0.110293  0  0.119875  0.128388  0  0.964905  0
H  H19  1  0.16191174  0.50401297  0.30178700  1  0.115733  0  0.115885  0.139113  0  0.975361  0
H  H20  1  0.74184567  0.47169954  0.78591687  1  0.127798  0  0.110094  0.111053  0  0.97451  0
H  H21  1  0.87067218  0.52724172  0.71825498  1  0.085381  0  0.105142  0.095083  0  0.985918  0
H  H22  1  0.81286247  0.74774768  0.76597850  1  0.073884  0  0.102868  0.093128  0  0.989058  0
H  H23  1  0.86464161  0.05802120  0.70384116  1  0.0873  0  0.109849  0.115264  0  0.985671  0
H  H24  1  0.86582410  0.02209296  0.78916014  1  0.100115  0  0.098923  0.101647  0  1.03407  0
H  H25  1  0.48075529  0.28376379  0.79567372  1  0.068013  0  0.110607  0.112899  0  0.987213  0
H  H26  1  0.84864363  0.86777598  0.28855598  1  0.452882  0  0.279182  0.216558  0  1.05027  0
H  H27  1  0.95053130  0.95739215  0.34758860  1  0.045117  0  0.094411  0.097781  0  0.985529  0
H  H28  1  0.91328885  0.84144712  0.36367245  1  0.037305  0  0.102274  0.112265  0  0.994868  0
H  H29  1  0.81220853  0.99689806  0.37793441  1  0.090274  0  0.102535  0.118103  0  1.010241  0
H  H30  1  0.44952434  0.62656988  0.70627840  1  0.404962  0  0.291721  0.237366  0  0.970464  0
H  H31  1  0.40045725  0.52082571  0.76308953  1  0.046451  0  0.091689  0.094681  0  1.042913  0
H  H32  1  0.40756334  0.64194843  0.79359704  1  0.022615  0  0.082637  0.080489  0  1.016532  0
H  H33  1  0.53379950  0.48997087  0.79492798  1  0.042972  0  0.100289  0.109171  0  0.989034  0
H  H34  1  0.32176718  0.30017064  0.47121531  1  0.568438  0  0.295108  0.386313  0  0.917674  0
H  H35  1  0.01057732  0.04115911  0.02763770  1  0.582293  0  0.2953  0.386292  0  0.917677  0
C  C36  1  0.28848734  0.61702434  0.56711064  1  1.676909  0  0.279438  0.700846  0  4.173934  0
C  C37  1  0.63551381  0.64322685  0.61163335  1  0.118294  0  -0.045184  -0.222257  0  3.961166  0
C  C38  1  0.74884452  0.71418358  0.75813254  1  -0.008007  0  -0.062798  -0.063127  0  3.609277  0
C  C39  1  0.67642472  0.68372402  0.79680446  1  0.112713  0  0.007567  0.120607  0  3.806125  0
C  C40  1  0.78101598  0.59203247  0.73233457  1  -0.034939  0  -0.066237  -0.067031  0  3.641972  0
C  C41  1  0.66110885  0.66194711  0.70170628  1  0.082598  0  0.007144  0.059829  0  3.786141  0
C  C42  1  0.70960489  0.56122303  0.76954850  1  -0.073104  0  -0.068303  -0.13005  0  3.612385  0
C  C43  1  0.58921321  0.63030634  0.74044346  1  0.455793  0  0.105346  0.199696  0  3.730217  0
C  C44  1  0.68630408  0.69472812  0.84532818  1  -0.458505  0  -0.008937  -0.002914  0  4.047519  0
C  C45  1  0.64876465  0.65169305  0.65332576  1  -0.334422  0  -0.007702  0.009858  0  4.05109  0
C  C46  1  0.66097502  0.23718092  0.61202100  1  0.015101  0  -0.031173  -0.185415  0  3.934707  0
C  C47  1  0.61128765  0.62062091  0.56505810  1  1.615824  0  0.284566  0.727367  0  4.146239  0
C  C48  1  0.78103645  0.10681536  0.72415354  1  -0.060767  0  -0.078089  -0.12127  0  3.959708  0
C  C49  1  0.78164399  0.08656485  0.77155394  1  0.031529  0  -0.079469  -0.116205  0  3.95497  0
C  C50  1  0.56413616  0.23455294  0.77527992  1  0.001055  0  -0.077169  -0.121412  0  3.966311  0
C  C51  1  0.56368446  0.25515346  0.72792629  1  -0.047468  0  -0.07306  -0.10965  0  3.948385  0
C  C52  1  0.67203142  0.19128897  0.70163635  1  0.122418  0  0.006057  0.126535  0  4.108974  0
C  C53  1  0.67304126  0.14994963  0.79779151  1  0.01017  0  0.003493  0.12579  0  4.110066  0
C  C54  1  0.67589547  0.12660835  0.84594598  1  -0.427939  0  -0.017049  -0.024888  0  4.077148  0
C  C55  1  0.66919117  0.21398238  0.65342515  1  -0.286725  0  -0.01181  -0.017874  0  4.071076  0
C  C56  1  0.68472902  0.10169909  0.88720843  1  0.176854  0  -0.031932  -0.184423  0  3.938519  0
C  C57  1  0.23693926  0.64519625  0.61312455  1  0.19286  0  -0.022249  -0.162208  0  3.929289  0
C  C58  1  0.63305903  0.28590366  0.56568712  1  1.680045  0  0.280797  0.709971  0  4.167207  0
C  C59  1  0.17685153  0.56565258  0.72441894  1  -0.016704  0  -0.075542  -0.130504  0  3.955455  0
C  C60  1  0.15605601  0.57037301  0.77185697  1  -0.031412  0  -0.069286  -0.102173  0  3.958838  0
C  C61  1  0.14460316  0.77007332  0.77586001  1  0.071155  0  0.026736  0.107035  0  4.037291  0
C  C62  1  0.16479739  0.76632042  0.72824599  1  -0.066955  0  -0.081596  -0.195401  0  3.934638  0
C  C63  1  0.18191120  0.66376195  0.70203048  1  0.142706  0  0.009239  0.14906  0  4.114235  0
C  C64  1  0.13996410  0.67188155  0.79881688  1  0.164545  0  0.002092  0.06807  0  4.099619  0
C  C65  1  0.11899526  0.67555125  0.84706303  1  -0.412089  0  -0.026037  -0.038008  0  4.11401  0
C  C66  1  0.20890039  0.65660900  0.65407811  1  -0.459944  0  -0.022558  -0.044925  0  4.081496  0
C  C67  1  0.09787441  0.68175537  0.88859578  1  0.148764  0  -0.019945  -0.15682  0  3.914411  0
C  C68  1  0.62809629  0.64638649  0.38775393  1  -0.306117  0  -0.025652  -0.180389  0  3.907637  0
C  C69  1  0.28227841  0.62539817  0.43535557  1  1.697522  0  0.275913  0.70792  0  4.170298  0
C  C70  1  0.75472281  0.64953033  0.27622873  1  0.038026  0  0.025588  0.114566  0  4.013748  0
C  C71  1  0.76490289  0.65338163  0.22826047  1  0.034786  0  -0.084416  -0.192705  0  3.946475  0
C  C72  1  0.55561318  0.69200394  0.21990536  1  -0.044607  0  -0.075536  -0.122768  0  3.943492  0
C  C73  1  0.54718778  0.68580065  0.26780437  1  -0.034936  0  -0.07183  -0.096418  0  3.9465  0
C  C74  1  0.64602858  0.66486400  0.29726102  1  0.229239  0  0.002123  0.064093  0  4.087015  0
C  C75  1  0.66484873  0.67605843  0.19944460  1  0.095319  0  0.01125  0.147064  0  4.088825  0
C  C76  1  0.67567418  0.68581377  0.15078307  1  0.14245  0  -0.00315  -0.000189  0  4.026856  0
C  C77  1  0.63676039  0.65650610  0.34594635  1  0.031493  0  -0.010253  -0.00089  0  4.079108  0
C  C78  1  0.68824321  0.69671745  0.10931199  1  -0.344774  0  -0.025746  -0.181983  0  3.904178  0
C  C79  1  0.66393021  0.23395734  0.38746298  1  -0.18359  0  -0.039141  -0.21301  0  3.931679  0
C  C80  1  0.60880863  0.62077218  0.43476779  1  1.68798  0  0.286402  0.721323  0  4.147675  0
C  C81  1  0.63495593  0.27311745  0.26873448  1  0.021071  0  -0.084723  -0.112015  0  4.023808  0
C  C82  1  0.62969164  0.25869467  0.22131076  1  -0.05027  0  -0.100276  -0.154797  0  4.022516  0
C  C83  1  0.74614406  0.03828533  0.23213139  1  0.036184  0  0.008139  -0.006017  0  3.965646  0
C  C84  1  0.75394115  0.04991926  0.28095905  1  0.549525  0  0.106771  0.140438  0  4.05223  0
C  C85  1  0.69430541  0.17190301  0.29910014  1  0.124102  0  -0.011235  0.024178  0  4.078121  0
C  C86  1  0.68522544  0.13939398  0.20231267  1  0.171676  0  -0.00669  0.076391  0  4.155939  0
C  C87  1  0.68284784  0.12078761  0.15392965  1  -0.201179  0  -0.014889  -0.000214  0  4.087969  0
C  C88  1  0.68339943  0.19916513  0.34718401  1  -0.093646  0  -0.00794  0.015511  0  4.086596  0
C  C89  1  0.68405792  0.10202435  0.11231683  1  -0.055596  0  -0.03246  -0.18954  0  3.91898  0
C  C90  1  0.22876581  0.65488101  0.38965916  1  0.140309  0  -0.029242  -0.175972  0  3.928581  0
C  C91  1  0.63003991  0.28745166  0.43297913  1  1.661228  0  0.277453  0.717326  0  4.16515  0
C  C92  1  0.17621553  0.76214517  0.27185845  1  0.004856  0  -0.080402  -0.131154  0  3.961267  0
C  C93  1  0.15631149  0.76199344  0.22450357  1  -0.044616  0  -0.071954  -0.099908  0  3.957405  0
C  C94  1  0.13946217  0.57719184  0.23255471  1  0.076776  0  0.022193  0.107395  0  4.035907  0
C  C95  1  0.16015956  0.57615487  0.28006397  1  -0.039365  0  -0.08341  -0.192635  0  3.940585  0
C  C96  1  0.17886132  0.66861620  0.30025326  1  0.08935  0  0.005381  0.144096  0  4.11221  0
C  C97  1  0.13766390  0.66981500  0.20364756  1  0.165166  0  -0.002508  0.063528  0  4.110093  0
C  C98  1  0.11379474  0.67456046  0.15557011  1  -0.139829  0  -0.02947  -0.037641  0  4.124941  0
C  C99  1  0.20330499  0.66422668  0.34842338  1  -0.426638  0  -0.019962  -0.036025  0  4.078929  0
C  C100  1  0.08980010  0.68562040  0.11420413  1  -0.128033  0  -0.025038  -0.162224  0  3.91673  0
C  C101  1  0.71491634  0.05124298  0.93324897  1  1.66821  0  0.278327  0.708447  0  4.16567  0
C  C102  1  0.62853216  0.78417219  0.72930808  1  -0.022758  0  -0.066687  -0.065696  0  3.648769  0
C  C103  1  0.71485785  0.73002069  0.93399950  1  1.629776  0  0.2835  0.726241  0  4.147974  0
C  C104  1  0.04948621  0.70746954  0.93511219  1  1.687047  0  0.282724  0.703015  0  4.166748  0
C  C105  1  0.70653138  0.05482237  0.06560588  1  1.654502  0  0.280892  0.716988  0  4.155875  0
C  C106  1  0.71609077  0.72097679  0.06332695  1  1.644522  0  0.287468  0.722158  0  4.149152  0
C  C107  1  0.04128929  0.71644574  0.06781287  1  1.69053  0  0.277525  0.708297  0  4.163812  0
C  C108  1  0.55633995  0.75486613  0.76661369  1  -0.072353  0  -0.078411  -0.152767  0  3.611638  0
C  C109  1  0.69409100  0.70564834  0.88719090  1  0.194268  0  -0.045675  -0.218987  0  3.967588  0
C  C110  1  0.87510937  0.93614839  0.35138610  1  0.282211  0  -0.137288  -0.209746  0  3.955447  0
C  C111  1  0.46068507  0.55788398  0.77274126  1  0.25985  0  -0.149927  -0.216035  0  4.001463  0
N  N112  1  0.81264200  0.94630245  0.30756609  1  -1.21142  0  -0.446807  -0.280955  0  3.626228  0
N  N113  1  0.51444852  0.57761546  0.73070184  1  -1.103566  0  -0.473005  -0.357783  0  3.492212  0
Cl  Cl114  1  0.12697267  0.89492625  0.80734604  1  -0.180237  0  0.030873  -0.040696  0  1.487617  0
Cl  Cl115  1  0.87654227  0.62693435  0.31088946  1  -0.195275  0  0.025315  -0.048236  0  1.562021  0
Cl  Cl116  1  0.81661067  0.89260262  0.20813868  1  -0.217633  0  0.027506  -0.044249  0  1.66213  0
Cl  Cl117  1  0.11353456  0.46537056  0.20872024  1  -0.180359  0  0.015434  -0.051272  0  1.486346  0
O  O118  1  0.53239140  0.30468476  0.54868086  1  -1.211331  0  -0.201703  -0.541397  0  2.287178  0
O  O119  1  0.50836021  0.69722299  0.45414113  1  -1.246499  0  -0.223918  -0.583902  0  2.24905  0
O  O120  1  0.69049362  0.52031046  0.45266048  1  -1.245932  0  -0.22233  -0.578578  0  2.238364  0
O  O121  1  0.70796987  0.31007617  0.45409805  1  -1.257935  0  -0.241568  -0.606205  0  2.237433  0
O  O122  1  0.50168223  0.50085737  0.50012917  1  -1.612265  0  -0.390895  -1.274488  0  2.293165  0
O  O123  1  0.03250966  0.80632257  0.95332788  1  -1.205842  0  -0.195573  -0.525728  0  2.280509  0
O  O124  1  0.82248874  0.01809107  0.94684648  1  -1.211926  0  -0.200928  -0.540795  0  2.294168  0
O  O125  1  0.63228024  0.03962240  0.95598565  1  -1.255535  0  -0.242257  -0.607803  0  2.231129  0
O  O126  1  0.63769409  0.83398171  0.95138399  1  -1.246048  0  -0.228072  -0.591153  0  2.242061  0
O  O127  1  0.81163431  0.64943172  0.95452424  1  -1.250668  0  -0.228981  -0.594694  0  2.25027  0
O  O128  1  0.02240423  0.62897977  0.95305794  1  -1.244811  0  -0.238952  -0.599646  0  2.229646  0
O  O129  1  0.31698387  0.51225445  0.55136467  1  -1.207315  0  -0.197398  -0.528633  0  2.284511  0
O  O130  1  0.01373330  0.82252188  0.05370808  1  -1.21096  0  -0.207162  -0.556662  0  2.297324  0
O  O131  1  0.80372010  0.03877708  0.04627988  1  -1.223835  0  -0.209213  -0.564552  0  2.286636  0
O  O132  1  0.62795679  0.02705567  0.04833129  1  -1.2506  0  -0.238193  -0.595624  0  2.225456  0
O  O133  1  0.63869184  0.82046578  0.04366008  1  -1.240292  0  -0.220962  -0.578689  0  2.244163  0
O  O134  1  0.82038720  0.64322754  0.04679325  1  -1.241858  0  -0.224143  -0.584046  0  2.244921  0
O  O135  1  0.02595079  0.63529002  0.04550630  1  -1.255705  0  -0.241189  -0.602658  0  2.232565  0
O  O136  1  0.83267603  0.83812017  0.00008742  1  -1.605642  0  -0.391193  -1.275115  0  2.295568  0
O  O137  1  0.30489065  0.70019927  0.54704673  1  -1.249395  0  -0.240363  -0.602068  0  2.239935  0
O  O138  1  0.50810963  0.69742363  0.54710183  1  -1.252683  0  -0.230081  -0.59521  0  2.244039  0
O  O139  1  0.69160239  0.52236518  0.54517425  1  -1.25004  0  -0.22743  -0.591039  0  2.246728  0
O  O140  1  0.71095212  0.31123650  0.54621389  1  -1.24472  0  -0.240749  -0.60305  0  2.232338  0
O  O141  1  0.52584719  0.31175083  0.44801759  1  -1.222859  0  -0.210575  -0.566319  0  2.295384  0
O  O142  1  0.30895228  0.52119787  0.45127241  1  -1.212965  0  -0.208022  -0.559559  0  2.293624  0
O  O143  1  0.30307832  0.70631488  0.45509316  1  -1.249078  0  -0.240949  -0.600444  0  2.231992  0
O  O144  1  0.34057180  0.32236570  0.50110454  1  -1.351353  0  -0.574011  -0.990666  0  1.791527  0
O  O145  1  0.00822562  0.00215291  0.99890822  1  -1.359939  0  -0.57312  -0.989101  0  1.790891  0
