# generated using pymatgen
data_AgH7C6BrN
_symmetry_space_group_name_H-M   'P 1'
_cell_length_a   8.68321897
_cell_length_b   9.69361775
_cell_length_c   17.88490000
_cell_angle_alpha   90.00000000
_cell_angle_beta   90.00000000
_cell_angle_gamma   99.62582628
_symmetry_Int_Tables_number   1
_chemical_formula_structural   AgH7C6BrN
_chemical_formula_sum   'Ag8 H56 C48 Br8 N8'
_cell_volume   1484.20938370
_cell_formula_units_Z   8
loop_
 _symmetry_equiv_pos_site_id
 _symmetry_equiv_pos_as_xyz
  1  'x, y, z'
loop_
 _atom_site_type_symbol
 _atom_site_label
 _atom_site_symmetry_multiplicity
 _atom_site_fract_x
 _atom_site_fract_y
 _atom_site_fract_z
 _atom_site_occupancy
 _atom_site_hle17_bader_spin_density
 _atom_site_hle17_ddec_charge
 _atom_site_hle17_ddec_spin_density
 _atom_site_hle17_ddec_sum_bond_order
 _atom_site_hle17_magmom
 _atom_site_hse06_10hf_bader_spin_density
 _atom_site_hse06_10hf_ddec_charge
 _atom_site_hse06_10hf_ddec_spin_density
 _atom_site_hse06_10hf_ddec_sum_bond_order
 _atom_site_hse06_10hf_magmom
 _atom_site_hse06_bader_spin_density
 _atom_site_hse06_ddec_charge
 _atom_site_hse06_ddec_spin_density
 _atom_site_hse06_ddec_sum_bond_order
 _atom_site_hse06_magmom
 _atom_site_pbe_bader_charge
 _atom_site_pbe_bader_spin_density
 _atom_site_pbe_cm5_charge
 _atom_site_pbe_ddec_charge
 _atom_site_pbe_ddec_spin_density
 _atom_site_pbe_ddec_sum_bond_order
 _atom_site_pbe_magmom
Ag  Ag0  1  0.14085542  0.60054792  0.51719998  1  0  0.371078  0  1.772723  0  0  0.255826  0  2.287805  0  0  0.285125  0  2.232289  0  0.425182  0  0.264465  0.235928  0  2.325502  0
Ag  Ag1  1  0.64085448  0.10054892  0.98280002  1  0  0.371063  0  1.772736  0  0  0.25584  0  2.287807  0  0  0.285129  0  2.232307  0  0.425174  0  0.264464  0.235942  0  2.325504  0
Ag  Ag2  1  0.85914767  0.39945532  0.48280002  1  0  0.371087  0  1.77272  0  0  0.255868  0  2.287773  0  0  0.285146  0  2.232292  0  0.424902  0  0.264464  0.23597  0  2.32547  0
Ag  Ag3  1  0.35914631  0.89945432  0.01719943  1  0  0.371103  0  1.772747  0  0  0.255873  0  2.287814  0  0  0.285161  0  2.232317  0  0.424964  0  0.264476  0.235976  0  2.32551  0
Ag  Ag4  1  0.35683095  0.39347340  0.48921381  1  0  0.374608  0  1.741223  0  0  0.255871  0  2.253439  0  0  0.285599  0  2.198046  0  0.430721  0  0.262287  0.235391  0  2.291591  0
Ag  Ag5  1  0.85682586  0.89347031  0.01078731  1  0  0.374578  0  1.741231  0  0  0.255841  0  2.253428  0  0  0.28557  0  2.198039  0  0.430942  0  0.262276  0.235363  0  2.291579  0
Ag  Ag6  1  0.64317445  0.60652984  0.51078675  1  0  0.374591  0  1.741247  0  0  0.255858  0  2.253447  0  0  0.285588  0  2.198059  0  0.43093  0  0.262295  0.235381  0  2.291598  0
Ag  Ag7  1  0.14316915  0.10652665  0.98921437  1  0  0.374608  0  1.741229  0  0  0.255884  0  2.253439  0  0  0.285615  0  2.198048  0  0.430701  0  0.262287  0.235404  0  2.291593  0
H  H8  1  0.42267320  0.84423068  0.49383446  1  0  0.063921  0  0.973944  0  0  0.068807  0  1.050612  0  0  0.071283  0  1.048137  0  0.093121  0  0.098986  0.066906  0  1.052546  0
H  H9  1  0.92267648  0.34422958  0.00616665  1  0  0.063928  0  0.973931  0  0  0.0688  0  1.05061  0  0  0.07127  0  1.048148  0  0.093101  0  0.098988  0.066916  0  1.052526  0
H  H10  1  0.57732337  0.15577465  0.50616610  1  0  0.063938  0  0.973846  0  0  0.068802  0  1.050557  0  0  0.07126  0  1.04809  0  0.093099  0  0.098992  0.066901  0  1.05249  0
H  H11  1  0.07732737  0.65577156  0.99383446  1  0  0.063862  0  0.973847  0  0  0.068718  0  1.050568  0  0  0.071198  0  1.048093  0  0.093152  0  0.098948  0.066832  0  1.052488  0
H  H12  1  0.53455880  0.02636877  0.40098463  1  0  0.100674  0  0.975982  0  0  0.111271  0  1.038596  0  0  0.113325  0  1.040084  0  0.092552  0  0.100134  0.109967  0  1.037414  0
H  H13  1  0.03456033  0.52637091  0.09901537  1  0  0.100656  0  0.97601  0  0  0.111248  0  1.038631  0  0  0.113308  0  1.040104  0  0.092483  0  0.100137  0.109944  0  1.037449  0
H  H14  1  0.46543909  0.97363133  0.59901369  1  0  0.100711  0  0.976012  0  0  0.111288  0  1.03864  0  0  0.113342  0  1.04013  0  0.092496  0  0.100148  0.109985  0  1.037457  0
H  H15  1  0.96544372  0.47363128  0.90098463  1  0  0.100665  0  0.976006  0  0  0.111253  0  1.038624  0  0  0.113314  0  1.040095  0  0.092533  0  0.100142  0.109949  0  1.037443  0
H  H16  1  0.12288454  0.90078526  0.26660255  1  0  0.105565  0  0.971536  0  0  0.114787  0  1.035269  0  0  0.117811  0  1.034894  0  0.093445  0  0.095234  0.112591  0  1.035837  0
H  H17  1  0.62288455  0.40078521  0.23339633  1  0  0.105552  0  0.971531  0  0  0.114775  0  1.035262  0  0  0.117798  0  1.034888  0  0.093474  0  0.095216  0.112579  0  1.03583  0
H  H18  1  0.87711317  0.09921379  0.73339577  1  0  0.105533  0  0.971584  0  0  0.114753  0  1.035309  0  0  0.117775  0  1.034938  0  0.093475  0  0.095199  0.112557  0  1.035877  0
H  H19  1  0.37711719  0.59921698  0.76660143  1  0  0.105609  0  0.971582  0  0  0.114817  0  1.035315  0  0  0.117841  0  1.03494  0  0.093434  0  0.095255  0.11262  0  1.035883  0
H  H20  1  0.02503299  0.72767383  0.36639623  1  0  0.071877  0  0.950866  0  0  0.082336  0  1.016174  0  0  0.083828  0  1.015296  0  0.072099  0  0.108767  0.081142  0  1.017002  0
H  H21  1  0.52503511  0.22767274  0.13360321  1  0  0.071853  0  0.950904  0  0  0.082365  0  1.01616  0  0  0.083857  0  1.015282  0  0.072109  0  0.108786  0.081172  0  1.016987  0
H  H22  1  0.97496300  0.27232836  0.63360433  1  0  0.071917  0  0.950866  0  0  0.082399  0  1.016142  0  0  0.08389  0  1.015264  0  0.072186  0  0.108802  0.081206  0  1.016969  0
H  H23  1  0.47496893  0.77232946  0.86639456  1  0  0.07193  0  0.95097  0  0  0.082427  0  1.016227  0  0  0.08392  0  1.015347  0  0.072051  0  0.108813  0.081216  0  1.017073  0
H  H24  1  0.51916673  0.05770765  0.24775984  1  0  0.119925  0  0.952545  0  0  0.141405  0  1.014622  0  0  0.142507  0  1.015229  0  0.054112  0  0.090179  0.140679  0  1.014155  0
H  H25  1  0.01916556  0.55770770  0.25224072  1  0  0.119947  0  0.952518  0  0  0.14143  0  1.014587  0  0  0.142541  0  1.015185  0  0.054112  0  0.090186  0.140704  0  1.01412  0
H  H26  1  0.48083194  0.94229036  0.75223904  1  0  0.119941  0  0.95253  0  0  0.14142  0  1.014612  0  0  0.142523  0  1.015218  0  0.05411  0  0.09018  0.140695  0  1.014145  0
H  H27  1  0.98083369  0.44229345  0.74775928  1  0  0.119946  0  0.952519  0  0  0.141423  0  1.014595  0  0  0.142533  0  1.015194  0  0.054116  0  0.09018  0.140696  0  1.014128  0
H  H28  1  0.42607463  0.18801233  0.28879614  1  0  0.117007  0  0.95909  0  0  0.136081  0  1.025385  0  0  0.137564  0  1.025095  0  0.059952  0  0.085232  0.134921  0  1.025748  0
H  H29  1  0.92607473  0.68801238  0.21120331  1  0  0.117026  0  0.959152  0  0  0.1361  0  1.025434  0  0  0.137582  0  1.025148  0  0.05994  0  0.085251  0.13494  0  1.025797  0
H  H30  1  0.57392518  0.81198568  0.71120219  1  0  0.117  0  0.9592  0  0  0.136072  0  1.025486  0  0  0.137554  0  1.025198  0  0.05991  0  0.085216  0.134916  0  1.025846  0
H  H31  1  0.07392662  0.31198772  0.78879669  1  0  0.117022  0  0.95909  0  0  0.136096  0  1.025375  0  0  0.137578  0  1.025088  0  0.059958  0  0.085244  0.134936  0  1.025738  0
H  H32  1  0.32901790  0.07533740  0.21751422  1  0  0.105252  0  0.9787  0  0  0.121802  0  1.049636  0  0  0.12316  0  1.049451  0  0.064856  0  0.08276  0.120736  0  1.049917  0
H  H33  1  0.82901589  0.57533850  0.28248522  1  0  0.105254  0  0.978676  0  0  0.121794  0  1.049627  0  0  0.123151  0  1.049443  0  0.064848  0  0.082748  0.120728  0  1.049908  0
H  H34  1  0.67098192  0.92466061  0.78248411  1  0  0.105243  0  0.978708  0  0  0.121807  0  1.049626  0  0  0.123166  0  1.049442  0  0.064885  0  0.082763  0.120742  0  1.049908  0
H  H35  1  0.17098431  0.42466160  0.71751366  1  0  0.105192  0  0.978739  0  0  0.121757  0  1.04966  0  0  0.123115  0  1.049476  0  0.064832  0  0.082734  0.120692  0  1.049941  0
H  H36  1  0.36797166  0.32811911  0.65948314  1  0  0.065836  0  0.977882  0  0  0.073641  0  1.047218  0  0  0.075802  0  1.045271  0  0.112417  0  0.10107  0.072123  0  1.048527  0
H  H37  1  0.86797597  0.82811707  0.84051798  1  0  0.065739  0  0.977885  0  0  0.073544  0  1.047234  0  0  0.075706  0  1.045286  0  0.112416  0  0.101042  0.072026  0  1.048543  0
H  H38  1  0.63203200  0.67188099  0.34051686  1  0  0.065778  0  0.977909  0  0  0.073558  0  1.047277  0  0  0.075718  0  1.045332  0  0.11226  0  0.10104  0.07204  0  1.048587  0
H  H39  1  0.13203016  0.17187780  0.15948482  1  0  0.065802  0  0.97786  0  0  0.073583  0  1.047223  0  0  0.075744  0  1.045277  0  0.112153  0  0.101045  0.072065  0  1.048533  0
H  H40  1  0.28285756  0.13969034  0.75392202  1  0  0.107145  0  0.978525  0  0  0.116408  0  1.042004  0  0  0.11981  0  1.040995  0  0.101578  0  0.09346  0.113843  0  1.043123  0
H  H41  1  0.78286227  0.63969039  0.74607742  1  0  0.107141  0  0.978573  0  0  0.116413  0  1.042029  0  0  0.119805  0  1.041033  0  0.101564  0  0.093463  0.113847  0  1.043148  0
H  H42  1  0.71714264  0.86030976  0.24607798  1  0  0.10714  0  0.978518  0  0  0.116405  0  1.041996  0  0  0.119804  0  1.040992  0  0.101583  0  0.093456  0.11384  0  1.043115  0
H  H43  1  0.21714080  0.36030657  0.25392426  1  0  0.107142  0  0.97854  0  0  0.11642  0  1.042005  0  0  0.119809  0  1.04101  0  0.101505  0  0.093441  0.113854  0  1.043125  0
H  H44  1  0.08069624  0.87789661  0.57218100  1  0  0.103179  0  0.980639  0  0  0.108368  0  1.055335  0  0  0.112023  0  1.053126  0  0.098361  0  0.092329  0.105746  0  1.057175  0
H  H45  1  0.58069702  0.37789447  0.92781788  1  0  0.103168  0  0.980639  0  0  0.108383  0  1.055309  0  0  0.112038  0  1.0531  0  0.098325  0  0.092331  0.105756  0  1.057152  0
H  H46  1  0.91930205  0.12210558  0.42781956  1  0  0.103213  0  0.980582  0  0  0.108422  0  1.055261  0  0  0.112079  0  1.05305  0  0.098332  0  0.092351  0.105797  0  1.057103  0
H  H47  1  0.41929780  0.62210144  0.07218212  1  0  0.103244  0  0.980527  0  0  0.108422  0  1.055232  0  0  0.112077  0  1.053022  0  0.098315  0  0.092343  0.105799  0  1.057071  0
H  H48  1  0.16913805  0.07824831  0.48598035  1  0  0.073422  0  0.945398  0  0  0.083781  0  1.008287  0  0  0.085528  0  1.007742  0  0.108642  0  0.109442  0.082509  0  1.008635  0
H  H49  1  0.66913872  0.57824522  0.01401797  1  0  0.073437  0  0.945363  0  0  0.083786  0  1.00827  0  0  0.085531  0  1.007726  0  0.108668  0  0.109442  0.082508  0  1.008627  0
H  H50  1  0.83086330  0.92175179  0.51401965  1  0  0.07341  0  0.945404  0  0  0.083767  0  1.008284  0  0  0.085513  0  1.00774  0  0.10864  0  0.109442  0.082495  0  1.008632  0
H  H51  1  0.33085801  0.42174860  0.98598203  1  0  0.073448  0  0.945337  0  0  0.083793  0  1.008243  0  0  0.085539  0  1.007699  0  0.108702  0  0.109445  0.082504  0  1.00861  0
H  H52  1  0.15577870  0.90609543  0.78253107  1  0  0.116627  0  0.951973  0  0  0.134015  0  1.018037  0  0  0.135751  0  1.017695  0  0.065491  0  0.087146  0.132614  0  1.018524  0
H  H53  1  0.65577892  0.40609643  0.71746781  1  0  0.116616  0  0.951988  0  0  0.134002  0  1.018059  0  0  0.135739  0  1.017716  0  0.065456  0  0.087146  0.132602  0  1.018546  0
H  H54  1  0.84422074  0.09390676  0.21746893  1  0  0.116634  0  0.952014  0  0  0.134019  0  1.018063  0  0  0.135753  0  1.017722  0  0.065495  0  0.087153  0.132619  0  1.018548  0
H  H55  1  0.34421937  0.59390577  0.28253219  1  0  0.116612  0  0.952  0  0  0.134013  0  1.018034  0  0  0.135749  0  1.017693  0  0.065459  0  0.087149  0.132612  0  1.018521  0
H  H56  1  0.17002252  0.78214097  0.70985300  1  0  0.12159  0  0.946428  0  0  0.142632  0  1.008176  0  0  0.143732  0  1.008983  0  0.068004  0  0.0905  0.141646  0  1.007985  0
H  H57  1  0.67002253  0.28214092  0.79014588  1  0  0.121608  0  0.946402  0  0  0.142651  0  1.008146  0  0  0.143752  0  1.008951  0  0.068014  0  0.090507  0.141665  0  1.007954  0
H  H58  1  0.82997597  0.21786227  0.29014700  1  0  0.121643  0  0.946325  0  0  0.142665  0  1.008099  0  0  0.143767  0  1.008901  0  0.068014  0  0.090496  0.141678  0  1.007907  0
H  H59  1  0.32997517  0.71785813  0.20985300  1  0  0.121601  0  0.946393  0  0  0.142644  0  1.008144  0  0  0.14374  0  1.008955  0  0.067998  0  0.090501  0.141658  0  1.007953  0
H  H60  1  0.99359634  0.84514413  0.72255702  1  0  0.116488  0  0.947907  0  0  0.140367  0  1.005987  0  0  0.141316  0  1.006373  0  0.04396  0  0.091268  0.139713  0  1.005682  0
H  H61  1  0.49359644  0.34514513  0.77744242  1  0  0.116507  0  0.947878  0  0  0.140387  0  1.005953  0  0  0.141337  0  1.006338  0  0.043972  0  0.091258  0.139732  0  1.005648  0
H  H62  1  0.00640175  0.15485701  0.27744354  1  0  0.116495  0  0.947938  0  0  0.140384  0  1.005993  0  0  0.141334  0  1.006379  0  0.043989  0  0.091268  0.139728  0  1.005688  0
H  H63  1  0.50639896  0.65485392  0.22255646  1  0  0.11649  0  0.947922  0  0  0.140375  0  1.005981  0  0  0.141325  0  1.006365  0  0.044016  0  0.09126  0.139719  0  1.005676  0
C  C64  1  0.35871320  0.86228316  0.44325157  1  0  0.114436  0  3.746004  0  0  0.086987  0  3.995526  0  0  0.093293  0  4.015707  0  0.473231  0  0.032671  0.082935  0  3.982112  0
C  C65  1  0.85871648  0.36228206  0.05674843  1  0  0.114383  0  3.745982  0  0  0.08697  0  3.995504  0  0  0.093276  0  4.015685  0  0.47325  0  0.032704  0.082906  0  3.982084  0
C  C66  1  0.64128240  0.13771695  0.55674843  1  0  0.114434  0  3.745878  0  0  0.087004  0  3.995395  0  0  0.093333  0  4.015583  0  0.473238  0  0.0327  0.082954  0  3.98198  0
C  C67  1  0.14128890  0.63771490  0.94324933  1  0  0.114434  0  3.746033  0  0  0.087015  0  3.995546  0  0  0.093316  0  4.015728  0  0.473263  0  0.032647  0.082953  0  3.982127  0
C  C68  1  0.42066246  0.96256630  0.39121549  1  0  -0.185341  0  3.717696  0  0  -0.200006  0  3.953506  0  0  -0.208868  0  3.977204  0  -0.038894  0  -0.092739  -0.194377  0  3.937466  0
C  C69  1  0.92066383  0.46256730  0.10878506  1  0  -0.185213  0  3.717614  0  0  -0.199861  0  3.953409  0  0  -0.208721  0  3.977109  0  -0.038861  0  -0.092709  -0.194234  0  3.937375  0
C  C70  1  0.57933313  0.03743380  0.60878506  1  0  -0.185352  0  3.717816  0  0  -0.199981  0  3.953623  0  0  -0.208844  0  3.977315  0  -0.038901  0  -0.09276  -0.194353  0  3.937582  0
C  C71  1  0.07933753  0.53743280  0.89121438  1  0  -0.185306  0  3.717609  0  0  -0.19991  0  3.95342  0  0  -0.20877  0  3.977121  0  -0.038884  0  -0.092714  -0.194282  0  3.937387  0
C  C72  1  0.33799922  0.97880233  0.32537224  1  0  0.206427  0  3.726197  0  0  0.231484  0  3.951648  0  0  0.237389  0  3.973169  0  -0.055328  0  0.01303  0.227651  0  3.936467  0
C  C73  1  0.83799904  0.47880124  0.17462720  1  0  0.206307  0  3.726227  0  0  0.231349  0  3.951699  0  0  0.237252  0  3.973224  0  -0.055446  0  0.012986  0.227516  0  3.936518  0
C  C74  1  0.66200098  0.02119777  0.67462552  1  0  0.20637  0  3.726232  0  0  0.231393  0  3.951732  0  0  0.237297  0  3.973254  0  -0.05519  0  0.013012  0.22756  0  3.936551  0
C  C75  1  0.16200576  0.52119886  0.82537112  1  0  0.206499  0  3.726089  0  0  0.231424  0  3.951697  0  0  0.237328  0  3.973221  0  -0.055057  0  0.013014  0.227591  0  3.936517  0
C  C76  1  0.19221625  0.89338347  0.31687513  1  0  -0.187535  0  3.710783  0  0  -0.201189  0  3.946929  0  0  -0.210167  0  3.969359  0  -0.038863  0  -0.090996  -0.195126  0  3.931725  0
C  C77  1  0.69221626  0.39338342  0.18312543  1  0  -0.187525  0  3.710751  0  0  -0.201166  0  3.946906  0  0  -0.210144  0  3.969336  0  -0.038758  0  -0.091002  -0.195104  0  3.931703  0
C  C78  1  0.80778280  0.10661663  0.68312487  1  0  -0.187518  0  3.710838  0  0  -0.201153  0  3.94699  0  0  -0.21013  0  3.969419  0  -0.038727  0  -0.090988  -0.195091  0  3.931787  0
C  C79  1  0.30778183  0.60661773  0.81687289  1  0  -0.187572  0  3.710937  0  0  -0.201162  0  3.947108  0  0  -0.210141  0  3.969539  0  -0.0385  0  -0.091004  -0.195097  0  3.931898  0
C  C80  1  0.13744674  0.79631048  0.37204961  1  0  0.126773  0  3.733017  0  0  0.096987  0  3.983554  0  0  0.104452  0  4.003669  0  0.509164  0  0.038599  0.09223  0  3.969729  0
C  C81  1  0.63744675  0.29631043  0.12794872  1  0  0.126789  0  3.732957  0  0  0.096969  0  3.983518  0  0  0.104434  0  4.00363  0  0.509185  0  0.038591  0.092212  0  3.969692  0
C  C82  1  0.86255271  0.20369171  0.62794928  1  0  0.126703  0  3.732968  0  0  0.096901  0  3.983524  0  0  0.104366  0  4.003636  0  0.509095  0  0.038557  0.092143  0  3.969699  0
C  C83  1  0.36255575  0.70368967  0.87204793  1  0  0.126684  0  3.733063  0  0  0.096863  0  3.983591  0  0  0.104329  0  4.003704  0  0.509162  0  0.038521  0.092118  0  3.969771  0
C  C84  1  0.40554939  0.08073546  0.26647507  1  0  -0.351785  0  3.706909  0  0  -0.429878  0  3.934907  0  0  -0.432793  0  3.943175  0  -0.081257  0  -0.245212  -0.427453  0  3.929  0
C  C85  1  0.90554969  0.58073656  0.23352493  1  0  -0.351812  0  3.706902  0  0  -0.42989  0  3.934883  0  0  -0.432811  0  3.943148  0  -0.081238  0  -0.245229  -0.427465  0  3.928978  0
C  C86  1  0.59445042  0.91926255  0.73352381  1  0  -0.351753  0  3.706978  0  0  -0.429848  0  3.934973  0  0  -0.432762  0  3.943244  0  -0.081481  0  -0.245188  -0.427428  0  3.929063  0
C  C87  1  0.09445206  0.41926564  0.76647563  1  0  -0.351821  0  3.706912  0  0  -0.429886  0  3.93493  0  0  -0.432809  0  3.943195  0  -0.081951  0  -0.245211  -0.427461  0  3.929024  0
C  C88  1  0.30267609  0.22676452  0.64276345  1  0  0.115368  0  3.748349  0  0  0.088125  0  3.995892  0  0  0.095164  0  4.015516  0  0.431141  0  0.036549  0.083595  0  3.982312  0
C  C89  1  0.80267925  0.72676247  0.85723655  1  0  0.115591  0  3.748184  0  0  0.088333  0  3.995721  0  0  0.095372  0  4.015343  0  0.43118  0  0.036603  0.083803  0  3.982142  0
C  C90  1  0.69732757  0.77323559  0.35723655  1  0  0.115448  0  3.748279  0  0  0.088228  0  3.99581  0  0  0.095268  0  4.015432  0  0.431346  0  0.036608  0.083697  0  3.982232  0
C  C91  1  0.19732343  0.27323240  0.14276569  1  0  0.115508  0  3.748261  0  0  0.088301  0  3.995805  0  0  0.09534  0  4.015425  0  0.431322  0  0.036616  0.08377  0  3.982228  0
C  C92  1  0.25502901  0.12169332  0.69482916  1  0  -0.184878  0  3.70424  0  0  -0.199264  0  3.94202  0  0  -0.208124  0  3.963791  0  -0.008984  0  -0.089556  -0.193427  0  3.927448  0
C  C93  1  0.75503238  0.62169233  0.80517140  1  0  -0.185032  0  3.704238  0  0  -0.199399  0  3.941999  0  0  -0.208253  0  3.963779  0  -0.008935  0  -0.089601  -0.193562  0  3.927426  0
C  C94  1  0.74497177  0.87830992  0.30517084  1  0  -0.184959  0  3.704069  0  0  -0.199342  0  3.941855  0  0  -0.208199  0  3.963627  0  -0.008984  0  -0.089606  -0.193505  0  3.927284  0
C  C95  1  0.24496820  0.37830359  0.19483139  1  0  -0.184939  0  3.704259  0  0  -0.199336  0  3.942028  0  0  -0.208186  0  3.963811  0  -0.008955  0  -0.089546  -0.193499  0  3.927456  0
C  C96  1  0.17339764  0.99235555  0.67103199  1  0  0.200883  0  3.730304  0  0  0.224471  0  3.959897  0  0  0.23045  0  3.981698  0  -0.076065  0  0.013918  0.220595  0  3.944829  0
C  C97  1  0.67339977  0.49235446  0.82896689  1  0  0.200967  0  3.73011  0  0  0.224536  0  3.959718  0  0  0.230515  0  3.981518  0  -0.076183  0  0.013936  0.22066  0  3.944649  0
C  C98  1  0.82660200  0.00764769  0.32896857  1  0  0.20093  0  3.730197  0  0  0.224507  0  3.959822  0  0  0.230486  0  3.981623  0  -0.076123  0  0.013933  0.220631  0  3.944753  0
C  C99  1  0.32659889  0.50764355  0.17103311  1  0  0.200909  0  3.730144  0  0  0.224486  0  3.959765  0  0  0.230465  0  3.981563  0  -0.076192  0  0.01387  0.220609  0  3.944698  0
C  C100  1  0.14284332  0.97679023  0.59412577  1  0  -0.185531  0  3.704765  0  0  -0.201256  0  3.94816  0  0  -0.210038  0  3.969911  0  -0.012568  0  -0.091316  -0.195741  0  3.933784  0
C  C101  1  0.64284275  0.47678704  0.90587311  1  0  -0.185527  0  3.704698  0  0  -0.20127  0  3.948084  0  0  -0.210052  0  3.969836  0  -0.012631  0  -0.091332  -0.195749  0  3.933702  0
C  C102  1  0.85715612  0.02321197  0.40587311  1  0  -0.185582  0  3.70473  0  0  -0.201344  0  3.94813  0  0  -0.210126  0  3.96988  0  -0.01266  0  -0.091342  -0.195825  0  3.933752  0
C  C103  1  0.35715148  0.52320574  0.09412801  1  0  -0.185567  0  3.704531  0  0  -0.201284  0  3.947939  0  0  -0.210065  0  3.969689  0  -0.01217  0  -0.091267  -0.195766  0  3.933557  0
C  C104  1  0.19253007  0.08768628  0.54584314  1  0  0.117277  0  3.732831  0  0  0.089102  0  3.982143  0  0  0.095881  0  4.002369  0  0.424255  0  0.037226  0.084796  0  3.968391  0
C  C105  1  0.69252748  0.58768424  0.95415630  1  0  0.11725  0  3.73281  0  0  0.089063  0  3.98213  0  0  0.095843  0  4.002357  0  0.424605  0  0.037229  0.084763  0  3.96838  0
C  C106  1  0.80747283  0.91231591  0.45415686  1  0  0.117333  0  3.732659  0  0  0.089184  0  3.981961  0  0  0.095963  0  4.002189  0  0.424614  0  0.037266  0.084879  0  3.968208  0
C  C107  1  0.30746945  0.41231063  0.04584538  1  0  0.11729  0  3.732686  0  0  0.089151  0  3.98199  0  0  0.09593  0  4.002213  0  0.424094  0  0.037234  0.084859  0  3.968243  0
C  C108  1  0.12117031  0.87588241  0.72505130  1  0  -0.349966  0  3.70014  0  0  -0.429589  0  3.929122  0  0  -0.432642  0  3.937803  0  -0.084226  0  -0.242732  -0.427301  0  3.923287  0
C  C109  1  0.62117147  0.37588236  0.77494758  1  0  -0.350016  0  3.7001  0  0  -0.42964  0  3.929086  0  0  -0.432694  0  3.937766  0  -0.084237  0  -0.242733  -0.427351  0  3.92325  0
C  C110  1  0.87882664  0.12411873  0.27494926  1  0  -0.350056  0  3.700126  0  0  -0.429652  0  3.929103  0  0  -0.432706  0  3.937779  0  -0.084288  0  -0.242741  -0.427361  0  3.923267  0
C  C111  1  0.37882623  0.62411669  0.22505186  1  0  -0.349966  0  3.70012  0  0  -0.429595  0  3.929107  0  0  -0.432645  0  3.937791  0  -0.084238  0  -0.242716  -0.427305  0  3.92327  0
Br  Br112  1  0.40284003  0.60737110  0.60402183  1  0  -0.478195  0  1.256873  0  0  -0.389251  0  1.637574  0  0  -0.411771  0  1.60327  0  -0.504442  0  -0.238212  -0.373683  0  1.661153  0
Br  Br113  1  0.90283754  0.10737000  0.89597817  1  0  -0.478194  0  1.256865  0  0  -0.389252  0  1.637554  0  0  -0.411771  0  1.603251  0  -0.50442  0  -0.238221  -0.373687  0  1.661136  0
Br  Br114  1  0.59716113  0.39262796  0.39597761  1  0  -0.478216  0  1.256867  0  0  -0.389277  0  1.637563  0  0  -0.411793  0  1.603257  0  -0.504427  0  -0.238231  -0.373711  0  1.661142  0
Br  Br115  1  0.09716207  0.89262696  0.10402239  1  0  -0.478205  0  1.256856  0  0  -0.389273  0  1.637572  0  0  -0.411791  0  1.603266  0  -0.504418  0  -0.238231  -0.373707  0  1.661152  0
Br  Br116  1  0.10765883  0.40080509  0.39638578  1  0  -0.48085  0  1.290888  0  0  -0.394692  0  1.67867  0  0  -0.417843  0  1.645158  0  -0.496021  0  -0.240788  -0.37813  0  1.70103  0
Br  Br117  1  0.60765893  0.90080514  0.10361478  1  0  -0.480841  0  1.290868  0  0  -0.394668  0  1.678623  0  0  -0.417819  0  1.645108  0  -0.496107  0  -0.24078  -0.378113  0  1.700993  0
Br  Br118  1  0.89234137  0.59919501  0.60361534  1  0  -0.480814  0  1.290856  0  0  -0.394637  0  1.678611  0  0  -0.417788  0  1.645096  0  -0.496091  0  -0.24077  -0.378082  0  1.700983  0
Br  Br119  1  0.39234127  0.09919496  0.89638578  1  0  -0.480832  0  1.290874  0  0  -0.394665  0  1.678645  0  0  -0.41782  0  1.645138  0  -0.496076  0  -0.24078  -0.378103  0  1.701003  0
N  N120  1  0.21913717  0.77958267  0.43428814  1  0  -0.30509  0  3.306733  0  0  -0.22932  0  3.583804  0  0  -0.248842  0  3.60194  0  -1.228964  0  -0.347661  -0.21605  0  3.570962  0
N  N121  1  0.71914159  0.27958158  0.06571242  1  0  -0.305049  0  3.30673  0  0  -0.229349  0  3.583899  0  0  -0.248869  0  3.602034  0  -1.22898  0  -0.347689  -0.21608  0  3.571065  0
N  N122  1  0.78085921  0.22042161  0.56571242  1  0  -0.305078  0  3.306581  0  0  -0.229345  0  3.583707  0  0  -0.248866  0  3.601832  0  -1.228948  0  -0.347668  -0.216076  0  3.570866  0
N  N123  1  0.28086361  0.72042062  0.93428758  1  0  -0.305058  0  3.30669  0  0  -0.229313  0  3.583775  0  0  -0.248835  0  3.601911  0  -1.228878  0  -0.3476  -0.216043  0  3.570935  0
N  N124  1  0.27182578  0.21161249  0.56928694  1  0  -0.306167  0  3.313049  0  0  -0.230102  0  3.594395  0  0  -0.249692  0  3.612059  0  -1.196594  0  -0.346018  -0.216958  0  3.582281  0
N  N125  1  0.77182645  0.71160940  0.93071306  1  0  -0.306194  0  3.312964  0  0  -0.230115  0  3.594306  0  0  -0.249704  0  3.611968  0  -1.196832  0  -0.346002  -0.216972  0  3.58219  0
N  N126  1  0.72817672  0.78838761  0.43071250  1  0  -0.30618  0  3.312971  0  0  -0.23013  0  3.594316  0  0  -0.249719  0  3.611977  0  -1.196854  0  -0.346057  -0.216986  0  3.582202  0
N  N127  1  0.22817258  0.28838442  0.06928918  1  0  -0.306299  0  3.312947  0  0  -0.23029  0  3.594337  0  0  -0.249879  0  3.611997  0  -1.196606  0  -0.346097  -0.217145  0  3.58222  0
