# generated using pymatgen
data_CoH26C32(NO)4
_symmetry_space_group_name_H-M   'P 1'
_cell_length_a   12.13878893
_cell_length_b   14.88980703
_cell_length_c   17.46800485
_cell_angle_alpha   83.51546828
_cell_angle_beta   69.69376011
_cell_angle_gamma   70.97523681
_symmetry_Int_Tables_number   1
_chemical_formula_structural   CoH26C32(NO)4
_chemical_formula_sum   'Co4 H104 C128 N16 O16'
_cell_volume   2799.28440910
_cell_formula_units_Z   4
loop_
 _symmetry_equiv_pos_site_id
 _symmetry_equiv_pos_as_xyz
  1  'x, y, z'
loop_
 _atom_site_type_symbol
 _atom_site_label
 _atom_site_symmetry_multiplicity
 _atom_site_fract_x
 _atom_site_fract_y
 _atom_site_fract_z
 _atom_site_occupancy
 _atom_site_pbe_bader_charge
 _atom_site_pbe_bader_spin_density
 _atom_site_pbe_cm5_charge
 _atom_site_pbe_ddec_charge
 _atom_site_pbe_ddec_spin_density
 _atom_site_pbe_ddec_sum_bond_order
 _atom_site_pbe_magmom
Co  Co0  1  0.46060401  0.25002948  0.07891699  1  1.199787  2.55499  0.67381  0.849759  2.76229  2.518832  2.497
Co  Co1  1  0.53939614  0.74997089  0.92108262  1  1.199881  2.554984  0.673796  0.849735  2.762291  2.518852  2.497
Co  Co2  1  0.79489033  0.74997686  0.41027975  1  1.21596  2.558525  0.660432  0.827851  2.793253  2.49535  2.523
Co  Co3  1  0.20511352  0.25001925  0.58972050  1  1.215895  2.558549  0.660406  0.827859  2.793268  2.495258  2.523
H  H4  1  0.73588357  0.20845449  0.99748657  1  0.082416  0.000468  0.101452  0.114266  0.000135  1.04469  0.0
H  H5  1  0.26647996  0.29137284  0.99751332  1  0.088365  0.000444  0.101349  0.113988  0.000131  1.044897  0.0
H  H6  1  0.26411543  0.79154588  0.00251418  1  0.082412  0.000468  0.101462  0.114258  0.000135  1.044716  0.0
H  H7  1  0.73352523  0.70862612  0.00248622  1  0.0884  0.000445  0.101334  0.113961  0.000131  1.044882  0.0
H  H8  1  0.93122116  0.19913571  0.88070139  1  0.084472  2.7e-05  0.100962  0.104273  -2.6e-05  0.996113  0.0
H  H9  1  0.18771123  0.30045335  0.88080748  1  0.051313  2.7e-05  0.100985  0.104239  -2.6e-05  0.993922  0.0
H  H10  1  0.06877727  0.80086465  0.11929993  1  0.084428  2.7e-05  0.10096  0.104301  -2.6e-05  0.996105  0.0
H  H11  1  0.81229023  0.69955058  0.11919378  1  0.051283  2.7e-05  0.101007  0.104248  -2.6e-05  0.993955  0.0
H  H12  1  0.93503059  0.31377755  0.76781842  1  0.136886  1.8e-05  0.105914  0.118456  -0.000173  1.023217  0.0
H  H13  1  0.29686320  0.18581142  0.76787435  1  0.127287  1.8e-05  0.105901  0.118701  -0.000173  1.023021  0.0
H  H14  1  0.06496878  0.68622211  0.23218312  1  0.136852  1.8e-05  0.105914  0.118453  -0.000173  1.023233  0.0
H  H15  1  0.70313465  0.81419037  0.23212698  1  0.127244  1.8e-05  0.105919  0.118747  -0.000173  1.022983  0.0
H  H16  1  0.74331843  0.44564698  0.76692482  1  0.101895  0.000439  0.107882  0.123499  0.000139  1.013671  0.0
H  H17  1  0.48964002  0.05414469  0.76693191  1  0.105035  0.000437  0.107938  0.123017  0.000139  1.014518  0.0
H  H18  1  0.25668104  0.55435410  0.23307693  1  0.10185  0.000439  0.107916  0.123541  0.000139  1.013739  0.0
H  H19  1  0.51035841  0.94585710  0.23306885  1  0.105004  0.000438  0.107917  0.122986  0.000139  1.014517  0.0
H  H20  1  0.26574180  0.43946417  0.05733400  1  0.072092  -0.000153  0.106227  0.158258  -0.000225  1.024664  0.0
H  H21  1  0.67693912  0.06050474  0.05743689  1  0.095659  -0.000152  0.106018  0.158094  -0.000225  1.024622  0.0
H  H22  1  0.73425634  0.56053690  0.94266733  1  0.072262  -0.000153  0.106236  0.158297  -0.000225  1.02462  0.0
H  H23  1  0.32306045  0.93949421  0.94256386  1  0.095428  -0.000152  0.105983  0.158042  -0.000225  1.024707  0.0
H  H24  1  0.25968871  0.46207717  0.95639769  1  0.079778  -0.000382  0.105409  0.155393  -0.00034  0.975399  0.0
H  H25  1  0.78387891  0.03788892  0.95651129  1  0.042183  -0.000382  0.105811  0.155755  -0.00034  0.975294  0.0
H  H26  1  0.74031086  0.53792320  0.04360249  1  0.079758  -0.000382  0.105395  0.15536  -0.00034  0.975431  0.0
H  H27  1  0.21612409  0.96210932  0.04348897  1  0.042204  -0.000382  0.105827  0.155771  -0.00034  0.975295  0.0
H  H28  1  0.28136960  0.54768205  0.00840712  1  0.069105  -9.1e-05  0.102294  0.150232  -0.000104  1.015227  0.0
H  H29  1  0.71018397  0.95231687  0.00842831  1  0.070815  -9.1e-05  0.101936  0.150233  -0.000105  1.016176  0.0
H  H30  1  0.71862998  0.45231831  0.99159306  1  0.069114  -9.1e-05  0.102291  0.150214  -0.000104  1.015211  0.0
H  H31  1  0.28981675  0.04768207  0.99157130  1  0.070832  -9.1e-05  0.101953  0.150275  -0.000105  1.016157  0.0
H  H32  1  0.53844203  0.57454427  0.82750705  1  0.133423  0.000341  0.117341  0.109161  0.000269  1.029808  0.0
H  H33  1  0.63384908  0.92542395  0.82748489  1  0.137724  0.000336  0.117874  0.109889  0.000267  1.029455  0.0
H  H34  1  0.46155869  0.42545468  0.17249257  1  0.133408  0.000341  0.117339  0.109137  0.000269  1.029846  0.0
H  H35  1  0.36615165  0.07457784  0.17251358  1  0.137827  0.000336  0.117901  0.109933  0.000267  1.029401  0.0
H  H36  1  0.38361389  0.57810734  0.87496260  1  0.053479  5.5e-05  0.117721  0.108001  -5.8e-05  0.964915  0.0
H  H37  1  0.74122872  0.92173835  0.87502536  1  0.065607  5.4e-05  0.117376  0.107232  -5.8e-05  0.965204  0.0
H  H38  1  0.61638416  0.42189231  0.12503851  1  0.053492  5.5e-05  0.117737  0.108038  -5.8e-05  0.964892  0.0
H  H39  1  0.25877353  0.07826273  0.12497275  1  0.065864  5.4e-05  0.117394  0.107281  -5.8e-05  0.965208  0.0
H  H40  1  0.47329652  0.35390732  0.81340596  1  0.061535  5e-06  0.098937  0.10004  -4.4e-05  1.030034  0.0
H  H41  1  0.71302929  0.14601235  0.81360102  1  0.060037  5e-06  0.098664  0.099478  -4.5e-05  1.029508  0.0
H  H42  1  0.52670705  0.64609092  0.18659373  1  0.061569  5e-06  0.098918  0.100008  -4.4e-05  1.030104  0.0
H  H43  1  0.28697373  0.85398802  0.18639573  1  0.059955  5e-06  0.098637  0.099438  -4.5e-05  1.029539  0.0
H  H44  1  0.47312073  0.29317624  0.68788525  1  0.086909  3.7e-05  0.103741  0.104908  1.3e-05  1.02062  0.0
H  H45  1  0.83869709  0.20675794  0.68818124  1  0.088411  3.7e-05  0.1036  0.105431  1.4e-05  1.019923  0.0
H  H46  1  0.52687760  0.70682270  0.31211586  1  0.086935  3.7e-05  0.103738  0.104912  1.3e-05  1.020584  0.0
H  H47  1  0.16130412  0.79324242  0.31181644  1  0.088427  3.7e-05  0.103618  0.105421  1.4e-05  1.019822  0.0
H  H48  1  0.47489779  0.39697093  0.56634493  1  0.079064  -2e-06  0.099751  0.097422  -5.5e-05  1.019176  0.0
H  H49  1  0.95833468  0.10302314  0.56656996  1  0.050377  -2e-06  0.099935  0.098275  -5.5e-05  1.017754  0.0
H  H50  1  0.52509664  0.60303014  0.43365747  1  0.0792  -2e-06  0.099781  0.09749  -5.5e-05  1.019099  0.0
H  H51  1  0.04166624  0.89697936  0.43342715  1  0.050454  -2e-06  0.099916  0.098242  -5.5e-05  1.017715  0.0
H  H52  1  0.48168840  0.56167353  0.57028239  1  0.069479  3e-06  0.099762  0.096069  -1.3e-05  1.042593  0.0
H  H53  1  0.94763941  0.93833389  0.57036771  1  0.069793  3e-06  0.099387  0.095453  -1.3e-05  1.042656  0.0
H  H54  1  0.51831288  0.43832613  0.42971901  1  0.069438  3e-06  0.099749  0.096049  -1.3e-05  1.042596  0.0
H  H55  1  0.05236152  0.06166860  0.42962940  1  0.070144  3e-06  0.09941  0.095457  -1.3e-05  1.042695  0.0
H  H56  1  0.39635189  0.69927619  0.73257625  1  0.06499  0.000514  0.11428  0.101459  0.000162  0.989316  0.0
H  H57  1  0.87117895  0.80069277  0.73268191  1  0.06285  0.000513  0.114035  0.100424  0.000162  0.990372  0.0
H  H58  1  0.60364760  0.30072417  0.26742315  1  0.064929  0.000514  0.114272  0.101429  0.000162  0.98934  0.0
H  H59  1  0.12882319  0.19930902  0.26731777  1  0.062832  0.000513  0.11404  0.10043  0.000162  0.990409  0.0
H  H60  1  0.55151717  0.65217626  0.72778546  1  0.116065  3.8e-05  0.119275  0.117883  -0.000107  1.007837  0.0
H  H61  1  0.72087469  0.84753054  0.72772901  1  0.093038  3.9e-05  0.119263  0.118001  -0.000107  1.007723  0.0
H  H62  1  0.44848220  0.34782482  0.27221551  1  0.116069  3.8e-05  0.11926  0.117813  -0.000107  1.007842  0.0
H  H63  1  0.27912526  0.15247196  0.27227081  1  0.093132  3.9e-05  0.11926  0.117992  -0.000107  1.007729  0.0
H  H64  1  0.25764484  0.78316180  0.66313835  1  0.07408  0.000366  0.098242  0.104367  0.000142  1.029521  0.0
H  H65  1  0.07974121  0.71682586  0.66300638  1  0.05737  0.000369  0.09846  0.104201  0.000143  1.029675  0.0
H  H66  1  0.74235531  0.21683715  0.33686183  1  0.074376  0.000366  0.098258  0.104368  0.000142  1.029486  0.0
H  H67  1  0.92025865  0.28317522  0.33699323  1  0.057376  0.000369  0.098483  0.104219  0.000143  1.029616  0.0
H  H68  1  0.16977609  0.88376224  0.56175145  1  0.081594  -1.8e-05  0.093855  0.090034  -2.1e-05  1.026199  0.0
H  H69  1  0.26877465  0.61609821  0.56161630  1  0.070526  -1.8e-05  0.0946  0.090948  -2.1e-05  1.026276  0.0
H  H70  1  0.83022425  0.11623599  0.43824795  1  0.08158  -1.8e-05  0.093873  0.090083  -2.1e-05  1.026192  0.0
H  H71  1  0.73122663  0.38390287  0.43838452  1  0.070534  -1.8e-05  0.094593  0.090936  -2.1e-05  1.026316  0.0
H  H72  1  0.30332156  0.90799091  0.42331175  1  0.044871  -1.8e-05  0.091181  0.086846  -2.4e-05  1.054251  0.0
H  H73  1  0.27346120  0.59183917  0.42319172  1  0.100645  -1.6e-05  0.091087  0.086367  -2.4e-05  1.055076  0.0
H  H74  1  0.69667907  0.09200662  0.57668764  1  0.044807  -1.8e-05  0.091197  0.086884  -2.4e-05  1.054209  0.0
H  H75  1  0.72654103  0.40816262  0.57680875  1  0.100643  -1.6e-05  0.091078  0.086361  -2.4e-05  1.055065  0.0
H  H76  1  0.53430270  0.83926934  0.38243795  1  0.122855  7.1e-05  0.110238  0.128908  -0.000131  1.009432  0.0
H  H77  1  0.08332161  0.66071906  0.38231586  1  0.127132  7.3e-05  0.109952  0.129293  -0.00013  1.009622  0.0
H  H78  1  0.46569811  0.16073102  0.61756187  1  0.122859  7.1e-05  0.110237  0.128928  -0.000131  1.009436  0.0
H  H79  1  0.91668044  0.33927989  0.61768418  1  0.127137  7.3e-05  0.109957  0.129309  -0.00013  1.009602  0.0
H  H80  1  0.83359371  0.59730810  0.53063817  1  0.085123  0.000725  0.110903  0.168734  0.000352  0.987069  0.0
H  H81  1  0.63588550  0.90256116  0.53074681  1  0.084916  0.000719  0.110689  0.168914  0.000354  0.986287  0.0
H  H82  1  0.16640987  0.40269298  0.46936037  1  0.085129  0.000725  0.110922  0.168754  0.000352  0.987127  0.0
H  H83  1  0.36411522  0.09743920  0.46925223  1  0.08493  0.000719  0.110689  0.168902  0.000354  0.986276  0.0
H  H84  1  0.73636436  0.54354273  0.60897857  1  0.056644  0.000136  0.101175  0.148078  2.7e-05  1.010022  0.0
H  H85  1  0.65499099  0.95625962  0.60908952  1  0.060965  0.000139  0.101082  0.148837  2.9e-05  1.009372  0.0
H  H86  1  0.26363893  0.45645764  0.39102054  1  0.056598  0.000136  0.101176  0.148064  2.7e-05  1.010048  0.0
H  H87  1  0.34501002  0.04374004  0.39090952  1  0.060962  0.000139  0.101062  0.148795  2.9e-05  1.009409  0.0
H  H88  1  0.76691446  0.64268694  0.63298847  1  0.090925  -0.00026  0.102011  0.158595  -0.000338  1.001525  0.0
H  H89  1  0.60040245  0.85714969  0.63307007  1  0.106017  -0.000259  0.102177  0.159368  -0.000337  1.001374  0.0
H  H90  1  0.23308797  0.35731414  0.36701122  1  0.090993  -0.00026  0.102004  0.158597  -0.000338  1.001505  0.0
H  H91  1  0.39959790  0.14284996  0.36692875  1  0.106002  -0.000259  0.10218  0.159388  -0.000336  1.001356  0.0
H  H92  1  0.75186653  0.52792362  0.24392712  1  0.145727  0.000202  0.099197  0.098494  0.000125  1.062127  0.0
H  H93  1  0.00430573  0.97194547  0.24397259  1  0.139623  0.000205  0.099005  0.098116  0.000125  1.062568  0.0
H  H94  1  0.24813142  0.47207461  0.75607378  1  0.145875  0.000202  0.099222  0.098539  0.000125  1.062062  0.0
H  H95  1  0.99569433  0.02805206  0.75602738  1  0.139642  0.000205  0.099002  0.098157  0.000125  1.062569  0.0
H  H96  1  0.85143032  0.37892078  0.16004058  1  0.033565  7.8e-05  0.094933  0.093141  2.7e-05  1.007315  0.0
H  H97  1  0.98859359  0.12094239  0.16016920  1  0.034652  7.9e-05  0.09437  0.09194  2.7e-05  1.007331  0.0
H  H98  1  0.14856879  0.62108030  0.83995803  1  0.033601  7.8e-05  0.094949  0.093143  2.7e-05  1.00733  0.0
H  H99  1  0.01140693  0.87905585  0.83983177  1  0.034705  7.9e-05  0.094368  0.091973  2.7e-05  1.007245  0.0
H  H100  1  0.07670344  0.29445887  0.13148001  1  0.08454  0.000451  0.098951  0.100157  0.00013  1.016249  0.0
H  H101  1  0.79177983  0.20561100  0.13179689  1  0.086464  0.000465  0.099276  0.100346  0.000129  1.016575  0.0
H  H102  1  0.92329566  0.70554079  0.86851917  1  0.084544  0.000451  0.098937  0.100146  0.00013  1.016298  0.0
H  H103  1  0.20822060  0.79438724  0.86820330  1  0.086465  0.000465  0.099283  0.100374  0.000129  1.016626  0.0
H  H104  1  0.09163464  0.49279365  0.28571615  1  0.106832  0.000582  0.109144  0.115877  0.000259  1.014883  0.0
H  H105  1  0.62281764  0.00705691  0.28559988  1  0.123202  0.000577  0.109182  0.115338  0.000259  1.015334  0.0
H  H106  1  0.90836179  0.50720671  0.71428454  1  0.10674  0.000582  0.109124  0.115822  0.000259  1.014925  0.0
H  H107  1  0.37718242  0.99294203  0.71439952  1  0.123224  0.000577  0.109199  0.115336  0.000259  1.015337  0.0
C  C108  1  0.43996169  0.42531649  0.96593671  1  0.976916  0.000822  0.233318  0.368855  -7.7e-05  3.94504  0.002
C  C109  1  0.59409252  0.07467110  0.96595739  1  0.993954  0.000858  0.23353  0.36981  -8.6e-05  3.945775  0.002
C  C110  1  0.56003673  0.57468387  0.03406462  1  0.976862  0.000822  0.233316  0.368859  -7.7e-05  3.944872  0.002
C  C111  1  0.40590886  0.92532927  0.03404187  1  0.995792  0.000855  0.233519  0.369732  -8.6e-05  3.945784  0.002
C  C112  1  0.62915736  0.32942005  0.94456426  1  0.315755  0.001887  0.075918  0.1341  0.001078  4.076124  0.001
C  C113  1  0.42613063  0.17043261  0.94462129  1  0.305995  0.001883  0.075661  0.132789  0.001086  4.077364  0.001
C  C114  1  0.37084077  0.67058102  0.05543706  1  0.315849  0.001887  0.075947  0.134081  0.001078  4.076139  0.001
C  C115  1  0.57386998  0.82956705  0.05537989  1  0.306046  0.001883  0.075679  0.132782  0.001086  4.077382  0.001
C  C116  1  0.73736353  0.25831080  0.94680029  1  -0.012697  0.00272  -0.102599  -0.183245  0.001439  4.007854  0.002
C  C117  1  0.31567737  0.24146488  0.94684789  1  -0.055842  0.002726  -0.10293  -0.182283  0.001426  4.009231  0.002
C  C118  1  0.26263406  0.74168956  0.05319925  1  -0.012717  0.00272  -0.102581  -0.183095  0.001439  4.007796  0.002
C  C119  1  0.68432353  0.75853548  0.05315272  1  -0.055875  0.002725  -0.102896  -0.182192  0.001426  4.009125  0.002
C  C120  1  0.84578361  0.25484780  0.88223766  1  -0.071351  -0.000708  -0.097813  -0.089693  -0.000916  4.026399  -0.001
C  C121  1  0.27168712  0.24478940  0.88231843  1  -0.003434  -0.000707  -0.097838  -0.090495  -0.000914  4.026389  -0.001
C  C122  1  0.15421671  0.74515257  0.11776353  1  -0.071284  -0.000708  -0.097891  -0.089941  -0.000916  4.026445  -0.001
C  C123  1  0.72831531  0.75521026  0.11768183  1  -0.003422  -0.000707  -0.097835  -0.0905  -0.000914  4.026292  -0.001
C  C124  1  0.84842575  0.32091520  0.81759075  1  -0.043085  0.00139  -0.090164  -0.07445  0.000693  3.984713  0.001
C  C125  1  0.33370544  0.17876574  0.81766024  1  -0.043294  0.001379  -0.089879  -0.074285  0.000689  3.985269  0.001
C  C126  1  0.15157438  0.67908446  0.18241179  1  -0.043102  0.001389  -0.090123  -0.074285  0.000693  3.98462  0.001
C  C127  1  0.66629184  0.82123747  0.18234109  1  -0.04325  0.001379  -0.089948  -0.074404  0.000689  3.985213  0.001
C  C128  1  0.74209627  0.39312778  0.81566651  1  -0.015933  0.00041  -0.092644  -0.160593  0.00013  3.981375  0.0
C  C129  1  0.44202213  0.10662888  0.81572370  1  -0.023078  0.000415  -0.093062  -0.160347  0.000131  3.981406  0.0
C  C130  1  0.25790100  0.60687259  0.18433596  1  -0.015928  0.00041  -0.092718  -0.160731  0.00013  3.981487  0.0
C  C131  1  0.55797716  0.89337220  0.18427648  1  -0.023117  0.000415  -0.093038  -0.160278  0.000131  3.981382  0.0
C  C132  1  0.63354995  0.39565886  0.87998313  1  0.303504  0.003721  0.090651  0.090173  0.001806  4.029486  0.003
C  C133  1  0.48627928  0.10415999  0.88005392  1  0.348468  0.003654  0.091338  0.0917  0.001802  4.029601  0.003
C  C134  1  0.36644943  0.60434080  0.12001841  1  0.303425  0.003721  0.090676  0.090178  0.001807  4.029622  0.003
C  C135  1  0.51372153  0.89584038  0.11994591  1  0.348065  0.003654  0.091381  0.091691  0.001802  4.029586  0.003
C  C136  1  0.30444142  0.47118260  0.99877719  1  -0.031067  0.000557  -0.228324  -0.472943  -1.5e-05  3.929406  0.001
C  C137  1  0.69676729  0.02881672  0.99885665  1  -0.038365  0.000565  -0.22873  -0.47395  -1.3e-05  3.929125  0.001
C  C138  1  0.69555948  0.52881777  0.00122342  1  -0.03123  0.000557  -0.228327  -0.472941  -1.5e-05  3.929319  0.001
C  C139  1  0.30323553  0.97118151  0.00114203  1  -0.038147  0.000565  -0.228756  -0.473986  -1.3e-05  3.929166  0.001
C  C140  1  0.47568570  0.53124753  0.84142246  1  0.299911  0.00117  -0.044817  -0.096908  0.000695  3.887852  0.001
C  C141  1  0.68274299  0.96864967  0.84147186  1  0.275617  0.001172  -0.0449  -0.096415  0.000693  3.888542  0.001
C  C142  1  0.52431462  0.46875142  0.15857930  1  0.299876  0.00117  -0.044834  -0.096916  0.000695  3.887888  0.001
C  C143  1  0.31725918  0.03135141  0.15852546  1  0.275255  0.001172  -0.044971  -0.096605  0.000693  3.888734  0.001
C  C144  1  0.47716614  0.49315148  0.76394428  1  -0.092746  0.000288  -0.016583  0.029649  0.000147  3.945009  0.0
C  C145  1  0.75869165  0.00675106  0.76408176  1  -0.082669  0.000286  -0.016914  0.027965  0.000147  3.946669  0.0
C  C146  1  0.52283400  0.50684747  0.23605590  1  -0.09265  0.000288  -0.016599  0.029591  0.000147  3.945011  0.0
C  C147  1  0.24130994  0.99325144  0.23591556  1  -0.082519  0.000286  -0.016844  0.028043  0.000147  3.946686  0.0
C  C148  1  0.47547692  0.40014261  0.76021191  1  -0.04297  0.000137  -0.096389  -0.144537  5.7e-05  3.999746  0.0
C  C149  1  0.76404856  0.09976604  0.76039710  1  -0.043193  0.000137  -0.095553  -0.142588  5.7e-05  3.998863  0.0
C  C150  1  0.52452274  0.59985634  0.23978963  1  -0.043038  0.000137  -0.096376  -0.144591  5.7e-05  3.999864  0.0
C  C151  1  0.23595217  0.90023717  0.23960080  1  -0.043213  0.000137  -0.09557  -0.142616  5.7e-05  3.998929  0.0
C  C152  1  0.47596431  0.36515977  0.68936451  1  -0.018199  0.000136  -0.083066  -0.057399  7.3e-05  3.995566  0.0
C  C153  1  0.83438974  0.13477474  0.68960072  1  -0.033449  0.000138  -0.082784  -0.057892  7.3e-05  3.99464  0.0
C  C154  1  0.52403440  0.63483989  0.31063682  1  -0.018195  0.000136  -0.083053  -0.057268  7.3e-05  3.995409  0.0
C  C155  1  0.16561280  0.86522563  0.31039739  1  -0.03333  0.000138  -0.082819  -0.057868  7.3e-05  3.994595  0.0
C  C156  1  0.47678599  0.42382463  0.62123347  1  -0.051864  0.000107  -0.086133  -0.066257  3.4e-05  3.998912  0.0
C  C157  1  0.90161839  0.07616321  0.62143143  1  -0.003236  0.000106  -0.087241  -0.068041  3.3e-05  3.999177  0.0
C  C158  1  0.52321025  0.57617644  0.37876800  1  -0.05219  0.000107  -0.086201  -0.066468  3.4e-05  3.998886  0.0
C  C159  1  0.09838244  0.92383787  0.37856547  1  -0.003202  0.000106  -0.087217  -0.068004  3.3e-05  3.999036  0.0
C  C160  1  0.47934247  0.51632439  0.62400462  1  -0.048584  2.6e-05  -0.098093  -0.151599  -6e-06  4.015316  0.0
C  C161  1  0.89629311  0.98366372  0.62412360  1  -0.04004  2.6e-05  -0.097194  -0.150536  -6e-06  4.015106  0.0
C  C162  1  0.52065567  0.48367527  0.37599728  1  -0.04842  2.6e-05  -0.098057  -0.151534  -6e-06  4.015194  0.0
C  C163  1  0.10370839  0.01633878  0.37587294  1  -0.040448  2.6e-05  -0.097188  -0.15051  -6e-06  4.01489  0.0
C  C164  1  0.48061418  0.55178820  0.69453159  1  -0.01202  0.000361  -0.016622  0.032089  0.000184  3.950004  0.0
C  C165  1  0.82466581  0.94814089  0.69462944  1  -0.028527  0.000364  -0.016537  0.032313  0.000185  3.948704  0.0
C  C166  1  0.51938519  0.44821146  0.30546994  1  -0.011764  0.000361  -0.016597  0.03219  0.000184  3.949855  0.0
C  C167  1  0.17533636  0.05186161  0.30536732  1  -0.028656  0.000364  -0.016562  0.032304  0.000185  3.948672  0.0
C  C168  1  0.48656516  0.65153586  0.69704590  1  0.302634  0.000774  -0.047795  -0.100347  0.000443  3.892275  0.001
C  C169  1  0.81647257  0.84830616  0.69707388  1  0.322955  0.000768  -0.047151  -0.098551  0.00044  3.891876  0.001
C  C170  1  0.51343574  0.34846451  0.30295471  1  0.302385  0.000774  -0.047795  -0.100308  0.000443  3.892396  0.001
C  C171  1  0.18352910  0.15169635  0.30292423  1  0.322766  0.000768  -0.047088  -0.098432  0.00044  3.892088  0.001
C  C172  1  0.44542566  0.75349985  0.57746401  1  0.286151  0.002633  0.087014  0.075435  0.001331  4.044004  0.002
C  C173  1  0.97742950  0.74647507  0.57740495  1  0.309907  0.002625  0.088282  0.076905  0.001332  4.042048  0.002
C  C174  1  0.55457582  0.24650052  0.42253603  1  0.286109  0.002632  0.086993  0.075455  0.001331  4.044095  0.002
C  C175  1  0.02256981  0.25352388  0.42259344  1  0.309882  0.002625  0.088189  0.076801  0.001332  4.041985  0.002
C  C176  1  0.31747456  0.79455183  0.60238971  1  7.1e-05  0.000556  -0.099917  -0.16972  0.000289  4.031538  0.0
C  C177  1  0.08054528  0.70542057  0.60226430  1  -0.038146  0.000562  -0.101002  -0.169231  0.000291  4.030006  0.0
C  C178  1  0.68252188  0.20544995  0.39761040  1  -0.000648  0.000556  -0.099914  -0.169638  0.000289  4.031422  0.0
C  C179  1  0.91945467  0.29458051  0.39773610  1  -0.038146  0.000562  -0.100983  -0.169168  0.000291  4.029978  0.0
C  C180  1  0.26932765  0.85103775  0.54524328  1  -0.063064  0.000109  -0.095507  -0.071611  2.1e-05  4.020977  0.0
C  C181  1  0.18573706  0.64886699  0.54511190  1  -0.006894  0.000105  -0.096839  -0.074337  2e-05  4.020491  0.0
C  C182  1  0.73067335  0.14896049  0.45475633  1  -0.062615  0.000108  -0.095564  -0.071761  2e-05  4.020927  0.0
C  C183  1  0.81426298  0.35113409  0.45488928  1  -0.006899  0.000105  -0.096891  -0.074412  2e-05  4.020593  0.0
C  C184  1  0.34600375  0.86563303  0.46650759  1  -0.011988  -0.000279  -0.101954  -0.095513  -0.000324  4.026171  0.0
C  C185  1  0.18766563  0.63425412  0.46639567  1  -0.081476  -0.000274  -0.100155  -0.092544  -0.000317  4.027287  0.0
C  C186  1  0.65399849  0.13436521  0.53349166  1  -0.011869  -0.000279  -0.101904  -0.095465  -0.000324  4.026068  0.0
C  C187  1  0.81233452  0.36574624  0.53360394  1  -0.081538  -0.000274  -0.100131  -0.092487  -0.000317  4.027318  0.0
C  C188  1  0.47392153  0.82646244  0.44239653  1  -0.02189  0.000816  -0.086593  -0.144117  0.000184  3.950109  0.001
C  C189  1  0.08382741  0.67350898  0.44229061  1  -0.047711  0.000824  -0.087445  -0.146075  0.000183  3.951396  0.001
C  C190  1  0.52607966  0.17353722  0.55760408  1  -0.021954  0.000816  -0.086624  -0.144181  0.000184  3.95021  0.001
C  C191  1  0.91617359  0.32649068  0.55770843  1  -0.047684  0.000824  -0.087425  -0.146066  0.000183  3.951551  0.001
C  C192  1  0.52360414  0.76949781  0.49910962  1  0.349867  0.002285  0.086642  0.146161  0.001256  4.066214  0.002
C  C193  1  0.97750452  0.73050158  0.49903080  1  0.394244  0.002238  0.087428  0.146951  0.001261  4.064988  0.002
C  C194  1  0.47639867  0.23050399  0.50089028  1  0.349817  0.002284  0.086657  0.146156  0.001256  4.066369  0.002
C  C195  1  0.02249343  0.26949807  0.50096952  1  0.394275  0.002238  0.087468  0.146986  0.00126  4.065013  0.002
C  C196  1  0.64277947  0.67479908  0.56402433  1  0.987478  0.000202  0.232802  0.364478  -0.001125  3.946237  0.0
C  C197  1  0.79345013  0.82503737  0.56403617  1  0.956995  0.000278  0.232957  0.366338  -0.001092  3.941273  0.0
C  C198  1  0.35722163  0.32520200  0.43597493  1  0.987428  0.000202  0.232837  0.36457  -0.001125  3.946186  0.0
C  C199  1  0.20655145  0.17496228  0.43596230  1  0.957017  0.000278  0.232969  0.366495  -0.001093  3.941372  0.0
C  C200  1  0.75109030  0.61160465  0.58503463  1  -0.045666  0.001406  -0.229813  -0.469449  0.000601  3.912189  0.001
C  C201  1  0.66412789  0.88821574  0.58510745  1  -0.061484  0.001416  -0.229546  -0.471996  0.000605  3.910534  0.001
C  C202  1  0.24891176  0.38839715  0.41496427  1  -0.045805  0.001406  -0.229821  -0.46945  0.000601  3.912277  0.001
C  C203  1  0.33587226  0.11178462  0.41489216  1  -0.061482  0.001416  -0.229535  -0.472003  0.000606  3.910544  0.001
C  C204  1  0.91597295  0.51913556  0.26956390  1  -0.041122  0.002311  -0.012417  -0.017687  0.001182  3.964042  0.001
C  C205  1  0.81456664  0.98078989  0.26960242  1  0.005653  0.002285  -0.01353  -0.021099  0.001186  3.963555  0.001
C  C206  1  0.08402224  0.48086338  0.73043771  1  -0.041051  0.002311  -0.012431  -0.017851  0.001182  3.964149  0.001
C  C207  1  0.18543341  0.01920763  0.73039754  1  0.005768  0.002285  -0.013581  -0.021273  0.001185  3.963679  0.001
C  C208  1  0.84823819  0.48724493  0.23394071  1  -0.104401  0.000279  -0.078252  -0.081432  -0.000152  3.942986  0.0
C  C209  1  0.91789645  0.01265710  0.23402091  1  -0.125579  0.000298  -0.078416  -0.08058  -0.000144  3.943961  0.0
C  C210  1  0.15175853  0.51275330  0.76606054  1  -0.104534  0.000279  -0.078292  -0.081493  -0.000152  3.942885  0.0
C  C211  1  0.08210369  0.98734043  0.76597985  1  -0.12565  0.000298  -0.078396  -0.08059  -0.000144  3.943965  0.0
C  C212  1  0.90472191  0.40475768  0.18655164  1  0.003906  0.000483  -0.101048  -0.102717  0.000131  4.046536  0.0
C  C213  1  0.90877405  0.09514543  0.18668570  1  0.011323  0.00048  -0.098966  -0.099873  0.00013  4.04589  0.0
C  C214  1  0.09527539  0.59524197  0.81344847  1  0.00387  0.000483  -0.100979  -0.102602  0.000131  4.046412  0.0
C  C215  1  0.09122609  0.90485210  0.81331506  1  0.011206  0.00048  -0.098962  -0.099895  0.00013  4.045735  0.0
C  C216  1  0.02996774  0.35647535  0.17133675  1  -0.113404  0.000171  -0.090436  -0.105477  -0.00017  3.99389  0.0
C  C217  1  0.79868212  0.14352751  0.17154773  1  -0.125545  0.000176  -0.091958  -0.1069  -0.000164  3.998735  0.0
C  C218  1  0.97002964  0.64352430  0.82866415  1  -0.113386  0.000172  -0.090458  -0.105507  -0.000169  3.993998  0.0
C  C219  1  0.20131803  0.85647001  0.82845303  1  -0.125541  0.000176  -0.091985  -0.106938  -0.000164  3.998728  0.0
C  C220  1  0.09844126  0.38868247  0.20636821  1  0.017837  0.00341  -0.026509  -0.053126  0.001687  4.011251  0.002
C  C221  1  0.69522481  0.11130057  0.20645229  1  -0.035044  0.003423  -0.027636  -0.055833  0.001681  4.014832  0.002
C  C222  1  0.90155487  0.61132073  0.79363426  1  0.017816  0.003409  -0.026537  -0.053236  0.001687  4.011296  0.002
C  C223  1  0.30477525  0.88869695  0.79354768  1  -0.034844  0.003422  -0.027581  -0.055779  0.001681  4.014897  0.002
C  C224  1  0.03979606  0.46835949  0.25722352  1  -0.043715  0.002269  -0.07202  -0.095966  0.001196  3.920127  0.002
C  C225  1  0.70308836  0.03156082  0.25721888  1  -0.009355  0.00224  -0.070563  -0.092552  0.001193  3.915958  0.002
C  C226  1  0.96019971  0.53163945  0.74277752  1  -0.043633  0.002269  -0.071976  -0.09576  0.001196  3.919969  0.002
C  C227  1  0.29691141  0.96843742  0.74278109  1  -0.009567  0.00224  -0.070586  -0.092509  0.001193  3.916011  0.002
C  C228  1  0.23490484  0.34428963  0.18510443  1  1.506219  0.003777  0.19703  0.54397  0.003339  4.251028  0.002
C  C229  1  0.58002685  0.15580473  0.18516340  1  1.506253  0.003783  0.198357  0.546548  0.003343  4.24729  0.002
C  C230  1  0.76509341  0.65571074  0.81489533  1  1.50617  0.003778  0.19709  0.544135  0.003339  4.251066  0.002
C  C231  1  0.41997215  0.84419563  0.81483735  1  1.506234  0.003783  0.198353  0.546525  0.003343  4.247196  0.002
C  C232  1  0.85903825  0.60936928  0.31743568  1  1.558307  -0.001676  0.194337  0.54309  -0.003026  4.224709  -0.003
C  C233  1  0.82363432  0.89055878  0.31748378  1  1.553875  -0.001635  0.195097  0.54528  -0.00301  4.223485  -0.003
C  C234  1  0.14096000  0.39062966  0.68256465  1  1.558138  -0.001677  0.19433  0.543207  -0.003026  4.224435  -0.003
C  C235  1  0.17636344  0.10944016  0.68251790  1  1.553983  -0.001636  0.195037  0.545321  -0.00301  4.223483  -0.003
N  N236  1  0.50686428  0.34966402  0.99722821  1  -1.192641  0.06816  -0.363142  -0.434679  0.035615  3.511003  0.046
N  N237  1  0.49585712  0.15030494  0.99726819  1  -1.204194  0.068208  -0.361885  -0.434251  0.035594  3.510942  0.046
N  N238  1  0.49313405  0.65033634  0.00277233  1  -1.192641  0.068161  -0.363141  -0.434658  0.035614  3.51094  0.046
N  N239  1  0.50414444  0.84969543  0.00273264  1  -1.206028  0.068211  -0.361897  -0.434195  0.035594  3.510943  0.046
N  N240  1  0.51347200  0.45581082  0.89606455  1  -1.224189  0.003608  -0.242614  -0.073286  0.001474  3.703403  0.003
N  N241  1  0.59035551  0.04408752  0.89612177  1  -1.226886  0.003604  -0.243798  -0.07427  0.001471  3.703842  0.003
N  N242  1  0.48652490  0.54418884  0.10393770  1  -1.224107  0.003606  -0.242613  -0.073235  0.001474  3.703468  0.003
N  N243  1  0.40964579  0.95591285  0.10387670  1  -1.226528  0.003603  -0.243803  -0.074175  0.00147  3.703914  0.003
N  N244  1  0.52370264  0.69370816  0.61689506  1  -1.197453  0.005241  -0.246235  -0.076385  0.002471  3.702182  0.004
N  N245  1  0.85968803  0.80613218  0.61690141  1  -1.21337  0.005261  -0.246534  -0.078163  0.002479  3.70205  0.004
N  N246  1  0.47629846  0.30629149  0.38310477  1  -1.197479  0.005241  -0.246226  -0.076408  0.002471  3.702228  0.004
N  N247  1  0.14031413  0.19386747  0.38309649  1  -1.213456  0.005261  -0.246525  -0.078281  0.002479  3.702223  0.004
N  N248  1  0.64565738  0.72048125  0.49331188  1  -1.219359  0.059827  -0.357396  -0.424307  0.032666  3.52504  0.042
N  N249  1  0.86121854  0.77945413  0.49327429  1  -1.197501  0.059797  -0.358816  -0.42588  0.032673  3.525152  0.042
N  N250  1  0.35434629  0.27951984  0.50668744  1  -1.219081  0.059821  -0.357406  -0.424362  0.032665  3.525021  0.042
N  N251  1  0.13878257  0.22054482  0.50672318  1  -1.197342  0.059792  -0.358878  -0.426034  0.032674  3.525366  0.042
O  O252  1  0.29631492  0.37422146  0.21503781  1  -1.174301  0.021688  -0.308108  -0.546605  0.010582  2.193591  0.017
O  O253  1  0.48872117  0.12584966  0.21496609  1  -1.183319  0.021778  -0.309489  -0.548382  0.010615  2.191093  0.017
O  O254  1  0.70368219  0.62578175  0.78496195  1  -1.174357  0.021688  -0.308118  -0.546672  0.010582  2.193646  0.017
O  O255  1  0.51127858  0.87415071  0.78503566  1  -1.183302  0.02178  -0.309443  -0.548313  0.010616  2.191015  0.017
O  O256  1  0.28472959  0.27672419  0.13056415  1  -1.138275  0.104629  -0.33531  -0.573809  0.053371  2.416542  0.079
O  O257  1  0.58474518  0.22341293  0.13069919  1  -1.136707  0.104269  -0.334643  -0.573376  0.053269  2.416236  0.079
O  O258  1  0.71526912  0.72327546  0.86943718  1  -1.138256  0.104635  -0.335324  -0.57385  0.053374  2.416509  0.079
O  O259  1  0.41525554  0.77658601  0.86930042  1  -1.136723  0.104268  -0.334697  -0.573431  0.053269  2.416192  0.079
O  O260  1  0.91489812  0.62423692  0.36357659  1  -1.148512  0.092035  -0.325896  -0.552348  0.047749  2.298135  0.073
O  O261  1  0.72166601  0.87569400  0.36353998  1  -1.148589  0.091962  -0.32654  -0.553449  0.047727  2.29943  0.073
O  O262  1  0.08509946  0.37576202  0.63642352  1  -1.148488  0.092029  -0.325893  -0.552369  0.047747  2.298041  0.073
O  O263  1  0.27833261  0.12430281  0.63646171  1  -1.1487  0.09196  -0.326452  -0.553381  0.047726  2.299403  0.073
O  O264  1  0.76184346  0.66990151  0.31144933  1  -1.153988  0.052008  -0.301281  -0.532885  0.025998  2.189469  0.045
O  O265  1  0.92680867  0.83008275  0.31158670  1  -1.156445  0.052021  -0.301371  -0.533403  0.02603  2.187979  0.045
O  O266  1  0.23815487  0.33009743  0.68855178  1  -1.153813  0.052007  -0.301301  -0.53296  0.025997  2.18934  0.045
O  O267  1  0.07319033  0.16991619  0.68841463  1  -1.156466  0.052019  -0.301364  -0.533398  0.026028  2.187967  0.045
