# generated using pymatgen
data_ErH6C9NO7
_symmetry_space_group_name_H-M   'P 1'
_cell_length_a   7.52740678
_cell_length_b   8.33569770
_cell_length_c   17.02975926
_cell_angle_alpha   90.00001256
_cell_angle_beta   90.00012245
_cell_angle_gamma   104.40618655
_symmetry_Int_Tables_number   1
_chemical_formula_structural   ErH6C9NO7
_chemical_formula_sum   'Er4 H24 C36 N4 O28'
_cell_volume   1034.95322515
_cell_formula_units_Z   4
loop_
 _symmetry_equiv_pos_site_id
 _symmetry_equiv_pos_as_xyz
  1  'x, y, z'
loop_
 _atom_site_type_symbol
 _atom_site_label
 _atom_site_symmetry_multiplicity
 _atom_site_fract_x
 _atom_site_fract_y
 _atom_site_fract_z
 _atom_site_occupancy
 _atom_site_hle17_bader_spin_density
 _atom_site_hle17_ddec_charge
 _atom_site_hle17_ddec_spin_density
 _atom_site_hle17_ddec_sum_bond_order
 _atom_site_hle17_magmom
 _atom_site_hse06_10hf_bader_spin_density
 _atom_site_hse06_10hf_ddec_charge
 _atom_site_hse06_10hf_ddec_spin_density
 _atom_site_hse06_10hf_ddec_sum_bond_order
 _atom_site_hse06_10hf_magmom
 _atom_site_hse06_bader_spin_density
 _atom_site_hse06_ddec_charge
 _atom_site_hse06_ddec_spin_density
 _atom_site_hse06_ddec_sum_bond_order
 _atom_site_hse06_magmom
 _atom_site_pbe_bader_spin_density
 _atom_site_pbe_cm5_charge
 _atom_site_pbe_ddec_charge
 _atom_site_pbe_ddec_spin_density
 _atom_site_pbe_ddec_sum_bond_order
 _atom_site_pbe_magmom
Er  Er0  1  0.22035283  0.93160306  0.28340346  1  0  2.281806  0  1.638134  0  0  2.13756  0  2.111388  0  0  2.27118  0  1.914175  0  0  1.529786  2.100805  0  2.142488  0
Er  Er1  1  0.77965114  0.56839563  0.78340373  1  0  2.281816  0  1.638025  0  0  2.137572  0  2.111274  0  0  2.271205  0  1.914055  0  0  1.529828  2.100842  0  2.142403  0
Er  Er2  1  0.77964677  0.06839498  0.71659712  1  0  2.281842  0  1.638141  0  0  2.137634  0  2.111347  0  0  2.271224  0  1.914186  0  0  1.529828  2.100884  0  2.142427  0
Er  Er3  1  0.22034945  0.43160118  0.21659685  1  0  2.281841  0  1.637979  0  0  2.137621  0  2.111181  0  0  2.271225  0  1.914009  0  0  1.52982  2.100884  0  2.142281  0
H  H4  1  0.43134411  0.29908237  0.97571983  1  0  0.122192  0  0.914944  0  0  0.132575  0  0.973809  0  0  0.136928  0  0.9689  0  0  0.121641  0.129549  0  0.976885  0
H  H5  1  0.56865746  0.20091917  0.47571987  1  0  0.122216  0  0.914937  0  0  0.13259  0  0.973805  0  0  0.136946  0  0.968893  0  0  0.121635  0.129557  0  0.976872  0
H  H6  1  0.56865651  0.70092434  0.02428193  1  0  0.122225  0  0.915014  0  0  0.132595  0  0.973877  0  0  0.136948  0  0.968969  0  0  0.121643  0.129572  0  0.976949  0
H  H7  1  0.43134215  0.79908383  0.52427719  1  0  0.122249  0  0.914894  0  0  0.132617  0  0.973763  0  0  0.136975  0  0.968848  0  0  0.121659  0.12958  0  0.976828  0
H  H8  1  0.31415480  0.89061494  0.81291128  1  0  0.099777  0  0.926059  0  0  0.10669  0  0.991025  0  0  0.110092  0  0.987505  0  0  0.129805  0.104232  0  0.99336  0
H  H9  1  0.68585263  0.60938134  0.31291142  1  0  0.099844  0  0.926114  0  0  0.106729  0  0.991129  0  0  0.110128  0  0.987613  0  0  0.129855  0.10427  0  0.993462  0
H  H10  1  0.68584811  0.10938064  0.18709047  1  0  0.099805  0  0.926102  0  0  0.106697  0  0.991104  0  0  0.110096  0  0.98759  0  0  0.12984  0.104245  0  0.99344  0
H  H11  1  0.31414964  0.39062166  0.68708916  1  0  0.099892  0  0.926094  0  0  0.106793  0  0.991053  0  0  0.110173  0  0.987561  0  0  0.12986  0.104335  0  0.993392  0
H  H12  1  0.12353895  0.80907739  0.04164955  1  0  0.092782  0  0.921488  0  0  0.103623  0  0.981648  0  0  0.106467  0  0.978627  0  0  0.125942  0.101629  0  0.983528  0
H  H13  1  0.87645713  0.69092585  0.54165110  1  0  0.092769  0  0.921499  0  0  0.10361  0  0.981658  0  0  0.106444  0  0.978657  0  0  0.125945  0.101617  0  0.983527  0
H  H14  1  0.87645866  0.19092312  0.95835044  1  0  0.092821  0  0.92143  0  0  0.103658  0  0.981591  0  0  0.106497  0  0.97858  0  0  0.125948  0.101669  0  0.983465  0
H  H15  1  0.12353784  0.30907960  0.45835183  1  0  0.09281  0  0.921504  0  0  0.103618  0  0.9817  0  0  0.106457  0  0.978685  0  0  0.125927  0.101619  0  0.98357  0
H  H16  1  0.73642195  0.47733556  0.16977847  1  0  0.115656  0  0.909984  0  0  0.125438  0  0.972001  0  0  0.128139  0  0.969872  0  0  0.122448  0.123865  0  0.973011  0
H  H17  1  0.26358036  0.02266426  0.66978470  1  0  0.115649  0  0.909955  0  0  0.125402  0  0.972016  0  0  0.128099  0  0.969883  0  0  0.122432  0.123822  0  0.973022  0
H  H18  1  0.26358100  0.52266992  0.83022035  1  0  0.115776  0  0.909921  0  0  0.125564  0  0.971905  0  0  0.128262  0  0.969774  0  0  0.122516  0.123995  0  0.972917  0
H  H19  1  0.73641559  0.97733501  0.33021588  1  0  0.115744  0  0.909959  0  0  0.125502  0  0.971986  0  0  0.128202  0  0.969853  0  0  0.122462  0.123922  0  0.972997  0
H  H20  1  0.82779110  0.60237576  0.08724946  1  0  0.087523  0  0.908967  0  0  0.101001  0  0.967543  0  0  0.102646  0  0.965405  0  0  0.111467  0.100103  0  0.968578  0
H  H21  1  0.17221886  0.89763379  0.58725330  1  0  0.087603  0  0.908872  0  0  0.101085  0  0.967443  0  0  0.102726  0  0.965305  0  0  0.111511  0.100182  0  0.968474  0
H  H22  1  0.17221383  0.39762725  0.91274818  1  0  0.087586  0  0.908982  0  0  0.101062  0  0.967558  0  0  0.102703  0  0.965423  0  0  0.111497  0.100169  0  0.968594  0
H  H23  1  0.82778408  0.10237169  0.41274670  1  0  0.087623  0  0.908918  0  0  0.101104  0  0.967476  0  0  0.102744  0  0.965341  0  0  0.111519  0.100203  0  0.968507  0
H  H24  1  0.90896568  0.33187153  0.10189209  1  0  0.34141  0  0.968619  0  0  0.30462  0  1.057223  0  0  0.316678  0  1.046371  0  0  0.289006  0.296102  0  1.065641  0
H  H25  1  0.09103562  0.16813065  0.60189288  1  0  0.34135  0  0.968646  0  0  0.30457  0  1.057226  0  0  0.316629  0  1.046377  0  0  0.288973  0.296022  0  1.065709  0
H  H26  1  0.09103491  0.66812528  0.89810908  1  0  0.341393  0  0.968565  0  0  0.304572  0  1.057249  0  0  0.316629  0  1.046405  0  0  0.289024  0.296071  0  1.065615  0
H  H27  1  0.90895733  0.83186737  0.39810828  1  0  0.341382  0  0.968637  0  0  0.304635  0  1.057157  0  0  0.316658  0  1.046404  0  0  0.289006  0.296092  0  1.065623  0
C  C28  1  0.26014287  0.11683207  0.10237797  1  0  0.733242  0  3.863301  0  0  0.685103  0  4.156132  0  0  0.722654  0  4.148234  0  0  0.238407  0.660254  0  4.163601  0
C  C29  1  0.73985674  0.38316392  0.60237765  1  0  0.73356  0  3.862924  0  0  0.685362  0  4.155858  0  0  0.722915  0  4.147949  0  0  0.238489  0.660505  0  4.163316  0
C  C30  1  0.73986305  0.88316971  0.89762437  1  0  0.73301  0  3.86335  0  0  0.684993  0  4.155964  0  0  0.72257  0  4.148018  0  0  0.238292  0.660136  0  4.163436  0
C  C31  1  0.26013920  0.61683535  0.39762351  1  0  0.733423  0  3.863256  0  0  0.685247  0  4.156159  0  0  0.722797  0  4.148259  0  0  0.238396  0.660405  0  4.163577  0
C  C32  1  0.27576538  0.06156613  0.01936565  1  0  -0.121416  0  3.74788  0  0  -0.097353  0  3.992848  0  0  -0.11021  0  4.015133  0  0  -0.010452  -0.088991  0  3.976809  0
C  C33  1  0.72423248  0.43842973  0.51936532  1  0  -0.1216  0  3.748014  0  0  -0.097519  0  3.992994  0  0  -0.110376  0  4.015275  0  0  -0.010523  -0.089148  0  3.976931  0
C  C34  1  0.72423223  0.93843438  0.98063493  1  0  -0.121299  0  3.747926  0  0  -0.097277  0  3.992861  0  0  -0.11014  0  4.015138  0  0  -0.010449  -0.088913  0  3.976835  0
C  C35  1  0.27575948  0.56156953  0.48063467  1  0  -0.121439  0  3.74777  0  0  -0.097358  0  3.992739  0  0  -0.110213  0  4.015021  0  0  -0.010422  -0.089  0  3.976673  0
C  C36  1  0.36933390  0.16954616  0.96182001  1  0  -0.014292  0  3.654008  0  0  -0.05798  0  3.905615  0  0  -0.050435  0  3.919511  0  0  -0.049657  -0.062134  0  3.894951  0
C  C37  1  0.63066559  0.33045287  0.46182247  1  0  -0.014316  0  3.654126  0  0  -0.058016  0  3.905693  0  0  -0.050465  0  3.919588  0  0  -0.049699  -0.062161  0  3.894977  0
C  C38  1  0.63066304  0.83045188  0.03817881  1  0  -0.014433  0  3.654159  0  0  -0.058118  0  3.90574  0  0  -0.050569  0  3.919639  0  0  -0.049735  -0.06229  0  3.895065  0
C  C39  1  0.36933735  0.66955261  0.53817870  1  0  -0.014374  0  3.653922  0  0  -0.058033  0  3.905545  0  0  -0.050485  0  3.91944  0  0  -0.049711  -0.062175  0  3.894835  0
C  C40  1  0.38670493  0.10864202  0.88662576  1  0  -0.099915  0  3.717211  0  0  -0.07248  0  3.953424  0  0  -0.084024  0  3.972111  0  0  -0.001778  -0.064979  0  3.939687  0
C  C41  1  0.61329152  0.39135688  0.38662528  1  0  -0.100096  0  3.717074  0  0  -0.072518  0  3.953206  0  0  -0.084077  0  3.971916  0  0  -0.001739  -0.064983  0  3.939432  0
C  C42  1  0.61328901  0.89135476  0.11337599  1  0  -0.100079  0  3.717003  0  0  -0.072521  0  3.953197  0  0  -0.08408  0  3.971903  0  0  -0.001698  -0.06496  0  3.939391  0
C  C43  1  0.38671341  0.60864613  0.61337295  1  0  -0.099838  0  3.717014  0  0  -0.072473  0  3.953293  0  0  -0.084028  0  3.971996  0  0  -0.001728  -0.064953  0  3.93952  0
C  C44  1  0.30371416  0.94244576  0.87099079  1  0  0.162173  0  3.598214  0  0  0.114556  0  3.853783  0  0  0.125767  0  3.864971  0  0  0.074173  0.107729  0  3.84521  0
C  C45  1  0.69628729  0.55756172  0.37098976  1  0  0.162191  0  3.598008  0  0  0.11455  0  3.85369  0  0  0.125767  0  3.864883  0  0  0.074086  0.107715  0  3.845094  0
C  C46  1  0.69628878  0.05755972  0.12901156  1  0  0.162327  0  3.597867  0  0  0.114658  0  3.853508  0  0  0.125874  0  3.864699  0  0  0.074136  0.107811  0  3.844938  0
C  C47  1  0.30371333  0.44244499  0.62901024  1  0  0.16198  0  3.598176  0  0  0.114409  0  3.853744  0  0  0.125641  0  3.864945  0  0  0.074069  0.107577  0  3.845156  0
C  C48  1  0.19778523  0.89703705  0.99842413  1  0  0.133029  0  3.661513  0  0  0.086209  0  3.920623  0  0  0.095718  0  3.935808  0  0  0.062042  0.080455  0  3.90955  0
C  C49  1  0.80221121  0.60296443  0.49842496  1  0  0.133111  0  3.661463  0  0  0.086337  0  3.920619  0  0  0.095846  0  3.935797  0  0  0.062087  0.080578  0  3.909521  0
C  C50  1  0.80221470  0.10296224  0.00157704  1  0  0.132981  0  3.661481  0  0  0.08616  0  3.920612  0  0  0.095667  0  3.935798  0  0  0.062039  0.080397  0  3.909556  0
C  C51  1  0.19777774  0.39703357  0.50157679  1  0  0.133004  0  3.661482  0  0  0.086196  0  3.920617  0  0  0.095704  0  3.935804  0  0  0.062055  0.080448  0  3.909507  0
C  C52  1  0.95975796  0.68307693  0.19688643  1  0  0.683564  0  3.863088  0  0  0.637067  0  4.167541  0  0  0.669502  0  4.168312  0  0  0.206895  0.614361  0  4.173967  0
C  C53  1  0.04024723  0.81692287  0.69688543  1  0  0.683532  0  3.863157  0  0  0.637149  0  4.167412  0  0  0.66958  0  4.168184  0  0  0.206917  0.61445  0  4.173829  0
C  C54  1  0.04025261  0.31692239  0.80311298  1  0  0.683534  0  3.862976  0  0  0.637006  0  4.167467  0  0  0.669442  0  4.168232  0  0  0.206915  0.614303  0  4.173902  0
C  C55  1  0.95976301  0.18307521  0.30311221  1  0  0.683807  0  3.863082  0  0  0.637193  0  4.167687  0  0  0.669624  0  4.168461  0  0  0.206943  0.614498  0  4.174092  0
C  C56  1  0.86479875  0.54682672  0.14167362  1  0  -0.004345  0  3.628533  0  0  -0.056585  0  3.89088  0  0  -0.053131  0  3.892715  0  0  -0.06691  -0.058735  0  3.890599  0
C  C57  1  0.13520683  0.95318042  0.64167625  1  0  -0.004342  0  3.628469  0  0  -0.056619  0  3.890857  0  0  -0.053143  0  3.892665  0  0  -0.066926  -0.058768  0  3.890537  0
C  C58  1  0.13520352  0.45317628  0.85832520  1  0  -0.004554  0  3.628677  0  0  -0.056798  0  3.891061  0  0  -0.053332  0  3.892883  0  0  -0.066982  -0.058961  0  3.890802  0
C  C59  1  0.86479145  0.04682257  0.35832257  1  0  -0.004632  0  3.628585  0  0  -0.05683  0  3.89098  0  0  -0.053359  0  3.892788  0  0  -0.067004  -0.058981  0  3.890668  0
C  C60  1  0.49427624  0.21604594  0.82365546  1  0  0.732574  0  3.863897  0  0  0.681876  0  4.159223  0  0  0.719274  0  4.151962  0  0  0.236454  0.656521  0  4.168127  0
C  C61  1  0.50572220  0.28395164  0.32365897  1  0  0.732849  0  3.863675  0  0  0.682032  0  4.159133  0  0  0.719426  0  4.151882  0  0  0.236435  0.656635  0  4.168082  0
C  C62  1  0.50572336  0.78395211  0.17634336  1  0  0.73281  0  3.863743  0  0  0.681925  0  4.159351  0  0  0.719327  0  4.152088  0  0  0.236392  0.65656  0  4.168235  0
C  C63  1  0.49428173  0.71605261  0.67634219  1  0  0.73266  0  3.863741  0  0  0.681982  0  4.15907  0  0  0.719374  0  4.151825  0  0  0.236439  0.656609  0  4.167979  0
N  N64  1  0.20858773  0.83985291  0.92541722  1  0  -0.290645  0  3.186509  0  0  -0.225433  0  3.440378  0  0  -0.240994  0  3.454479  0  0  -0.300571  -0.214986  0  3.43029  0
N  N65  1  0.79141235  0.66015342  0.42541747  1  0  -0.290561  0  3.186422  0  0  -0.225495  0  3.440396  0  0  -0.241035  0  3.454518  0  0  -0.300481  -0.215022  0  3.430315  0
N  N66  1  0.79141421  0.16014885  0.07458395  1  0  -0.290694  0  3.186499  0  0  -0.225478  0  3.440378  0  0  -0.241039  0  3.454478  0  0  -0.300536  -0.215024  0  3.430327  0
N  N67  1  0.20858494  0.33985080  0.57458370  1  0  -0.29054  0  3.186549  0  0  -0.225345  0  3.440379  0  0  -0.240906  0  3.454475  0  0  -0.300505  -0.214873  0  3.430294  0
O  O68  1  0.25218894  0.00712751  0.15475745  1  0  -0.742604  0  2.101412  0  0  -0.693857  0  2.36608  0  0  -0.732897  0  2.353135  0  0  -0.392667  -0.674846  0  2.371674  0
O  O69  1  0.74779994  0.49285739  0.65475774  1  0  -0.742552  0  2.101356  0  0  -0.693788  0  2.366071  0  0  -0.732824  0  2.353117  0  0  -0.392508  -0.674829  0  2.371787  0
O  O70  1  0.74782396  0.99287553  0.84524137  1  0  -0.742545  0  2.10154  0  0  -0.693809  0  2.366092  0  0  -0.732866  0  2.353149  0  0  -0.39257  -0.674777  0  2.371638  0
O  O71  1  0.25219466  0.50713692  0.34524578  1  0  -0.742553  0  2.101416  0  0  -0.693806  0  2.366114  0  0  -0.732839  0  2.353167  0  0  -0.392499  -0.674839  0  2.371783  0
O  O72  1  0.90108003  0.80719288  0.21262063  1  0  -0.62753  0  1.947365  0  0  -0.587264  0  2.182479  0  0  -0.618099  0  2.178097  0  0  -0.317065  -0.570169  0  2.185113  0
O  O73  1  0.09891428  0.69281062  0.71262261  1  0  -0.627481  0  1.947618  0  0  -0.587237  0  2.182663  0  0  -0.618077  0  2.178289  0  0  -0.317068  -0.570152  0  2.18531  0
O  O74  1  0.09892856  0.19280891  0.78737349  1  0  -0.627458  0  1.947364  0  0  -0.587199  0  2.182522  0  0  -0.618028  0  2.178145  0  0  -0.317087  -0.570104  0  2.185154  0
O  O75  1  0.90108863  0.30718495  0.28737797  1  0  -0.627594  0  1.947656  0  0  -0.587262  0  2.182816  0  0  -0.61809  0  2.178427  0  0  -0.317079  -0.570177  0  2.185454  0
O  O76  1  0.52069523  0.14841569  0.75934041  1  0  -0.739938  0  2.040528  0  0  -0.695083  0  2.303472  0  0  -0.732191  0  2.289639  0  0  -0.385809  -0.677769  0  2.311948  0
O  O77  1  0.47930151  0.35157188  0.25934508  1  0  -0.740005  0  2.040575  0  0  -0.695118  0  2.303562  0  0  -0.732224  0  2.289731  0  0  -0.385803  -0.677802  0  2.312066  0
O  O78  1  0.47930468  0.85157865  0.24065900  1  0  -0.740029  0  2.040534  0  0  -0.695096  0  2.303538  0  0  -0.732205  0  2.289696  0  0  -0.385777  -0.677782  0  2.312009  0
O  O79  1  0.52070076  0.64843112  0.74065609  1  0  -0.740007  0  2.040698  0  0  -0.695159  0  2.303639  0  0  -0.732264  0  2.289804  0  0  -0.385823  -0.677851  0  2.312132  0
O  O80  1  0.98592798  0.44342446  0.12562999  1  0  -0.640445  0  2.212571  0  0  -0.582105  0  2.468338  0  0  -0.610647  0  2.453126  0  0  -0.464002  -0.569363  0  2.477224  0
O  O81  1  0.01407241  0.05656909  0.62563305  1  0  -0.640378  0  2.212612  0  0  -0.582024  0  2.468364  0  0  -0.610573  0  2.453152  0  0  -0.463949  -0.569274  0  2.477239  0
O  O82  1  0.01407062  0.55657481  0.87436883  1  0  -0.640382  0  2.212622  0  0  -0.58201  0  2.468389  0  0  -0.610561  0  2.453175  0  0  -0.464  -0.56927  0  2.477264  0
O  O83  1  0.98592618  0.94342524  0.37436753  1  0  -0.640397  0  2.212633  0  0  -0.582058  0  2.468332  0  0  -0.610595  0  2.45315  0  0  -0.463996  -0.569309  0  2.477197  0
O  O84  1  0.25692027  0.26683552  0.11303932  1  0  -0.719993  0  2.00016  0  0  -0.673311  0  2.254286  0  0  -0.710689  0  2.236825  0  0  -0.3912  -0.655708  0  2.262652  0
O  O85  1  0.74307901  0.23314440  0.61303663  1  0  -0.720296  0  1.999931  0  0  -0.673579  0  2.254062  0  0  -0.710962  0  2.236609  0  0  -0.391458  -0.655967  0  2.262433  0
O  O86  1  0.74307500  0.73316127  0.88696126  1  0  -0.719946  0  2.00011  0  0  -0.673303  0  2.254166  0  0  -0.710689  0  2.236687  0  0  -0.391234  -0.655699  0  2.262536  0
O  O87  1  0.25691892  0.76685240  0.38696218  1  0  -0.720236  0  2.000087  0  0  -0.673509  0  2.254187  0  0  -0.710899  0  2.236732  0  0  -0.391387  -0.65591  0  2.262546  0
O  O88  1  0.11113148  0.66548727  0.22804912  1  0  -0.857756  0  2.238743  0  0  -0.794547  0  2.503946  0  0  -0.843074  0  2.494032  0  0  -0.468883  -0.775425  0  2.510316  0
O  O89  1  0.88885890  0.83451130  0.72804717  1  0  -0.857901  0  2.238657  0  0  -0.794763  0  2.503892  0  0  -0.84329  0  2.49398  0  0  -0.468961  -0.77564  0  2.510252  0
O  O90  1  0.88886844  0.33450707  0.77195029  1  0  -0.857828  0  2.23861  0  0  -0.794629  0  2.503886  0  0  -0.843154  0  2.493973  0  0  -0.468913  -0.775514  0  2.510274  0
O  O91  1  0.11113401  0.16547682  0.27195106  1  0  -0.857958  0  2.238724  0  0  -0.794713  0  2.504  0  0  -0.843241  0  2.494087  0  0  -0.468946  -0.77559  0  2.51035  0
O  O92  1  0.55544118  0.36923222  0.83976965  1  0  -0.726796  0  1.99626  0  0  -0.680257  0  2.257954  0  0  -0.71858  0  2.240203  0  0  -0.399079  -0.662442  0  2.267092  0
O  O93  1  0.44456032  0.13076167  0.33977602  1  0  -0.726941  0  1.996057  0  0  -0.680362  0  2.257777  0  0  -0.718679  0  2.240032  0  0  -0.399061  -0.662523  0  2.266913  0
O  O94  1  0.44456074  0.63076459  0.16022859  1  0  -0.726879  0  1.996138  0  0  -0.6803  0  2.257932  0  0  -0.718616  0  2.240182  0  0  -0.39907  -0.662489  0  2.267071  0
O  O95  1  0.55544494  0.86924258  0.66022339  1  0  -0.726906  0  1.996111  0  0  -0.680365  0  2.257784  0  0  -0.718675  0  2.240042  0  0  -0.399091  -0.662532  0  2.2669  0
