# generated using pymatgen
data_AgH10C11SN2(OF)3
_symmetry_space_group_name_H-M   'P 1'
_cell_length_a   7.83558700
_cell_length_b   9.18267872
_cell_length_c   10.07850286
_cell_angle_alpha   76.42188162
_cell_angle_beta   84.94330302
_cell_angle_gamma   68.39528266
_symmetry_Int_Tables_number   1
_chemical_formula_structural   AgH10C11SN2(OF)3
_chemical_formula_sum   'Ag2 H20 C22 S2 N4 O6 F6'
_cell_volume   655.37446292
_cell_formula_units_Z   2
loop_
 _symmetry_equiv_pos_site_id
 _symmetry_equiv_pos_as_xyz
  1  'x, y, z'
loop_
 _atom_site_type_symbol
 _atom_site_label
 _atom_site_symmetry_multiplicity
 _atom_site_fract_x
 _atom_site_fract_y
 _atom_site_fract_z
 _atom_site_occupancy
 _atom_site_hle17_bader_spin_density
 _atom_site_hle17_ddec_charge
 _atom_site_hle17_ddec_spin_density
 _atom_site_hle17_ddec_sum_bond_order
 _atom_site_hle17_magmom
 _atom_site_hse06_10hf_bader_spin_density
 _atom_site_hse06_10hf_ddec_charge
 _atom_site_hse06_10hf_ddec_spin_density
 _atom_site_hse06_10hf_ddec_sum_bond_order
 _atom_site_hse06_10hf_magmom
 _atom_site_hse06_bader_spin_density
 _atom_site_hse06_ddec_charge
 _atom_site_hse06_ddec_spin_density
 _atom_site_hse06_ddec_sum_bond_order
 _atom_site_hse06_magmom
 _atom_site_pbe_bader_spin_density
 _atom_site_pbe_cm5_charge
 _atom_site_pbe_ddec_charge
 _atom_site_pbe_ddec_spin_density
 _atom_site_pbe_ddec_sum_bond_order
 _atom_site_pbe_magmom
Ag  Ag0  1  0.37635718  0.35464915  0.12289340  1  0  0.631791  0  1.305088  0  0  0.501027  0  1.726768  0  0  0.528116  0  1.682235  0  0  0.499408  0.481622  0  1.759103  0
Ag  Ag1  1  0.62364434  0.64535060  0.87710602  1  0  0.631793  0  1.305057  0  0  0.501034  0  1.726728  0  0  0.528131  0  1.682177  0  0  0.499408  0.481624  0  1.759063  0
H  H2  1  0.36026828  0.39662433  0.39640189  1  0  0.111785  0  0.966655  0  0  0.121737  0  1.028526  0  0  0.125368  0  1.025812  0  0  0.104175  0.119147  0  1.030494  0
H  H3  1  0.63973245  0.60337423  0.60359586  1  0  0.111801  0  0.966608  0  0  0.121753  0  1.028481  0  0  0.125382  0  1.025769  0  0  0.104199  0.119164  0  1.030448  0
H  H4  1  0.08982039  0.70842654  0.04812420  1  0  0.088158  0  0.950944  0  0  0.103563  0  1.01316  0  0  0.103928  0  1.013069  0  0  0.101935  0.103325  0  1.01314  0
H  H5  1  0.91017906  0.29157201  0.95187562  1  0  0.088151  0  0.95093  0  0  0.103556  0  1.013146  0  0  0.10392  0  1.013056  0  0  0.101924  0.10332  0  1.013128  0
H  H6  1  0.86279483  0.70571323  0.05026992  1  0  0.073585  0  0.96277  0  0  0.086623  0  1.037639  0  0  0.087713  0  1.035583  0  0  0.095909  0.085835  0  1.039095  0
H  H7  1  0.13720413  0.29428650  0.94973166  1  0  0.073598  0  0.962783  0  0  0.08664  0  1.037642  0  0  0.08773  0  1.035585  0  0  0.095928  0.085855  0  1.039102  0
H  H8  1  0.87748799  0.58021637  0.28503857  1  0  0.09376  0  0.953474  0  0  0.109285  0  1.014895  0  0  0.109757  0  1.015738  0  0  0.10534  0.108895  0  1.014337  0
H  H9  1  0.12251354  0.41978337  0.71496284  1  0  0.093757  0  0.95348  0  0  0.109276  0  1.014897  0  0  0.109749  0  1.01574  0  0  0.105327  0.108885  0  1.014339  0
H  H10  1  0.09375376  0.60442312  0.28176165  1  0  0.090756  0  0.942265  0  0  0.102894  0  1.010483  0  0  0.10348  0  1.010907  0  0  0.105961  0.102381  0  1.010106  0
H  H11  1  0.90624954  0.39557542  0.71823890  1  0  0.090756  0  0.942255  0  0  0.102891  0  1.010477  0  0  0.103476  0  1.010905  0  0  0.105964  0.102376  0  1.010102  0
H  H12  1  0.99490471  0.72748089  0.81658183  1  0  0.07144  0  0.94974  0  0  0.086309  0  1.016384  0  0  0.086304  0  1.017099  0  0  0.099484  0.086043  0  1.01656  0
H  H13  1  0.00509297  0.27251885  0.18341984  1  0  0.071466  0  0.949661  0  0  0.086353  0  1.016315  0  0  0.086349  0  1.017027  0  0  0.099507  0.086085  0  1.016492  0
H  H14  1  0.18562965  0.54722247  0.87152693  1  0  0.063151  0  0.937109  0  0  0.081086  0  1.004749  0  0  0.081292  0  1.004121  0  0  0.098993  0.080797  0  1.005314  0
H  H15  1  0.81436754  0.45277847  0.12847354  1  0  0.063204  0  0.937097  0  0  0.081149  0  1.004736  0  0  0.081352  0  1.004109  0  0  0.099013  0.080859  0  1.005299  0
H  H16  1  0.48740842  0.14691322  0.57344052  1  0  0.101565  0  0.960081  0  0  0.108945  0  1.025017  0  0  0.111814  0  1.023443  0  0  0.104135  0.106981  0  1.025887  0
H  H17  1  0.51259183  0.85308653  0.42655899  1  0  0.101558  0  0.960076  0  0  0.108935  0  1.025023  0  0  0.111804  0  1.023448  0  0  0.104132  0.106974  0  1.025887  0
H  H18  1  0.96727967  0.07970586  0.59578014  1  0  0.096767  0  0.971659  0  0  0.101299  0  1.043402  0  0  0.104356  0  1.041495  0  0  0.099182  0.099594  0  1.043663  0
H  H19  1  0.03272137  0.92029507  0.40422304  1  0  0.096738  0  0.971677  0  0  0.101262  0  1.043435  0  0  0.104319  0  1.041528  0  0  0.099162  0.099557  0  1.043694  0
H  H20  1  0.84311780  0.32694717  0.41656745  1  0  0.111941  0  0.922818  0  0  0.127453  0  0.972228  0  0  0.130128  0  0.971902  0  0  0.111269  0.125427  0  0.972551  0
H  H21  1  0.15688294  0.67305137  0.58343327  1  0  0.111965  0  0.922847  0  0  0.127475  0  0.972253  0  0  0.13015  0  0.971927  0  0  0.111297  0.125449  0  0.972575  0
C  C22  1  0.27732657  0.32287550  0.43577562  1  0  -0.128986  0  3.731602  0  0  -0.1453  0  3.979167  0  0  -0.15054  0  4.000012  0  0  -0.088136  -0.142116  0  3.965258  0
C  C23  1  0.72267317  0.67712545  0.56422168  1  0  -0.128969  0  3.731634  0  0  -0.145285  0  3.979203  0  0  -0.150527  0  4.00005  0  0  -0.088147  -0.142103  0  3.965295  0
C  C24  1  0.00890776  0.63865275  0.03312144  1  0  -0.049878  0  3.644688  0  0  -0.11011  0  3.897827  0  0  -0.10681  0  3.911352  0  0  -0.086156  -0.111854  0  3.887627  0
C  C25  1  0.99109071  0.36134819  0.96687893  1  0  -0.0499  0  3.644774  0  0  -0.110103  0  3.897899  0  0  -0.106805  0  3.911426  0  0  -0.086163  -0.111831  0  3.887648  0
C  C26  1  0.02669834  0.52029061  0.27557530  1  0  -0.082742  0  3.634219  0  0  -0.141365  0  3.87284  0  0  -0.138988  0  3.88637  0  0  -0.078259  -0.142797  0  3.863158  0
C  C27  1  0.97330240  0.47970794  0.72442443  1  0  -0.08274  0  3.63425  0  0  -0.141349  0  3.872859  0  0  -0.138973  0  3.88639  0  0  -0.078237  -0.142784  0  3.863178  0
C  C28  1  0.09724148  0.37301413  0.38818927  1  0  0.10001  0  3.72612  0  0  0.116254  0  3.966229  0  0  0.119032  0  3.988773  0  0  -9.9e-05  0.114433  0  3.950106  0
C  C29  1  0.90275974  0.62698323  0.61180969  1  0  0.100017  0  3.726095  0  0  0.11626  0  3.966192  0  0  0.119041  0  3.988733  0  0  -8.4e-05  0.114439  0  3.950067  0
C  C30  1  0.03829701  0.61120890  0.88925506  1  0  -0.033823  0  3.657721  0  0  -0.095436  0  3.914698  0  0  -0.091908  0  3.928589  0  0  -0.08021  -0.097303  0  3.904432  0
C  C31  1  0.96170146  0.38879204  0.11074532  1  0  -0.033911  0  3.657744  0  0  -0.095593  0  3.914805  0  0  -0.092064  0  3.9287  0  0  -0.08025  -0.097469  0  3.904578  0
C  C32  1  0.23725431  0.09464045  0.59266513  1  0  0.005847  0  3.86696  0  0  0.028898  0  4.09717  0  0  0.02402  0  4.119222  0  0  0.000212  0.031748  0  4.082637  0
C  C33  1  0.76274622  0.90536170  0.40733385  1  0  0.005749  0  3.867091  0  0  0.028797  0  4.09731  0  0  0.023917  0  4.119363  0  0  0.000149  0.031647  0  4.082778  0
C  C34  1  0.31445594  0.95281849  0.69442551  1  0  0.337557  0  3.697191  0  0  0.317787  0  3.953681  0  0  0.332966  0  3.970453  0  0  0.21981  0.307128  0  3.943013  0
C  C35  1  0.68554736  0.04718005  0.30557602  1  0  0.337545  0  3.697186  0  0  0.317775  0  3.953683  0  0  0.332958  0  3.970456  0  0  0.219783  0.307116  0  3.943014  0
C  C36  1  0.34845698  0.18437725  0.53627834  1  0  -0.04826  0  3.705666  0  0  -0.072449  0  3.951302  0  0  -0.072098  0  3.972385  0  0  -0.070483  -0.072557  0  3.937239  0
C  C37  1  0.65154454  0.81562250  0.46372009  1  0  -0.048221  0  3.705689  0  0  -0.07241  0  3.951327  0  0  -0.072059  0  3.972412  0  0  -0.070457  -0.07252  0  3.937268  0
C  C38  1  0.26782750  0.92395635  0.14726898  1  0  0.595283  0  3.652337  0  0  0.523394  0  4.023186  0  0  0.551213  0  3.996678  0  0  0.28779  0.503349  0  4.042718  0
C  C39  1  0.73217452  0.07604219  0.85273165  1  0  0.59532  0  3.652393  0  0  0.523445  0  4.023215  0  0  0.551271  0  3.996699  0  0  0.287787  0.503388  0  4.042767  0
C  C40  1  0.05454331  0.14651928  0.54929057  1  0  -0.072426  0  3.724284  0  0  -0.098718  0  3.97866  0  0  -0.098208  0  3.998324  0  0  -0.077195  -0.098564  0  3.963625  0
C  C41  1  0.94545693  0.85348047  0.45070894  1  0  -0.072355  0  3.724246  0  0  -0.09864  0  3.978613  0  0  -0.09813  0  3.99828  0  0  -0.077192  -0.098483  0  3.963572  0
C  C42  1  0.98616368  0.28497559  0.44767778  1  0  -0.101539  0  3.695862  0  0  -0.121436  0  3.946041  0  0  -0.125952  0  3.967383  0  0  -0.08181  -0.117862  0  3.930213  0
C  C43  1  0.01383754  0.71502176  0.55232217  1  0  -0.101604  0  3.695894  0  0  -0.121501  0  3.946064  0  0  -0.126018  0  3.967404  0  0  -0.081831  -0.117928  0  3.930235  0
S  S44  1  0.43471343  0.71419770  0.19999757  1  0  1.109374  0  5.847137  0  0  1.005826  0  6.38734  0  0  1.049792  0  6.366818  0  0  0.483979  0.975617  0  6.40008  0
S  S45  1  0.56528347  0.28580084  0.80000441  1  0  1.109423  0  5.847199  0  0  1.005872  0  6.387405  0  0  1.049837  0  6.366887  0  0  0.483976  0.975665  0  6.400148  0
N  N46  1  0.06815212  0.48402637  0.13610521  1  0  -0.211595  0  3.236453  0  0  -0.09297  0  3.469686  0  0  -0.114647  0  3.492883  0  0  -0.340783  -0.077943  0  3.453452  0
N  N47  1  0.93184733  0.51597219  0.86389362  1  0  -0.2116  0  3.236492  0  0  -0.09301  0  3.469729  0  0  -0.114683  0  3.49292  0  0  -0.340813  -0.07798  0  3.453501  0
N  N48  1  0.38774208  0.83584777  0.77508402  1  0  -0.433761  0  2.926476  0  0  -0.379457  0  3.225507  0  0  -0.39571  0  3.228093  0  0  -0.34761  -0.368744  0  3.224753  0
N  N49  1  0.61226082  0.16415799  0.22491305  1  0  -0.433733  0  2.926314  0  0  -0.379432  0  3.225356  0  0  -0.395686  0  3.227943  0  0  -0.347565  -0.368719  0  3.2246  0
O  O50  1  0.41289048  0.63514247  0.09437319  1  0  -0.645732  0  2.106055  0  0  -0.595217  0  2.406203  0  0  -0.615317  0  2.386933  0  0  -0.34482  -0.580648  0  2.419359  0
O  O51  1  0.58710494  0.36485968  0.90562715  1  0  -0.645734  0  2.105977  0  0  -0.595239  0  2.406147  0  0  -0.615344  0  2.386886  0  0  -0.344832  -0.580671  0  2.419305  0
O  O52  1  0.60898464  0.73779262  0.19348618  1  0  -0.594482  0  2.052236  0  0  -0.561109  0  2.313749  0  0  -0.57992  0  2.302617  0  0  -0.327178  -0.547876  0  2.320576  0
O  O53  1  0.39101659  0.26220473  0.80651377  1  0  -0.594489  0  2.05228  0  0  -0.561117  0  2.313815  0  0  -0.579928  0  2.302685  0  0  -0.327167  -0.547887  0  2.320644  0
O  O54  1  0.37066908  0.65738705  0.33502083  1  0  -0.584316  0  1.970794  0  0  -0.547287  0  2.21383  0  0  -0.566155  0  2.202659  0  0  -0.329066  -0.53402  0  2.220855  0
O  O55  1  0.62932969  0.34261629  0.66498001  1  0  -0.584344  0  1.970849  0  0  -0.5473  0  2.213866  0  0  -0.566168  0  2.202695  0  0  -0.329063  -0.534032  0  2.22089  0
F  F56  1  0.31151042  0.99933329  0.02485405  1  0  -0.212643  0  1.24931  0  0  -0.171382  0  1.426189  0  0  -0.18122  0  1.411113  0  0  -0.08203  -0.16397  0  1.436479  0
F  F57  1  0.68848952  0.00066406  0.97514500  1  0  -0.212644  0  1.249295  0  0  -0.171399  0  1.42618  0  0  -0.181234  0  1.411103  0  0  -0.082042  -0.163982  0  1.436474  0
F  F58  1  0.26740019  0.01026775  0.24139693  1  0  -0.24967  0  1.207114  0  0  -0.204212  0  1.381081  0  0  -0.2163  0  1.368875  0  0  -0.092725  -0.197167  0  1.392092  0
F  F59  1  0.73260241  0.98973560  0.75860165  1  0  -0.249676  0  1.207172  0  0  -0.204215  0  1.381132  0  0  -0.216307  0  1.368927  0  0  -0.092687  -0.197168  0  1.392147  0
F  F60  1  0.09284350  0.92878725  0.14011225  1  0  -0.232917  0  1.203594  0  0  -0.185897  0  1.366467  0  0  -0.195475  0  1.352008  0  0  -0.091022  -0.178867  0  1.376785  0
F  F61  1  0.90715548  0.07121248  0.85989132  1  0  -0.232923  0  1.203666  0  0  -0.185916  0  1.366548  0  0  -0.195493  0  1.352086  0  0  -0.09103  -0.178883  0  1.376871  0
