# generated using pymatgen
data_Cd3H42C34(NO13)2
_symmetry_space_group_name_H-M   'P 1'
_cell_length_a   10.05091476
_cell_length_b   11.40947125
_cell_length_c   10.61375831
_cell_angle_alpha   73.45568692
_cell_angle_beta   79.12973438
_cell_angle_gamma   73.58265520
_symmetry_Int_Tables_number   1
_chemical_formula_structural   Cd3H42C34(NO13)2
_chemical_formula_sum   'Cd3 H42 C34 N2 O26'
_cell_volume   1111.41782353
_cell_formula_units_Z   1
loop_
 _symmetry_equiv_pos_site_id
 _symmetry_equiv_pos_as_xyz
  1  'x, y, z'
loop_
 _atom_site_type_symbol
 _atom_site_label
 _atom_site_symmetry_multiplicity
 _atom_site_fract_x
 _atom_site_fract_y
 _atom_site_fract_z
 _atom_site_occupancy
 _atom_site_hle17_bader_spin_density
 _atom_site_hle17_ddec_charge
 _atom_site_hle17_ddec_spin_density
 _atom_site_hle17_ddec_sum_bond_order
 _atom_site_hle17_magmom
 _atom_site_hse06_10hf_bader_spin_density
 _atom_site_hse06_10hf_ddec_charge
 _atom_site_hse06_10hf_ddec_spin_density
 _atom_site_hse06_10hf_ddec_sum_bond_order
 _atom_site_hse06_10hf_magmom
 _atom_site_hse06_bader_spin_density
 _atom_site_hse06_ddec_charge
 _atom_site_hse06_ddec_spin_density
 _atom_site_hse06_ddec_sum_bond_order
 _atom_site_hse06_magmom
 _atom_site_pbe_bader_spin_density
 _atom_site_pbe_cm5_charge
 _atom_site_pbe_ddec_charge
 _atom_site_pbe_ddec_spin_density
 _atom_site_pbe_ddec_sum_bond_order
 _atom_site_pbe_magmom
Cd  Cd0  1  0.18055391  0.19366621  0.41105621  1  0  1.166382  0  1.615343  0  0  0.980807  0  2.059107  0  0  1.038534  0  2.004195  0  0  0.769847  0.939719  0  2.096517  0
Cd  Cd1  1  0.81943799  0.80633193  0.58893995  1  0  1.166469  0  1.615278  0  0  0.980947  0  2.059021  0  0  1.038669  0  2.004109  0  0  0.769911  0.939862  0  2.096433  0
Cd  Cd2  1  0.00000037  0.00000454  0.99999446  1  0  1.263647  0  1.563627  0  0  1.106515  0  1.997569  0  0  1.159742  0  1.937614  0  0  0.755809  1.068385  0  2.039151  0
H  H3  1  0.57632438  0.61047647  0.55842200  1  0  0.125371  0  0.993146  0  0  0.132299  0  1.065636  0  0  0.135663  0  1.064465  0  0  0.102598  0.129999  0  1.066421  0
H  H4  1  0.42366698  0.38952414  0.44158469  1  0  0.125426  0  0.993043  0  0  0.132353  0  1.065495  0  0  0.135717  0  1.064326  0  0  0.102611  0.130051  0  1.066282  0
H  H5  1  0.18883606  0.57636701  0.80478893  1  0  0.142113  0  0.979097  0  0  0.146028  0  1.05262  0  0  0.151204  0  1.048479  0  0  0.103802  0.142419  0  1.055439  0
H  H6  1  0.81116340  0.42363772  0.19522231  1  0  0.142115  0  0.979137  0  0  0.146053  0  1.052622  0  0  0.15123  0  1.048488  0  0  0.103829  0.142445  0  1.055442  0
H  H7  1  0.52992166  0.24427518  0.79516765  1  0  0.14422  0  0.925285  0  0  0.156376  0  0.981022  0  0  0.161392  0  0.977328  0  0  0.112272  0.152777  0  0.983817  0
H  H8  1  0.47006850  0.75572970  0.20482923  1  0  0.144255  0  0.925246  0  0  0.1564  0  0.980993  0  0  0.161418  0  0.977298  0  0  0.112289  0.152808  0  0.983779  0
H  H9  1  0.79404660  0.51651274  0.57990155  1  0  0.082233  0  0.956865  0  0  0.091205  0  1.026331  0  0  0.092548  0  1.025551  0  0  0.105085  0.0903  0  1.026877  0
H  H10  1  0.20595391  0.48349550  0.42010351  1  0  0.082273  0  0.956839  0  0  0.091253  0  1.026271  0  0  0.092596  0  1.02549  0  0  0.105095  0.090348  0  1.026813  0
H  H11  1  0.74999497  0.47026954  0.44940970  1  0  0.089141  0  0.971204  0  0  0.097349  0  1.036368  0  0  0.098599  0  1.036679  0  0  0.103202  0.096379  0  1.036329  0
H  H12  1  0.24998536  0.52974558  0.55058249  1  0  0.089174  0  0.971347  0  0  0.097422  0  1.036445  0  0  0.098673  0  1.036753  0  0  0.103255  0.096447  0  1.036415  0
H  H13  1  0.41421698  0.77123805  0.45111944  1  0  0.100002  0  0.935321  0  0  0.108214  0  1.002197  0  0  0.110127  0  1.00052  0  0  0.114511  0.106906  0  1.003336  0
H  H14  1  0.58577996  0.22876046  0.54888319  1  0  0.099975  0  0.935286  0  0  0.108143  0  1.002145  0  0  0.110055  0  1.000463  0  0  0.114443  0.106833  0  1.003289  0
H  H15  1  0.48811464  0.80677422  0.57186626  1  0  0.087337  0  0.93658  0  0  0.096994  0  1.005505  0  0  0.098055  0  1.005  0  0  0.10914  0.096291  0  1.005897  0
H  H16  1  0.51188793  0.19322575  0.42812725  1  0  0.087327  0  0.936595  0  0  0.09693  0  1.005511  0  0  0.097989  0  1.005004  0  0  0.109114  0.096246  0  1.005883  0
H  H17  1  0.07779555  0.43165581  0.84025403  1  0  0.088805  0  0.918517  0  0  0.101084  0  0.981129  0  0  0.102934  0  0.978901  0  0  0.111646  0.099841  0  0.982786  0
H  H18  1  0.92219131  0.56836199  0.15975202  1  0  0.088714  0  0.91859  0  0  0.101023  0  0.98118  0  0  0.102863  0  0.978955  0  0  0.111632  0.099784  0  0.982834  0
H  H19  1  0.12096606  0.42574853  0.99793889  1  0  0.073957  0  0.95585  0  0  0.079929  0  1.030045  0  0  0.08096  0  1.030092  0  0  0.099896  0.079224  0  1.030155  0
H  H20  1  0.87903108  0.57425759  0.00208077  1  0  0.073986  0  0.955883  0  0  0.080026  0  1.02999  0  0  0.081056  0  1.030032  0  0  0.099989  0.079331  0  1.030093  0
H  H21  1  0.45827150  0.15497301  0.20967047  1  0  0.093928  0  0.921594  0  0  0.106167  0  0.9763  0  0  0.109025  0  0.973553  0  0  0.12379  0.103947  0  0.978499  0
H  H22  1  0.54173987  0.84502082  0.79033304  1  0  0.093854  0  0.921391  0  0  0.106073  0  0.976126  0  0  0.108944  0  0.973382  0  0  0.123692  0.103848  0  0.978336  0
H  H23  1  0.60852591  0.27865535  0.05058299  1  0  0.119005  0  0.95273  0  0  0.129595  0  1.010418  0  0  0.13301  0  1.008697  0  0  0.11371  0.127071  0  1.012014  0
H  H24  1  0.39148972  0.72133806  0.94943026  1  0  0.119063  0  0.952751  0  0  0.129643  0  1.010442  0  0  0.133058  0  1.008721  0  0  0.113725  0.127118  0  1.012038  0
H  H25  1  0.27409208  0.61297699  0.07325243  1  0  0.11951  0  0.934535  0  0  0.13262  0  0.986727  0  0  0.135695  0  0.985917  0  0  0.117365  0.130275  0  0.987676  0
H  H26  1  0.72591396  0.38701380  0.92674845  1  0  0.119428  0  0.934579  0  0  0.132543  0  0.986785  0  0  0.13562  0  0.98597  0  0  0.117312  0.13019  0  0.987747  0
H  H27  1  0.13929305  0.47298791  0.23384580  1  0  0.084264  0  0.949969  0  0  0.093297  0  1.014398  0  0  0.096011  0  1.011559  0  0  0.118  0.091146  0  1.016643  0
H  H28  1  0.86070972  0.52700369  0.76615257  1  0  0.084297  0  0.950082  0  0  0.093347  0  1.01449  0  0  0.09606  0  1.011659  0  0  0.118071  0.091236  0  1.016691  0
H  H29  1  0.95422995  0.09483965  0.36335908  1  0  0.435464  0  0.85716  0  0  0.401674  0  0.924302  0  0  0.412968  0  0.907918  0  0  0.296823  0.393616  0  0.935986  0
H  H30  1  0.04577663  0.90514882  0.63663405  1  0  0.435403  0  0.857238  0  0  0.401614  0  0.924389  0  0  0.412912  0  0.908001  0  0  0.296801  0.393555  0  0.936075  0
H  H31  1  0.00759210  0.18541825  0.23174775  1  0  0.419299  0  0.886525  0  0  0.387776  0  0.951502  0  0  0.397962  0  0.936855  0  0  0.294379  0.38054  0  0.96191  0
H  H32  1  0.99241044  0.81457404  0.76824570  1  0  0.419412  0  0.886357  0  0  0.387878  0  0.951366  0  0  0.398064  0  0.936718  0  0  0.294468  0.380642  0  0.961775  0
H  H33  1  0.31255916  0.17159802  0.65652251  1  0  0.436123  0  0.802741  0  0  0.420665  0  0.852316  0  0  0.429224  0  0.843187  0  0  0.325495  0.414552  0  0.85891  0
H  H34  1  0.68744341  0.82840991  0.34347661  1  0  0.435963  0  0.803009  0  0  0.420512  0  0.852566  0  0  0.429068  0  0.843444  0  0  0.325429  0.414401  0  0.859154  0
H  H35  1  0.15659123  0.24581418  0.63767546  1  0  0.424296  0  0.877397  0  0  0.390961  0  0.944562  0  0  0.402486  0  0.927787  0  0  0.289026  0.382879  0  0.956294  0
H  H36  1  0.84340398  0.75418681  0.36231999  1  0  0.424326  0  0.877365  0  0  0.391015  0  0.944509  0  0  0.402539  0  0.927735  0  0  0.289068  0.382931  0  0.956244  0
H  H37  1  0.11571063  0.97692642  0.23155489  1  0  0.415301  0  0.878802  0  0  0.388482  0  0.934882  0  0  0.398748  0  0.919923  0  0  0.288897  0.381085  0  0.945659  0
H  H38  1  0.88429319  0.02306864  0.76843638  1  0  0.415199  0  0.878952  0  0  0.388413  0  0.934983  0  0  0.39868  0  0.920023  0  0  0.288884  0.381021  0  0.945752  0
H  H39  1  0.10408584  0.83893811  0.24375840  1  0  0.433938  0  0.862864  0  0  0.399192  0  0.931976  0  0  0.410572  0  0.915498  0  0  0.28675  0.391096  0  0.943689  0
H  H40  1  0.89592006  0.16105650  0.75622416  1  0  0.433915  0  0.862876  0  0  0.399185  0  0.931983  0  0  0.410566  0  0.915501  0  0  0.286743  0.391089  0  0.943696  0
H  H41  1  0.80876480  0.06887644  0.23126290  1  0  0.417594  0  0.870115  0  0  0.388481  0  0.935601  0  0  0.398721  0  0.92068  0  0  0.292872  0.38113  0  0.94633  0
H  H42  1  0.19123645  0.93111715  0.76873693  1  0  0.417639  0  0.870063  0  0  0.388472  0  0.935593  0  0  0.398708  0  0.920679  0  0  0.292888  0.38112  0  0.946323  0
H  H43  1  0.85367303  0.17984342  0.12059341  1  0  0.402426  0  0.913788  0  0  0.367528  0  0.985913  0  0  0.379287  0  0.968751  0  0  0.281381  0.35922  0  0.997998  0
H  H44  1  0.14632111  0.82015421  0.87941100  1  0  0.402426  0  0.913764  0  0  0.367532  0  0.985886  0  0  0.379291  0  0.968725  0  0  0.281372  0.359224  0  0.997972  0
C  C45  1  0.56711569  0.42266198  0.67549273  1  0  0.316851  0  3.863994  0  0  0.308869  0  4.129087  0  0  0.323753  0  4.143989  0  0  0.079772  0.298911  0  4.118837  0
C  C46  1  0.43287441  0.57733958  0.32451385  1  0  0.316743  0  3.864439  0  0  0.308731  0  4.129585  0  0  0.323614  0  4.144488  0  0  0.07971  0.298773  0  4.119336  0
C  C47  1  0.51337223  0.55283989  0.62983310  1  0  -0.373849  0  3.773792  0  0  -0.404889  0  4.033157  0  0  -0.416829  0  4.054337  0  0  -0.145693  -0.396991  0  4.01878  0
C  C48  1  0.48662397  0.44716540  0.37017100  1  0  -0.37385  0  3.773786  0  0  -0.404809  0  4.033139  0  0  -0.416749  0  4.05432  0  0  -0.145617  -0.396913  0  4.018764  0
C  C49  1  0.37699576  0.60460929  0.67931463  1  0  0.32249  0  3.832647  0  0  0.315915  0  4.091585  0  0  0.33081  0  4.105704  0  0  0.078295  0.305976  0  4.08165  0
C  C50  1  0.62300174  0.39540257  0.32068685  1  0  0.322483  0  3.832292  0  0  0.315822  0  4.091337  0  0  0.330715  0  4.10546  0  0  0.078296  0.305885  0  4.081401  0
C  C51  1  0.29342268  0.53041480  0.76820290  1  0  -0.355392  0  3.737438  0  0  -0.388165  0  4.001243  0  0  -0.398445  0  4.016471  0  0  -0.140681  -0.381277  0  3.990828  0
C  C52  1  0.70658217  0.46959603  0.23179664  1  0  -0.355276  0  3.737372  0  0  -0.388061  0  4.001162  0  0  -0.398341  0  4.016396  0  0  -0.140678  -0.381176  0  3.990748  0
C  C53  1  0.34833339  0.40025943  0.80507386  1  0  0.316771  0  3.861048  0  0  0.306378  0  4.128008  0  0  0.321618  0  4.142013  0  0  0.078206  0.296038  0  4.11821  0
C  C54  1  0.65165676  0.59975346  0.19492957  1  0  0.316536  0  3.861147  0  0  0.306291  0  4.128007  0  0  0.321524  0  4.142027  0  0  0.078198  0.295951  0  4.118208  0
C  C55  1  0.48606298  0.34519281  0.76151742  1  0  -0.33777  0  3.731887  0  0  -0.377411  0  4.006276  0  0  -0.387011  0  4.02058  0  0  -0.134839  -0.370893  0  3.996539  0
C  C56  1  0.51391823  0.65481186  0.23849442  1  0  -0.337636  0  3.732014  0  0  -0.377268  0  4.006334  0  0  -0.386867  0  4.020642  0  0  -0.134763  -0.370757  0  3.996593  0
C  C57  1  0.78824192  0.43507803  0.54680009  1  0  -0.068865  0  3.623861  0  0  -0.120995  0  3.872545  0  0  -0.118425  0  3.874048  0  0  -0.071765  -0.122765  0  3.871494  0
C  C58  1  0.21176142  0.56492682  0.45319528  1  0  -0.069088  0  3.624517  0  0  -0.121217  0  3.873196  0  0  -0.118649  0  3.874696  0  0  -0.071857  -0.122977  0  3.872131  0
C  C59  1  0.93414402  0.35010211  0.53680886  1  0  0.69144  0  3.840915  0  0  0.640195  0  4.138768  0  0  0.674254  0  4.131067  0  0  0.210999  0.616919  0  4.143354  0
C  C60  1  0.06586486  0.64988506  0.46317771  1  0  0.691456  0  3.840942  0  0  0.640193  0  4.138859  0  0  0.674252  0  4.131151  0  0  0.210919  0.616916  0  4.143451  0
C  C61  1  0.38921196  0.80644608  0.54138547  1  0  -0.067951  0  3.647254  0  0  -0.121905  0  3.903101  0  0  -0.118765  0  3.903844  0  0  -0.06704  -0.124155  0  3.902621  0
C  C62  1  0.61079359  0.19354664  0.45861576  1  0  -0.067991  0  3.647303  0  0  -0.121692  0  3.902808  0  0  -0.118537  0  3.903523  0  0  -0.066885  -0.123954  0  3.902319  0
C  C63  1  0.30493021  0.94131808  0.50755285  1  0  0.678225  0  3.86442  0  0  0.628831  0  4.158754  0  0  0.662341  0  4.152517  0  0  0.204841  0.605974  0  4.162336  0
C  C64  1  0.69507228  0.05867475  0.49245079  1  0  0.678324  0  3.864581  0  0  0.628895  0  4.158846  0  0  0.662403  0  4.152606  0  0  0.204905  0.606036  0  4.162433  0
C  C65  1  0.13097210  0.36976893  0.92635071  1  0  -0.057351  0  3.630783  0  0  -0.114349  0  3.892823  0  0  -0.111312  0  3.894214  0  0  -0.067435  -0.116578  0  3.891963  0
C  C66  1  0.86902538  0.63023923  0.07365306  1  0  -0.057122  0  3.631078  0  0  -0.1141  0  3.893126  0  0  -0.111044  0  3.894493  0  0  -0.067409  -0.116338  0  3.892281  0
C  C67  1  0.05780018  0.26312835  0.98699266  1  0  0.683956  0  3.862304  0  0  0.632226  0  4.163709  0  0  0.66549  0  4.157002  0  0  0.212886  0.609635  0  4.167461  0
C  C68  1  0.94220153  0.73686771  0.01301751  1  0  0.68409  0  3.86205  0  0  0.632422  0  4.163377  0  0  0.665688  0  4.156655  0  0  0.212995  0.609825  0  4.167147  0
C  C69  1  0.42182578  0.25705676  0.17640744  1  0  0.137206  0  3.693787  0  0  0.103221  0  3.950319  0  0  0.11112  0  3.967289  0  0  0.04915  0.098006  0  3.939016  0
C  C70  1  0.57818836  0.74293033  0.82359516  1  0  0.137264  0  3.693898  0  0  0.103321  0  3.950389  0  0  0.111197  0  3.967386  0  0  0.049205  0.098111  0  3.939075  0
C  C71  1  0.50539740  0.32849307  0.08617853  1  0  -0.121727  0  3.661419  0  0  -0.14405  0  3.914408  0  0  -0.150376  0  3.933841  0  0  -0.067084  -0.140307  0  3.901885  0
C  C72  1  0.49461119  0.67151151  0.91382916  1  0  -0.121763  0  3.661233  0  0  -0.144081  0  3.914215  0  0  -0.150408  0  3.933656  0  0  -0.067022  -0.140339  0  3.901696  0
C  C73  1  0.45646132  0.45997456  0.04643096  1  0  0.09543  0  3.736264  0  0  0.109159  0  3.961203  0  0  0.112452  0  3.983468  0  0  0.023175  0.107079  0  3.946268  0
C  C74  1  0.54355051  0.54000983  0.95357493  1  0  0.095526  0  3.736096  0  0  0.109273  0  3.961025  0  0  0.112567  0  3.983289  0  0  0.023174  0.10719  0  3.946087  0
C  C75  1  0.32093515  0.51224586  0.09949556  1  0  -0.126021  0  3.66842  0  0  -0.148235  0  3.921274  0  0  -0.154634  0  3.941496  0  0  -0.069439  -0.14408  0  3.907887  0
C  C76  1  0.67906859  0.48774613  0.90051004  1  0  -0.126036  0  3.668531  0  0  -0.148274  0  3.92142  0  0  -0.154671  0  3.941638  0  0  -0.06944  -0.144115  0  3.908047  0
C  C77  1  0.24379616  0.43463561  0.18932689  1  0  0.118594  0  3.722677  0  0  0.08653  0  3.981318  0  0  0.093594  0  3.999314  0  0  0.041597  0.081978  0  3.969152  0
C  C78  1  0.75621899  0.56534742  0.81067131  1  0  0.118549  0  3.722362  0  0  0.086458  0  3.981084  0  0  0.093522  0  3.999074  0  0  0.041497  0.081871  0  3.968917  0
N  N79  1  0.29331059  0.30886422  0.22903082  1  0  -0.358462  0  3.272193  0  0  -0.278908  0  3.544582  0  0  -0.299902  0  3.563281  0  0  -0.338246  -0.264791  0  3.531642  0
N  N80  1  0.70670055  0.69113026  0.77096684  1  0  -0.358465  0  3.272172  0  0  -0.278929  0  3.544606  0  0  -0.29992  0  3.563302  0  0  -0.338193  -0.264813  0  3.531681  0
O  O81  1  0.70147450  0.36253754  0.63982596  1  0  -0.268273  0  2.352249  0  0  -0.1972  0  2.581182  0  0  -0.214652  0  2.583351  0  0  -0.179869  -0.185094  0  2.579294  0
O  O82  1  0.29851507  0.63746219  0.36018233  1  0  -0.268138  0  2.352713  0  0  -0.197084  0  2.581672  0  0  -0.214534  0  2.583841  0  0  -0.179818  -0.184979  0  2.579778  0
O  O83  1  0.31351797  0.73083372  0.64326415  1  0  -0.267321  0  2.334345  0  0  -0.19618  0  2.563085  0  0  -0.213173  0  2.564945  0  0  -0.183265  -0.184078  0  2.561264  0
O  O84  1  0.68648254  0.26917061  0.35673949  1  0  -0.267324  0  2.334011  0  0  -0.196251  0  2.562726  0  0  -0.21325  0  2.564582  0  0  -0.183317  -0.18415  0  2.56091  0
O  O85  1  0.27393685  0.31817836  0.88585451  1  0  -0.262142  0  2.334318  0  0  -0.192342  0  2.562456  0  0  -0.208668  0  2.563378  0  0  -0.18062  -0.180462  0  2.561133  0
O  O86  1  0.72607300  0.68181746  0.11415045  1  0  -0.262112  0  2.334478  0  0  -0.192551  0  2.562785  0  0  -0.208877  0  2.563699  0  0  -0.180731  -0.18067  0  2.561469  0
O  O87  1  0.97762104  0.26852612  0.63903224  1  0  -0.650549  0  1.989624  0  0  -0.587989  0  2.206764  0  0  -0.614023  0  2.194821  0  0  -0.313898  -0.569949  0  2.214508  0
O  O88  1  0.02236779  0.73146441  0.36096535  1  0  -0.650677  0  1.98956  0  0  -0.588105  0  2.206702  0  0  -0.614134  0  2.194759  0  0  -0.314013  -0.570066  0  2.214448  0
O  O89  1  0.00586922  0.36844431  0.42300609  1  0  -0.648913  0  1.968293  0  0  -0.582768  0  2.218492  0  0  -0.613669  0  2.208285  0  0  -0.332934  -0.561048  0  2.224493  0
O  O90  1  0.99411858  0.63157245  0.57696242  1  0  -0.64885  0  1.968388  0  0  -0.582754  0  2.218636  0  0  -0.613658  0  2.208437  0  0  -0.332844  -0.561037  0  2.224641  0
O  O91  1  0.36018517  0.01458950  0.41122179  1  0  -0.634473  0  1.938135  0  0  -0.575894  0  2.174576  0  0  -0.606153  0  2.165273  0  0  -0.332234  -0.554771  0  2.180297  0
O  O92  1  0.63981436  0.98541439  0.58877370  1  0  -0.634431  0  1.938384  0  0  -0.575866  0  2.174834  0  0  -0.606125  0  2.165536  0  0  -0.332232  -0.554743  0  2.180557  0
O  O93  1  0.18722032  0.97802783  0.57330796  1  0  -0.67201  0  1.988389  0  0  -0.600239  0  2.20939  0  0  -0.628523  0  2.197604  0  0  -0.31915  -0.580381  0  2.216953  0
O  O94  1  0.81278990  0.02197764  0.42668025  1  0  -0.672135  0  1.988152  0  0  -0.600389  0  2.209183  0  0  -0.628671  0  2.197393  0  0  -0.319254  -0.580529  0  2.216747  0
O  O95  1  0.96038142  0.28059360  0.08189212  1  0  -0.669469  0  1.988501  0  0  -0.604379  0  2.209402  0  0  -0.630899  0  2.199102  0  0  -0.325172  -0.5855  0  2.215817  0
O  O96  1  0.03960311  0.71941387  0.91811809  1  0  -0.669635  0  1.988493  0  0  -0.604595  0  2.209436  0  0  -0.631115  0  2.199126  0  0  -0.325312  -0.585713  0  2.215854  0
O  O97  1  0.09507732  0.16946599  0.93672948  1  0  -0.623279  0  2.000534  0  0  -0.560804  0  2.243398  0  0  -0.589519  0  2.231823  0  0  -0.321044  -0.540806  0  2.250686  0
O  O98  1  0.90491160  0.83054740  0.06326551  1  0  -0.623358  0  2.000127  0  0  -0.560902  0  2.242943  0  0  -0.589623  0  2.231368  0  0  -0.321084  -0.5409  0  2.250235  0
O  O99  1  0.04019920  0.11887963  0.31148913  1  0  -0.83919  0  1.89124  0  0  -0.767193  0  2.075526  0  0  -0.791553  0  2.041697  0  0  -0.57003  -0.749875  0  2.099211  0
O  O100  1  0.95980308  0.88110979  0.68850446  1  0  -0.83931  0  1.891299  0  0  -0.767318  0  2.075526  0  0  -0.791678  0  2.041693  0  0  -0.57012  -0.750002  0  2.099211  0
O  O101  1  0.25511054  0.23729811  0.59428162  1  0  -0.825383  0  1.827405  0  0  -0.770248  0  2.016973  0  0  -0.791524  0  1.987586  0  0  -0.576425  -0.755238  0  2.036966  0
O  O102  1  0.74488875  0.76270653  0.40570987  1  0  -0.825252  0  1.827594  0  0  -0.770147  0  2.017096  0  0  -0.79142  0  1.987713  0  0  -0.576426  -0.755137  0  2.037087  0
O  O103  1  0.13275559  0.91314695  0.18049113  1  0  -0.836174  0  1.818342  0  0  -0.776474  0  1.988114  0  0  -0.798641  0  1.954084  0  0  -0.591682  -0.760761  0  2.012012  0
O  O104  1  0.86725129  0.08684799  0.81949772  1  0  -0.836033  0  1.818462  0  0  -0.776389  0  1.988138  0  0  -0.798558  0  1.954109  0  0  -0.591638  -0.760679  0  2.012029  0
O  O105  1  0.81280573  0.10575430  0.13515000  1  0  -0.828926  0  1.841339  0  0  -0.770691  0  2.019991  0  0  -0.792342  0  1.985799  0  0  -0.588769  -0.755328  0  2.044033  0
O  O106  1  0.18719348  0.89424331  0.86485348  1  0  -0.828961  0  1.841256  0  0  -0.770654  0  2.020038  0  0  -0.792292  0  1.985831  0  0  -0.588771  -0.755291  0  2.044079  0
