# generated using pymatgen
data_ZnH4C4(N2O)2
_symmetry_space_group_name_H-M   'P 1'
_cell_length_a   6.84659115
_cell_length_b   8.93707648
_cell_length_c   10.43268582
_cell_angle_alpha   89.99990748
_cell_angle_beta   89.99995189
_cell_angle_gamma   101.38422125
_symmetry_Int_Tables_number   1
_chemical_formula_structural   ZnH4C4(N2O)2
_chemical_formula_sum   'Zn4 H16 C16 N16 O8'
_cell_volume   625.80110962
_cell_formula_units_Z   4
loop_
 _symmetry_equiv_pos_site_id
 _symmetry_equiv_pos_as_xyz
  1  'x, y, z'
loop_
 _atom_site_type_symbol
 _atom_site_label
 _atom_site_symmetry_multiplicity
 _atom_site_fract_x
 _atom_site_fract_y
 _atom_site_fract_z
 _atom_site_occupancy
 _atom_site_hle17_bader_spin_density
 _atom_site_hle17_ddec_charge
 _atom_site_hle17_ddec_spin_density
 _atom_site_hle17_ddec_sum_bond_order
 _atom_site_hle17_magmom
 _atom_site_hse06_10hf_bader_spin_density
 _atom_site_hse06_10hf_ddec_charge
 _atom_site_hse06_10hf_ddec_spin_density
 _atom_site_hse06_10hf_ddec_sum_bond_order
 _atom_site_hse06_10hf_magmom
 _atom_site_hse06_bader_spin_density
 _atom_site_hse06_ddec_charge
 _atom_site_hse06_ddec_spin_density
 _atom_site_hse06_ddec_sum_bond_order
 _atom_site_hse06_magmom
 _atom_site_pbe_bader_spin_density
 _atom_site_pbe_cm5_charge
 _atom_site_pbe_ddec_charge
 _atom_site_pbe_ddec_spin_density
 _atom_site_pbe_ddec_sum_bond_order
 _atom_site_pbe_magmom
Zn  Zn0  1  0.73041280  0.77601057  0.75651203  1  0  1.035581  0  1.817859  0  0  0.844683  0  2.288987  0  0  0.890078  0  2.236685  0  0  0.728548  0.812228  0  2.325612  0
Zn  Zn1  1  0.26958637  0.72399031  0.25651151  1  0  1.035573  0  1.817875  0  0  0.844682  0  2.289002  0  0  0.890079  0  2.236698  0  0  0.728546  0.812224  0  2.325636  0
Zn  Zn2  1  0.26958706  0.22399070  0.24348836  1  0  1.035573  0  1.817857  0  0  0.844686  0  2.288988  0  0  0.890083  0  2.236687  0  0  0.728546  0.812235  0  2.325629  0
Zn  Zn3  1  0.73041466  0.27600982  0.74348792  1  0  1.03554  0  1.817912  0  0  0.844634  0  2.289041  0  0  0.890031  0  2.236734  0  0  0.728524  0.812177  0  2.325674  0
H  H4  1  0.38242143  0.54746596  0.65972800  1  0  0.102005  0  0.949299  0  0  0.109729  0  1.024095  0  0  0.112342  0  1.021623  0  0  0.102995  0.107602  0  1.026464  0
H  H5  1  0.61757820  0.95253627  0.15972793  1  0  0.101998  0  0.94934  0  0  0.10972  0  1.024132  0  0  0.112334  0  1.021659  0  0  0.102986  0.107591  0  1.026502  0
H  H6  1  0.61757988  0.45253530  0.34027048  1  0  0.101986  0  0.949317  0  0  0.109703  0  1.024111  0  0  0.112316  0  1.021639  0  0  0.102982  0.107575  0  1.02648  0
H  H7  1  0.38242136  0.04746386  0.84027150  1  0  0.101992  0  0.94933  0  0  0.109707  0  1.02412  0  0  0.112321  0  1.021647  0  0  0.102985  0.107579  0  1.026489  0
H  H8  1  0.26553318  0.51022056  0.50897110  1  0  0.099916  0  0.94798  0  0  0.114468  0  1.009137  0  0  0.115604  0  1.009576  0  0  0.101378  0.113616  0  1.008878  0
H  H9  1  0.73446498  0.98978085  0.00897092  1  0  0.09994  0  0.947979  0  0  0.114501  0  1.009115  0  0  0.115638  0  1.009553  0  0  0.101384  0.113649  0  1.008855  0
H  H10  1  0.73446639  0.48977956  0.49102929  1  0  0.099908  0  0.947983  0  0  0.114455  0  1.00914  0  0  0.115591  0  1.009579  0  0  0.101379  0.113602  0  1.008879  0
H  H11  1  0.26553428  0.01021813  0.99103043  1  0  0.099929  0  0.947966  0  0  0.114482  0  1.009106  0  0  0.115618  0  1.009546  0  0  0.101381  0.113629  0  1.008845  0
H  H12  1  0.18261564  0.74472807  0.70912459  1  0  0.128889  0  0.931283  0  0  0.14  0  0.994316  0  0  0.142596  0  0.993559  0  0  0.109312  0.137878  0  0.995392  0
H  H13  1  0.81738362  0.75527291  0.20912469  1  0  0.1289  0  0.931272  0  0  0.140015  0  0.994299  0  0  0.14261  0  0.993543  0  0  0.109311  0.137892  0  0.995376  0
H  H14  1  0.81738568  0.25527320  0.29087484  1  0  0.12888  0  0.93129  0  0  0.139994  0  0.994325  0  0  0.142588  0  0.99357  0  0  0.109311  0.137872  0  0.995403  0
H  H15  1  0.18261565  0.24472607  0.79087570  1  0  0.128919  0  0.931268  0  0  0.140029  0  0.994301  0  0  0.142625  0  0.993543  0  0  0.109324  0.137908  0  0.995377  0
H  H16  1  0.07433338  0.72549701  0.55605667  1  0  0.122313  0  0.917471  0  0  0.135865  0  0.978851  0  0  0.138483  0  0.977678  0  0  0.108567  0.134039  0  0.979571  0
H  H17  1  0.92566469  0.77450430  0.05605764  1  0  0.12229  0  0.91741  0  0  0.135835  0  0.978815  0  0  0.138454  0  0.977637  0  0  0.108555  0.134011  0  0.979531  0
H  H18  1  0.92566618  0.27450312  0.44394276  1  0  0.122287  0  0.917437  0  0  0.135835  0  0.978844  0  0  0.138456  0  0.977661  0  0  0.108559  0.134011  0  0.979561  0
H  H19  1  0.07433604  0.22549468  0.94394275  1  0  0.122301  0  0.917412  0  0  0.135854  0  0.978804  0  0  0.138473  0  0.977629  0  0  0.108564  0.134031  0  0.979521  0
C  C20  1  0.46567875  0.72316456  0.52149116  1  0  0.366999  0  3.725166  0  0  0.341896  0  3.988836  0  0  0.355616  0  4.006002  0  0  0.233115  0.332384  0  3.977202  0
C  C21  1  0.53432114  0.77683797  0.02149043  1  0  0.367035  0  3.725143  0  0  0.341958  0  3.988771  0  0  0.355678  0  4.005939  0  0  0.233103  0.332447  0  3.977139  0
C  C22  1  0.53432257  0.27683671  0.47850923  1  0  0.367033  0  3.72509  0  0  0.341951  0  3.988731  0  0  0.35567  0  4.005899  0  0  0.233097  0.332441  0  3.9771  0
C  C23  1  0.46567842  0.22316216  0.97850901  1  0  0.367024  0  3.725142  0  0  0.341953  0  3.988759  0  0  0.355674  0  4.005925  0  0  0.233094  0.332442  0  3.97713  0
C  C24  1  0.31496159  0.59976866  0.58024989  1  0  -0.183359  0  3.714631  0  0  -0.226899  0  3.966249  0  0  -0.228348  0  3.975804  0  0  -0.157184  -0.225497  0  3.959156  0
C  C25  1  0.68503644  0.90023260  0.08024986  1  0  -0.183366  0  3.714749  0  0  -0.226943  0  3.966406  0  0  -0.228394  0  3.975962  0  0  -0.157151  -0.225542  0  3.959312  0
C  C26  1  0.68503797  0.40023147  0.41974859  1  0  -0.183313  0  3.714628  0  0  -0.226821  0  3.966197  0  0  -0.228269  0  3.975753  0  0  -0.157146  -0.225419  0  3.959103  0
C  C27  1  0.31496283  0.09976638  0.91974958  1  0  -0.183305  0  3.714708  0  0  -0.226855  0  3.966337  0  0  -0.228307  0  3.975894  0  0  -0.157126  -0.225453  0  3.959243  0
C  C28  1  0.13686589  0.66229127  0.63132111  1  0  -0.274249  0  3.669413  0  0  -0.313817  0  3.922387  0  0  -0.320845  0  3.930563  0  0  -0.160906  -0.308298  0  3.916285  0
C  C29  1  0.86313204  0.83770988  0.13132107  1  0  -0.274239  0  3.669393  0  0  -0.3138  0  3.922292  0  0  -0.320828  0  3.93047  0  0  -0.160893  -0.30828  0  3.91619  0
C  C30  1  0.86313367  0.33770886  0.36867832  1  0  -0.274209  0  3.66932  0  0  -0.313799  0  3.922317  0  0  -0.320827  0  3.930494  0  0  -0.160891  -0.308277  0  3.916217  0
C  C31  1  0.13686723  0.16228910  0.86867836  1  0  -0.274309  0  3.669396  0  0  -0.3139  0  3.922357  0  0  -0.320928  0  3.930531  0  0  -0.160938  -0.30838  0  3.916259  0
C  C32  1  0.97091013  0.54010931  0.68147967  1  0  0.725865  0  3.782395  0  0  0.672928  0  4.077502  0  0  0.707669  0  4.070047  0  0  0.224645  0.648901  0  4.082094  0
C  C33  1  0.02908917  0.95989173  0.18147992  1  0  0.725794  0  3.78229  0  0  0.672921  0  4.077311  0  0  0.70766  0  4.069857  0  0  0.22464  0.648895  0  4.081902  0
C  C34  1  0.02908943  0.45989082  0.31852072  1  0  0.725872  0  3.782332  0  0  0.672938  0  4.077445  0  0  0.707678  0  4.069991  0  0  0.224654  0.648911  0  4.082039  0
C  C35  1  0.97091156  0.04010725  0.81852143  1  0  0.725936  0  3.782178  0  0  0.673045  0  4.077222  0  0  0.707784  0  4.069766  0  0  0.22468  0.649018  0  4.081816  0
N  N36  1  0.62320041  0.80638850  0.58232583  1  0  -0.374764  0  3.220002  0  0  -0.302844  0  3.531084  0  0  -0.323322  0  3.54129  0  0  -0.248552  -0.288498  0  3.524148  0
N  N37  1  0.37679761  0.69361276  0.08232625  1  0  -0.374845  0  3.220023  0  0  -0.302945  0  3.531122  0  0  -0.323423  0  3.541327  0  0  -0.248592  -0.288597  0  3.524185  0
N  N38  1  0.37679945  0.19361277  0.41767361  1  0  -0.374843  0  3.220009  0  0  -0.302939  0  3.531099  0  0  -0.323418  0  3.541306  0  0  -0.248585  -0.288593  0  3.524168  0
N  N39  1  0.62320195  0.30638737  0.91767318  1  0  -0.374835  0  3.22002  0  0  -0.302922  0  3.531096  0  0  -0.3234  0  3.541298  0  0  -0.248576  -0.288575  0  3.52416  0
N  N40  1  0.71862277  0.91173646  0.49755082  1  0  -0.046276  0  2.912432  0  0  -0.050608  0  3.209258  0  0  -0.047389  0  3.219666  0  0  -0.086074  -0.052698  0  3.202368  0
N  N41  1  0.28137624  0.58826504  0.99755184  1  0  -0.046176  0  2.912378  0  0  -0.050501  0  3.209204  0  0  -0.04728  0  3.219611  0  0  -0.086015  -0.05259  0  3.202312  0
N  N42  1  0.28137855  0.08826481  0.50244862  1  0  -0.046241  0  2.912443  0  0  -0.050565  0  3.209261  0  0  -0.047346  0  3.219668  0  0  -0.086036  -0.052653  0  3.202368  0
N  N43  1  0.71862302  0.41173395  0.00244855  1  0  -0.046202  0  2.912435  0  0  -0.05052  0  3.209241  0  0  -0.047302  0  3.21965  0  0  -0.086023  -0.052609  0  3.202349  0
N  N44  1  0.62287953  0.89368039  0.38949719  1  0  -0.06016  0  2.946146  0  0  -0.051568  0  3.242347  0  0  -0.051298  0  3.254749  0  0  -0.083231  -0.05175  0  3.234647  0
N  N45  1  0.37711968  0.60632134  0.88949813  1  0  -0.06021  0  2.946188  0  0  -0.051625  0  3.242397  0  0  -0.051355  0  3.254797  0  0  -0.083265  -0.051808  0  3.234698  0
N  N46  1  0.37712178  0.10632087  0.61050225  1  0  -0.060196  0  2.946212  0  0  -0.051595  0  3.242414  0  0  -0.051325  0  3.254816  0  0  -0.083275  -0.051776  0  3.234711  0
N  N47  1  0.62287958  0.39367764  0.11050130  1  0  -0.060222  0  2.946222  0  0  -0.051621  0  3.242433  0  0  -0.051352  0  3.254837  0  0  -0.083282  -0.051802  0  3.234732  0
N  N48  1  0.46340319  0.77584190  0.40114244  1  0  -0.371316  0  3.188021  0  0  -0.298899  0  3.495036  0  0  -0.319146  0  3.505496  0  0  -0.249396  -0.285074  0  3.48816  0
N  N49  1  0.53659425  0.72415867  0.90114314  1  0  -0.371353  0  3.188112  0  0  -0.298931  0  3.495107  0  0  -0.319179  0  3.505566  0  0  -0.249395  -0.285106  0  3.48823  0
N  N50  1  0.53659637  0.22415823  0.59885699  1  0  -0.371316  0  3.18809  0  0  -0.298918  0  3.495112  0  0  -0.319165  0  3.505572  0  0  -0.249371  -0.285091  0  3.488235  0
N  N51  1  0.46340356  0.27584031  0.09885630  1  0  -0.371323  0  3.188136  0  0  -0.298939  0  3.495174  0  0  -0.319189  0  3.505635  0  0  -0.249385  -0.285116  0  3.488302  0
O  O52  1  0.81020651  0.57404583  0.72420982  1  0  -0.663748  0  2.086287  0  0  -0.594487  0  2.379577  0  0  -0.622759  0  2.362187  0  0  -0.320495  -0.574379  0  2.391078  0
O  O53  1  0.18979301  0.92595627  0.22421003  1  0  -0.663757  0  2.086277  0  0  -0.594503  0  2.379531  0  0  -0.622777  0  2.362144  0  0  -0.320497  -0.574396  0  2.391033  0
O  O54  1  0.18979451  0.42595430  0.27579057  1  0  -0.663796  0  2.086286  0  0  -0.594512  0  2.379556  0  0  -0.622786  0  2.36217  0  0  -0.320514  -0.574406  0  2.391062  0
O  O55  1  0.81020655  0.07404386  0.77578941  1  0  -0.66378  0  2.086175  0  0  -0.594515  0  2.37944  0  0  -0.622788  0  2.362049  0  0  -0.320491  -0.574407  0  2.390943  0
O  O56  1  0.98765952  0.40032631  0.67704850  1  0  -0.607668  0  2.008789  0  0  -0.520405  0  2.255048  0  0  -0.54924  0  2.243  0  0  -0.302705  -0.500413  0  2.263494  0
O  O57  1  0.01234115  0.09967549  0.17704925  1  0  -0.607596  0  2.008657  0  0  -0.5204  0  2.254938  0  0  -0.549229  0  2.242887  0  0  -0.302715  -0.500412  0  2.263386  0
O  O58  1  0.01234267  0.59967268  0.32295189  1  0  -0.607645  0  2.008724  0  0  -0.520427  0  2.255031  0  0  -0.549259  0  2.242981  0  0  -0.302732  -0.500436  0  2.263477  0
O  O59  1  0.98765724  0.90032578  0.82295305  1  0  -0.607661  0  2.008707  0  0  -0.520445  0  2.254988  0  0  -0.549277  0  2.242939  0  0  -0.302727  -0.500455  0  2.263434  0
