# generated using pymatgen
data_CuH15C19(NO2)2
_symmetry_space_group_name_H-M   'P 1'
_cell_length_a   8.43002947
_cell_length_b   9.20801936
_cell_length_c   11.51205195
_cell_angle_alpha   110.11295208
_cell_angle_beta   93.45936841
_cell_angle_gamma   87.77397385
_symmetry_Int_Tables_number   1
_chemical_formula_structural   CuH15C19(NO2)2
_chemical_formula_sum   'Cu2 H30 C38 N4 O8'
_cell_volume   837.42959333
_cell_formula_units_Z   2
loop_
 _symmetry_equiv_pos_site_id
 _symmetry_equiv_pos_as_xyz
  1  'x, y, z'
loop_
 _atom_site_type_symbol
 _atom_site_label
 _atom_site_symmetry_multiplicity
 _atom_site_fract_x
 _atom_site_fract_y
 _atom_site_fract_z
 _atom_site_occupancy
 _atom_site_hle17_bader_spin_density
 _atom_site_hle17_ddec_charge
 _atom_site_hle17_ddec_spin_density
 _atom_site_hle17_ddec_sum_bond_order
 _atom_site_hle17_magmom
 _atom_site_hse06_10hf_bader_spin_density
 _atom_site_hse06_10hf_ddec_charge
 _atom_site_hse06_10hf_ddec_spin_density
 _atom_site_hse06_10hf_ddec_sum_bond_order
 _atom_site_hse06_10hf_magmom
 _atom_site_hse06_bader_spin_density
 _atom_site_hse06_ddec_charge
 _atom_site_hse06_ddec_spin_density
 _atom_site_hse06_ddec_sum_bond_order
 _atom_site_hse06_magmom
 _atom_site_pbe_bader_spin_density
 _atom_site_pbe_cm5_charge
 _atom_site_pbe_ddec_charge
 _atom_site_pbe_ddec_spin_density
 _atom_site_pbe_ddec_sum_bond_order
 _atom_site_pbe_magmom
Cu  Cu0  1  0.12255301  0.34828463  0.21405392  1  0  0.503879  0  1.746498  0  0  0.37901  0  2.204911  0  0  0.376501  0  2.16335  0  0  0.550904  0.384264  0  2.230079  0
Cu  Cu1  1  0.87743112  0.65172108  0.78595924  1  0  0.50387  0  1.746533  0  0  0.379069  0  2.204909  0  0  0.376548  0  2.163334  0  0  0.550939  0.384335  0  2.229979  0
H  H2  1  0.80178188  0.89710293  0.24527723  1  0  0.113924  0  0.959387  0  0  0.123123  0  1.025581  0  0  0.127375  0  1.022415  0  0  0.1007  0.119946  0  1.028172  0
H  H3  1  0.19821413  0.10290246  0.75473722  1  0  0.113969  0  0.959249  0  0  0.123133  0  1.025486  0  0  0.127409  0  1.022294  0  0  0.100685  0.119956  0  1.028074  0
H  H4  1  0.65974942  0.95390265  0.61366148  1  0  0.118826  0  0.973227  0  0  0.128451  0  1.039712  0  0  0.131794  0  1.038256  0  0  0.106304  0.126067  0  1.040737  0
H  H5  1  0.34024412  0.04608530  0.38635388  1  0  0.118756  0  0.973639  0  0  0.128416  0  1.040051  0  0  0.131758  0  1.038592  0  0  0.106293  0.126032  0  1.041075  0
H  H6  1  0.95447297  0.29283785  0.55372694  1  0  0.122598  0  0.943301  0  0  0.132884  0  1.005499  0  0  0.137908  0  1.001303  0  0  0.105706  0.129188  0  1.008674  0
H  H7  1  0.04549452  0.70717200  0.44627714  1  0  0.122647  0  0.943251  0  0  0.132914  0  1.005486  0  0  0.137888  0  1.00135  0  0  0.105708  0.129237  0  1.008639  0
H  H8  1  0.50466496  0.75284078  0.50952611  1  0  0.062342  0  0.931239  0  0  0.07318  0  0.999103  0  0  0.072971  0  1.000523  0  0  0.099296  0.07284  0  0.998525  0
H  H9  1  0.49536422  0.24714891  0.49047913  1  0  0.06245  0  0.931191  0  0  0.073128  0  0.999201  0  0  0.072934  0  1.000618  0  0  0.09929  0.07278  0  0.99862  0
H  H10  1  0.70915626  0.68957084  0.51485756  1  0  0.08417  0  0.93683  0  0  0.094674  0  1.001311  0  0  0.095915  0  1.000597  0  0  0.106534  0.093618  0  1.001844  0
H  H11  1  0.29086923  0.31040411  0.48513544  1  0  0.084126  0  0.937032  0  0  0.094701  0  1.001383  0  0  0.0959  0  1.000742  0  0  0.106517  0.093664  0  1.001884  0
H  H12  1  0.79559078  0.43070604  0.35373006  1  0  0.116952  0  0.942422  0  0  0.12633  0  1.002724  0  0  0.130512  0  0.998813  0  0  0.112335  0.123383  0  1.005363  0
H  H13  1  0.20441685  0.56927218  0.64624399  1  0  0.116951  0  0.942565  0  0  0.126337  0  1.002859  0  0  0.130518  0  0.998944  0  0  0.1123  0.123391  0  1.005491  0
H  H14  1  0.70235280  0.17970360  0.19855473  1  0  0.111799  0  0.964353  0  0  0.121902  0  1.021885  0  0  0.12446  0  1.022332  0  0  0.108636  0.12029  0  1.021132  0
H  H15  1  0.29762878  0.82028916  0.80142241  1  0  0.111855  0  0.964457  0  0  0.121858  0  1.02209  0  0  0.124408  0  1.022534  0  0  0.108617  0.120241  0  1.021336  0
H  H16  1  0.41285201  0.14811115  0.13633107  1  0  0.074927  0  0.92536  0  0  0.089091  0  0.978772  0  0  0.092228  0  0.975526  0  0  0.116254  0.086713  0  0.981378  0
H  H17  1  0.58712495  0.85189509  0.86366890  1  0  0.074947  0  0.925391  0  0  0.089077  0  0.978836  0  0  0.092207  0  0.975597  0  0  0.116253  0.086699  0  0.981439  0
H  H18  1  0.30875989  0.59464882  0.36743118  1  0  0.080855  0  0.986466  0  0  0.084319  0  1.063698  0  0  0.087967  0  1.059643  0  0  0.112486  0.081773  0  1.066328  0
H  H19  1  0.69125751  0.40535496  0.63258111  1  0  0.080856  0  0.986394  0  0  0.084372  0  1.063563  0  0  0.088021  0  1.05951  0  0  0.112485  0.081827  0  1.066187  0
H  H20  1  0.78184199  0.06407505  0.80663834  1  0  0.076427  0  0.949309  0  0  0.087518  0  1.01526  0  0  0.088965  0  1.013633  0  0  0.10498  0.086258  0  1.016535  0
H  H21  1  0.21815640  0.93593022  0.19337878  1  0  0.076542  0  0.949201  0  0  0.08757  0  1.015207  0  0  0.089023  0  1.013586  0  0  0.104974  0.086303  0  1.016473  0
H  H22  1  0.60790981  0.17507359  0.78346637  1  0  0.063594  0  0.925482  0  0  0.075028  0  0.991116  0  0  0.076347  0  0.989174  0  0  0.100213  0.074155  0  0.992404  0
H  H23  1  0.39210388  0.82491808  0.21652228  1  0  0.063648  0  0.925295  0  0  0.075071  0  0.990928  0  0  0.076378  0  0.989005  0  0  0.100234  0.07419  0  0.992208  0
H  H24  1  0.59710542  0.46512278  0.90692875  1  0  0.096328  0  0.956675  0  0  0.108316  0  1.017865  0  0  0.11022  0  1.01696  0  0  0.104162  0.106854  0  1.018584  0
H  H25  1  0.40291072  0.53488792  0.09304292  1  0  0.096376  0  0.9566  0  0  0.108371  0  1.017766  0  0  0.110256  0  1.01691  0  0  0.104185  0.106917  0  1.018482  0
H  H26  1  0.68921550  0.67326128  0.10472214  1  0  0.101096  0  0.947105  0  0  0.114327  0  1.001941  0  0  0.11738  0  1.000832  0  0  0.107892  0.112116  0  1.003006  0
H  H27  1  0.31078995  0.32674592  0.89525936  1  0  0.101198  0  0.94734  0  0  0.114332  0  1.002248  0  0  0.117381  0  1.001149  0  0  0.107894  0.112125  0  1.00331  0
H  H28  1  0.92225540  0.61905621  0.22681226  1  0  0.085187  0  0.946338  0  0  0.09019  0  1.018416  0  0  0.09416  0  1.013492  0  0  0.115873  0.087305  0  1.022006  0
H  H29  1  0.07774766  0.38094997  0.77316622  1  0  0.085127  0  0.946227  0  0  0.090177  0  1.018267  0  0  0.094148  0  1.013345  0  0  0.115785  0.087285  0  1.021867  0
H  H30  1  0.96480255  0.16644943  0.98201546  1  0  0.105694  0  0.93734  0  0  0.113686  0  1.001539  0  0  0.117883  0  0.996588  0  0  0.120324  0.110569  0  1.005206  0
H  H31  1  0.03516123  0.83353726  0.01798696  1  0  0.105812  0  0.937162  0  0  0.113721  0  1.001461  0  0  0.117916  0  0.996521  0  0  0.120333  0.1106  0  1.005117  0
C  C32  1  0.97507337  0.15672305  0.30577107  1  0  0.61572  0  3.941206  0  0  0.570866  0  4.228383  0  0  0.602865  0  4.222661  0  0  0.185387  0.549558  0  4.230955  0
C  C33  1  0.02492272  0.84329513  0.69424448  1  0  0.616026  0  3.941333  0  0  0.571185  0  4.228416  0  0  0.603193  0  4.222675  0  0  0.185435  0.549872  0  4.230984  0
C  C34  1  0.88411279  0.10161022  0.39105314  1  0  -0.014937  0  3.811465  0  0  0.010602  0  4.042063  0  0  0.007677  0  4.066019  0  0  -0.021733  0.012497  0  4.025828  0
C  C35  1  0.11587850  0.89839491  0.60897579  1  0  -0.015044  0  3.811738  0  0  0.010556  0  4.042264  0  0  0.007615  0  4.066219  0  0  -0.021826  0.01246  0  4.026019  0
C  C36  1  0.79958915  0.96427369  0.34359908  1  0  -0.225852  0  3.74587  0  0  -0.263842  0  4.004668  0  0  -0.26974  0  4.023503  0  0  -0.117214  -0.260749  0  3.992499  0
C  C37  1  0.20041984  0.03572002  0.65640473  1  0  -0.225905  0  3.745879  0  0  -0.263865  0  4.004672  0  0  -0.269778  0  4.023494  0  0  -0.117159  -0.260777  0  3.992494  0
C  C38  1  0.72019381  0.91167399  0.42409984  1  0  0.291549  0  3.834667  0  0  0.287009  0  4.095518  0  0  0.299335  0  4.110628  0  0  0.0771  0.278639  0  4.085365  0
C  C39  1  0.27982230  0.08831973  0.57589732  1  0  0.291416  0  3.834384  0  0  0.286859  0  4.095319  0  0  0.299206  0  4.11041  0  0  0.077062  0.278495  0  4.08516  0
C  C40  1  0.72129681  0.99566116  0.55145628  1  0  -0.314609  0  3.726596  0  0  -0.345081  0  3.981998  0  0  -0.352884  0  3.999505  0  0  -0.124934  -0.33933  0  3.969778  0
C  C41  1  0.27871576  0.00433598  0.44854693  1  0  -0.314417  0  3.726913  0  0  -0.344961  0  3.982308  0  0  -0.352748  0  3.999777  0  0  -0.124892  -0.339218  0  3.970088  0
C  C42  1  0.80676244  0.13277972  0.59682354  1  0  0.29084  0  3.838923  0  0  0.284535  0  4.09862  0  0  0.296735  0  4.114454  0  0  0.078765  0.275938  0  4.087948  0
C  C43  1  0.19325133  0.86721852  0.40318091  1  0  0.29072  0  3.838902  0  0  0.284572  0  4.098423  0  0  0.296777  0  4.114239  0  0  0.07878  0.276003  0  4.087771  0
C  C44  1  0.88720050  0.18672597  0.51745414  1  0  -0.222558  0  3.741896  0  0  -0.257954  0  3.999398  0  0  -0.264024  0  4.018934  0  0  -0.113181  -0.253874  0  3.986598  0
C  C45  1  0.11279911  0.81328519  0.48255953  1  0  -0.222646  0  3.741541  0  0  -0.258101  0  3.999003  0  0  -0.264126  0  4.018566  0  0  -0.113163  -0.254032  0  3.986182  0
C  C46  1  0.60455570  0.69253874  0.45341732  1  0  0.044926  0  3.626005  0  0  -0.016255  0  3.883436  0  0  -0.008704  0  3.888998  0  0  -0.063382  -0.021192  0  3.8796  0
C  C47  1  0.39547229  0.30745227  0.54658304  1  0  0.044824  0  3.626421  0  0  -0.016166  0  3.883559  0  0  -0.008634  0  3.889215  0  0  -0.063309  -0.021085  0  3.879669  0
C  C48  1  0.55795920  0.53343764  0.37062243  1  0  0.01879  0  3.762335  0  0  0.042199  0  4.001227  0  0  0.036687  0  4.025068  0  0  -0.010273  0.045874  0  3.984455  0
C  C49  1  0.44204855  0.46655291  0.62936998  1  0  0.018662  0  3.762695  0  0  0.042115  0  4.001448  0  0  0.036631  0  4.025285  0  0  -0.010312  0.045772  0  3.984663  0
C  C50  1  0.67018522  0.41467943  0.32405684  1  0  -0.046628  0  3.65876  0  0  -0.075256  0  3.908146  0  0  -0.070652  0  3.925016  0  0  -0.066805  -0.078569  0  3.896568  0
C  C51  1  0.32981412  0.58530122  0.67592104  1  0  -0.04666  0  3.658507  0  0  -0.07533  0  3.907852  0  0  -0.070726  0  3.924716  0  0  -0.066883  -0.078635  0  3.896251  0
C  C52  1  0.61828852  0.27415046  0.23846561  1  0  -0.115252  0  3.753203  0  0  -0.126552  0  4.002801  0  0  -0.134501  0  4.027262  0  0  -0.085777  -0.120956  0  3.985849  0
C  C53  1  0.38170271  0.72586032  0.76152586  1  0  -0.115171  0  3.752916  0  0  -0.126398  0  4.002544  0  0  -0.134333  0  4.026994  0  0  -0.085626  -0.120801  0  3.985572  0
C  C54  1  0.45759148  0.25590320  0.20326463  1  0  0.094982  0  3.722281  0  0  0.06648  0  3.967663  0  0  0.073269  0  3.983113  0  0  0.032885  0.06197  0  3.957392  0
C  C55  1  0.54239140  0.74410192  0.79672832  1  0  0.094865  0  3.722495  0  0  0.066369  0  3.967879  0  0  0.073161  0  3.983324  0  0  0.032832  0.061861  0  3.957587  0
C  C56  1  0.39910984  0.50506889  0.33194665  1  0  0.066533  0  3.660777  0  0  0.027535  0  3.912775  0  0  0.034901  0  3.925355  0  0  0.035312  0.023386  0  3.903368  0
C  C57  1  0.60089452  0.49494469  0.66805923  1  0  0.066501  0  3.660801  0  0  0.027447  0  3.912742  0  0  0.034809  0  3.925326  0  0  0.035319  0.023293  0  3.903324  0
C  C58  1  0.73671604  0.17833499  0.80771436  1  0  0.047611  0  3.635563  0  0  -0.016785  0  3.893515  0  0  -0.008596  0  3.898577  0  0  -0.063129  -0.022171  0  3.890057  0
C  C59  1  0.26327505  0.82164626  0.19229201  1  0  0.047215  0  3.636107  0  0  -0.017067  0  3.894096  0  0  -0.008895  0  3.899198  0  0  -0.063176  -0.022377  0  3.890577  0
C  C60  1  0.77543331  0.30072050  0.93023018  1  0  0.018238  0  3.76094  0  0  0.042047  0  4.000456  0  0  0.035866  0  4.024644  0  0  -0.012326  0.045662  0  3.984745  0
C  C61  1  0.22454718  0.69928239  0.06976115  1  0  0.018371  0  3.760964  0  0  0.042104  0  4.00051  0  0  0.035934  0  4.024698  0  0  -0.012438  0.045711  0  3.984758  0
C  C62  1  0.69595976  0.44435044  0.96503204  1  0  -0.066486  0  3.724778  0  0  -0.098828  0  3.983965  0  0  -0.092024  0  3.999085  0  0  -0.076227  -0.103344  0  3.973893  0
C  C63  1  0.30403972  0.55564978  0.03495499  1  0  -0.06645  0  3.724642  0  0  -0.098755  0  3.98379  0  0  -0.091955  0  3.998904  0  0  -0.076128  -0.103285  0  3.973723  0
C  C64  1  0.74717414  0.55965991  0.07369771  1  0  -0.115936  0  3.770355  0  0  -0.130887  0  4.032234  0  0  -0.138093  0  4.052148  0  0  -0.087831  -0.126566  0  4.019032  0
C  C65  1  0.25283005  0.44033320  0.92628920  1  0  -0.116131  0  3.770503  0  0  -0.130998  0  4.032365  0  0  -0.138204  0  4.052279  0  0  -0.087912  -0.12668  0  4.019159  0
C  C66  1  0.87647750  0.52971827  0.14336499  1  0  0.117606  0  3.681354  0  0  0.081732  0  3.940159  0  0  0.08967  0  3.955153  0  0  0.037291  0.076618  0  3.930115  0
C  C67  1  0.12351725  0.47028546  0.85662546  1  0  0.117556  0  3.680728  0  0  0.081713  0  3.939506  0  0  0.089646  0  3.954491  0  0  0.037409  0.076603  0  3.929449  0
C  C68  1  0.90167972  0.27774871  0.00615643  1  0  0.078546  0  3.637983  0  0  0.040107  0  3.882472  0  0  0.047366  0  3.896228  0  0  0.044223  0.035176  0  3.873714  0
C  C69  1  0.09830188  0.72223764  0.99384232  1  0  0.078195  0  3.638763  0  0  0.039886  0  3.883212  0  0  0.047125  0  3.896976  0  0  0.044245  0.034969  0  3.874422  0
N  N70  1  0.34742374  0.36920334  0.24945240  1  0  -0.298777  0  3.450007  0  0  -0.222756  0  3.758248  0  0  -0.231042  0  3.763418  0  0  -0.379706  -0.217873  0  3.753975  0
N  N71  1  0.65256636  0.63081177  0.75055245  1  0  -0.298667  0  3.450079  0  0  -0.222604  0  3.758233  0  0  -0.230891  0  3.763402  0  0  -0.379653  -0.217717  0  3.7539  0
N  N72  1  0.95307052  0.39036356  0.11140964  1  0  -0.300571  0  3.435857  0  0  -0.222009  0  3.742595  0  0  -0.231752  0  3.750135  0  0  -0.376712  -0.216364  0  3.737099  0
N  N73  1  0.04692194  0.60964553  0.88860051  1  0  -0.300238  0  3.436044  0  0  -0.221819  0  3.742876  0  0  -0.23154  0  3.750392  0  0  -0.376712  -0.216176  0  3.737323  0
O  O74  1  0.97972278  0.07517358  0.19258998  1  0  -0.643393  0  1.897291  0  0  -0.594728  0  2.125024  0  0  -0.61713  0  2.113543  0  0  -0.342103  -0.578821  0  2.132037  0
O  O75  1  0.02027691  0.92485044  0.80742220  1  0  -0.643444  0  1.897041  0  0  -0.59484  0  2.124806  0  0  -0.61724  0  2.113305  0  0  -0.342113  -0.578933  0  2.131821  0
O  O76  1  0.04184140  0.28905099  0.35552971  1  0  -0.636184  0  2.049462  0  0  -0.567704  0  2.316096  0  0  -0.593265  0  2.30244  0  0  -0.356342  -0.550019  0  2.323975  0
O  O77  1  0.95815365  0.71098306  0.64450343  1  0  -0.636307  0  2.049891  0  0  -0.567816  0  2.316471  0  0  -0.593358  0  2.302776  0  0  -0.356382  -0.55017  0  2.324407  0
O  O78  1  0.64434393  0.77319799  0.37121438  1  0  -0.305005  0  2.292222  0  0  -0.233856  0  2.527866  0  0  -0.252492  0  2.531211  0  0  -0.188178  -0.221574  0  2.525016  0
O  O79  1  0.35567339  0.22679545  0.62879231  1  0  -0.304805  0  2.292015  0  0  -0.233765  0  2.527678  0  0  -0.252417  0  2.531045  0  0  -0.188167  -0.221497  0  2.524818  0
O  O80  1  0.81878157  0.22369767  0.71918996  1  0  -0.297782  0  2.3258  0  0  -0.222683  0  2.564763  0  0  -0.242084  0  2.568326  0  0  -0.177735  -0.209271  0  2.562  0
O  O81  1  0.18123806  0.77628768  0.28081187  1  0  -0.297563  0  2.326598  0  0  -0.222534  0  2.565519  0  0  -0.241917  0  2.569071  0  0  -0.177692  -0.209223  0  2.562809  0
