# generated using pymatgen
data_Hf3H22C22(NO8)2
_symmetry_space_group_name_H-M   'P 1'
_cell_length_a   12.54181420
_cell_length_b   16.68352312
_cell_length_c   16.76970180
_cell_angle_alpha   82.05361241
_cell_angle_beta   67.34547119
_cell_angle_gamma   68.26750947
_symmetry_Int_Tables_number   1
_chemical_formula_structural   Hf3H22C22(NO8)2
_chemical_formula_sum   'Hf6 H44 C44 N4 O32'
_cell_volume   3007.98551673
_cell_formula_units_Z   2
loop_
 _symmetry_equiv_pos_site_id
 _symmetry_equiv_pos_as_xyz
  1  'x, y, z'
loop_
 _atom_site_type_symbol
 _atom_site_label
 _atom_site_symmetry_multiplicity
 _atom_site_fract_x
 _atom_site_fract_y
 _atom_site_fract_z
 _atom_site_occupancy
 _atom_site_pbe_bader_charge
 _atom_site_pbe_bader_spin_density
 _atom_site_pbe_cm5_charge
 _atom_site_pbe_ddec_charge
 _atom_site_pbe_ddec_spin_density
 _atom_site_pbe_ddec_sum_bond_order
 _atom_site_pbe_magmom
Hf  Hf0  1  0.04411670  0.03333634  0.88811384  1  2.597782  0  1.422165  2.116959  0  3.419738  0
Hf  Hf1  1  0.05130990  0.86721272  0.04041761  1  2.598003  0  1.435451  2.120722  0  3.404987  0
Hf  Hf2  1  0.81862909  0.17921367  0.05472110  1  2.591286  0  1.426696  2.115904  0  3.444545  0
Hf  Hf3  1  0.82275652  0.00990313  0.20660381  1  2.601157  0  1.434689  2.129658  0  3.415395  0
Hf  Hf4  1  0.77236960  0.99440595  0.01610741  1  2.620375  0  1.480072  2.119543  0  3.338583  0
Hf  Hf5  1  0.09696277  0.05196937  0.07770400  1  2.625638  0  1.47979  2.121382  0  3.334746  0
H  H6  1  0.83109648  0.00340035  0.55600256  1  0.090257  0  0.106988  0.120555  0  1.016222  0
H  H7  1  0.68948881  0.00328732  0.47037967  1  0.117272  0  0.114443  0.143952  0  1.002853  0
H  H8  1  0.04184259  0.01353212  0.53994484  1  0.068377  0  0.105651  0.119654  0  1.023491  0
H  H9  1  0.18457234  0.00761101  0.62846320  1  0.107096  0  0.105586  0.127186  0  1.036687  0
H  H10  1  0.85376082  0.52822567  0.99165237  1  0.089249  0  0.109616  0.126985  0  1.002505  0
H  H11  1  0.70173370  0.44034984  0.01448649  1  0.081513  0  0.107333  0.133955  0  1.030949  0
H  H12  1  0.02088306  0.51838145  0.09227095  1  0.088487  0  0.108694  0.127001  0  1.004053  0
H  H13  1  0.17307185  0.60456434  0.07528715  1  0.102804  0  0.105467  0.125768  0  1.031898  0
H  H14  1  0.24258714  0.92557671  0.92380485  1  0.612874  0  0.332217  0.421613  0  0.855496  0
H  H15  1  0.81377961  0.86532940  0.14148832  1  0.620998  0  0.336386  0.417197  0  0.85405  0
H  H16  1  0.86845331  0.15706707  0.21084860  1  0.621091  0  0.336691  0.430441  0  0.841908  0
H  H17  1  0.80041054  0.14791303  0.90722133  1  0.61408  0  0.334914  0.428346  0  0.844099  0
H  H18  1  0.99886117  0.73597161  0.13417027  1  0.580588  0  0.288335  0.370259  0  0.945875  0
H  H19  1  0.94365626  0.83153132  0.22175289  1  0.627054  0  0.287979  0.39642  0  0.942446  0
H  H20  1  0.62113804  0.11658081  0.31451473  1  0.583001  0  0.286024  0.378188  0  0.931037  0
H  H21  1  0.70749583  0.32351811  0.15467686  1  0.644696  0  0.333769  0.411456  0  0.87406  0
H  H22  1  0.84872986  0.30488242  0.94762247  1  0.58216  0  0.284918  0.381608  0  0.927618  0
H  H23  1  0.02412077  0.12539334  0.74507544  1  0.649968  0  0.334255  0.413252  0  0.874046  0
H  H24  1  0.16780732  0.92183306  0.76158330  1  0.576438  0  0.287684  0.383802  0  0.923242  0
H  H25  1  0.26601539  0.73522188  0.94765439  1  0.614426  0  0.339291  0.416782  0  0.865251  0
H  H26  1  0.60551730  0.28922535  0.15388941  1  0.64121  0  0.32795  0.407645  0  0.89499  0
H  H27  1  0.11348893  0.14970444  0.77596916  1  0.640964  0  0.333714  0.418082  0  0.874408  0
H  H28  1  0.14892658  0.73601361  0.93046548  1  0.649897  0  0.328439  0.415771  0  0.8868  0
H  H29  1  0.91422213  0.88582953  0.30469144  1  0.609659  0  0.322978  0.403504  0  0.892673  0
H  H30  1  0.21038393  0.26560254  0.08503405  1  0.118126  0  0.113776  0.118436  0  1.018912  0
H  H31  1  0.96824705  0.39596283  0.07253866  1  0.064794  0  0.099343  0.116243  0  1.01793  0
H  H32  1  0.47746812  0.33432875  0.06895799  1  0.130477  0  0.120266  0.085648  0  1.058802  0
H  H33  1  0.38973670  0.20626714  0.01858037  1  0.100667  0  0.117754  0.155673  0  0.994648  0
H  H34  1  0.47569421  0.84036395  0.08164186  1  0.113195  0  0.11671  0.155328  0  0.996588  0
H  H35  1  0.38585441  0.70779203  0.04271828  1  0.116528  0  0.116924  0.082923  0  1.068971  0
H  H36  1  0.65749161  0.78039399  0.01684712  1  0.1194  0  0.113459  0.11926  0  1.016262  0
H  H37  1  0.91581281  0.64848289  0.99401283  1  0.048514  0  0.098221  0.116467  0  1.018139  0
H  H38  1  0.35652612  0.60817109  0.09636436  1  0.06633  0  0.111485  0.120575  0  1.000322  0
H  H39  1  0.51553641  0.43311789  0.00524999  1  0.111806  0  0.113443  0.125568  0  0.996549  0
H  H40  1  0.21587162  0.04935485  0.29149265  1  0.110214  0  0.114354  0.119947  0  1.006093  0
H  H41  1  0.01083633  0.98170162  0.41152996  1  0.060439  0  0.101746  0.119067  0  1.012449  0
H  H42  1  0.39436502  0.97945035  0.22960745  1  0.098356  0  0.114346  0.151719  0  1.006279  0
H  H43  1  0.49724825  0.01151036  0.35651567  1  0.137549  0  0.124437  0.094987  0  1.0612  0
H  H44  1  0.46811715  0.07466843  0.86207265  1  0.083989  0  0.113425  0.150737  0  1.004538  0
H  H45  1  0.36679654  0.02671880  0.74231324  1  0.142999  0  0.121616  0.09739  0  1.061123  0
H  H46  1  0.64859762  0.99560790  0.80881508  1  0.095945  0  0.114521  0.120396  0  1.004654  0
H  H47  1  0.87951354  0.02650651  0.67434782  1  0.061815  0  0.097189  0.114508  0  1.026338  0
H  H48  1  0.36998154  0.99034875  0.64589548  1  0.115142  0  0.108429  0.121999  0  1.022358  0
H  H49  1  0.50017952  0.03024131  0.45695722  1  0.089386  0  0.11137  0.116882  0  1.019258  0
C  C50  1  0.66764544  0.01174840  0.67384823  1  0.319356  0  0.077419  0.12674  0  4.002195  0
C  C51  1  0.73532216  0.00795393  0.58474957  1  -0.067588  0  -0.095382  -0.169372  0  3.995598  0
C  C52  1  0.66213556  0.00629842  0.54011246  1  -0.016351  0  -0.099912  -0.187895  0  3.973423  0
C  C53  1  0.54727868  0.00820204  0.60126142  1  0.331434  0  0.087449  0.151961  0  3.994465  0
C  C54  1  0.20217113  0.01617563  0.42409603  1  0.316122  0  0.079186  0.132772  0  4.008641  0
C  C55  1  0.13637972  0.01192699  0.51260024  1  -0.030783  0  -0.101074  -0.179515  0  4.00681  0
C  C56  1  0.20984959  0.01014719  0.55865770  1  -0.035402  0  -0.110605  -0.204543  0  3.996219  0
C  C57  1  0.32278076  0.01362640  0.49901620  1  0.305992  0  0.084353  0.150653  0  3.997121  0
C  C58  1  0.68525436  0.64381741  0.02179222  1  0.323493  0  0.078328  0.131188  0  4.007592  0
C  C59  1  0.75453552  0.55550781  0.00906546  1  -0.030412  0  -0.100613  -0.180474  0  4.003166  0
C  C60  1  0.67596251  0.50981008  0.02010478  1  0.010267  0  -0.106529  -0.197845  0  3.990419  0
C  C61  1  0.55602996  0.56959246  0.04052376  1  0.298031  0  0.082756  0.147076  0  4.008608  0
C  C62  1  0.18671425  0.40169326  0.07131641  1  0.261779  0  0.080682  0.13655  0  4.005916  0
C  C63  1  0.11899110  0.49033817  0.07971010  1  -0.006023  0  -0.102814  -0.186349  0  4.006256  0
C  C64  1  0.19770975  0.53510178  0.07188435  1  -0.027453  0  -0.110261  -0.203655  0  4.008793  0
C  C65  1  0.31581509  0.47442444  0.05775186  1  0.339432  0  0.081187  0.144659  0  4.015163  0
C  C66  1  0.85251117  0.00724579  0.81052328  1  1.504873  0  0.219524  0.662732  0  4.141321  0
C  C67  1  0.29740641  0.86201379  0.07006245  1  1.561262  0  0.229707  0.674173  0  4.116501  0
C  C68  1  0.87219744  0.78749034  0.99539899  1  1.513454  0  0.21763  0.655041  0  4.147327  0
C  C69  1  0.27907456  0.07758174  0.89076660  1  1.550515  0  0.227713  0.675238  0  4.129062  0
C  C70  1  0.00520391  0.25769498  0.08446494  1  1.517525  0  0.221658  0.66259  0  4.139164  0
C  C71  1  0.57954875  0.98253454  0.20329838  1  1.554583  0  0.227694  0.671433  0  4.12524  0
C  C72  1  0.02833452  0.02060307  0.27954968  1  1.516166  0  0.225682  0.662528  0  4.13471  0
C  C73  1  0.56218048  0.17947187  0.04104458  1  1.556754  0  0.230384  0.674074  0  4.119409  0
C  C74  1  0.14753572  0.32995067  0.07904688  1  -0.008322  0  -0.07394  -0.085658  0  4.02452  0
C  C75  1  0.03687900  0.33491415  0.07970782  1  -0.028306  0  -0.109981  -0.260636  0  3.933476  0
C  C76  1  0.40879232  0.31950969  0.05523044  1  0.304635  0  0.034264  0.058896  0  4.00268  0
C  C77  1  0.44019909  0.23559501  0.03817197  1  0.017895  0  -0.107756  -0.317661  0  3.899731  0
C  C78  1  0.42305905  0.80810480  0.06852071  1  0.040775  0  -0.109279  -0.319307  0  3.898908  0
C  C79  1  0.45741918  0.72392542  0.05094940  1  0.251579  0  0.03069  0.055112  0  4.010356  0
C  C80  1  0.72492174  0.71548504  0.01245883  1  -0.030561  0  -0.074672  -0.084921  0  4.02083  0
C  C81  1  0.84163940  0.71014663  0.99829117  1  -0.032026  0  -0.11559  -0.272481  0  3.938708  0
C  C82  1  0.44127856  0.55725354  0.06069193  1  -0.030076  0  -0.096561  -0.162553  0  4.043276  0
C  C83  1  0.43117152  0.48506375  0.03978958  1  -0.090144  0  -0.093578  -0.157826  0  4.034343  0
C  C84  1  0.16445644  0.02507566  0.35218451  1  -0.085665  0  -0.075705  -0.090311  0  4.031666  0
C  C85  1  0.06610467  0.00774962  0.35420305  1  0.033656  0  -0.108613  -0.261435  0  3.940442  0
C  C86  1  0.45199167  0.98905269  0.25926096  1  -0.004896  0  -0.11651  -0.332377  0  3.908762  0
C  C87  1  0.42183196  0.00659294  0.34298122  1  0.326149  0  0.037035  0.063754  0  3.993786  0
C  C88  1  0.40869133  0.06448078  0.83440932  1  0.064202  0  -0.117165  -0.333293  0  3.919162  0
C  C89  1  0.44147197  0.03458079  0.75456860  1  0.247288  0  0.035435  0.060781  0  3.991705  0
C  C90  1  0.70726067  0.00717881  0.74402596  1  0.007908  0  -0.073483  -0.082925  0  4.016887  0
C  C91  1  0.81573104  0.01385753  0.73629246  1  -0.040427  0  -0.117489  -0.275517  0  3.940241  0
C  C92  1  0.44167525  0.00475610  0.58996542  1  -0.030078  0  -0.091501  -0.152019  0  4.012448  0
C  C93  1  0.42746039  0.01628186  0.51210509  1  -0.032694  0  -0.092765  -0.1542  0  4.022681  0
N  N94  1  0.55039669  0.01351306  0.68355143  1  -1.238458  0  -0.220143  -0.015588  0  3.710765  0
N  N95  1  0.31751064  0.01626038  0.41603377  1  -1.231887  0  -0.220341  -0.011181  0  3.724643  0
N  N96  1  0.56225169  0.65187091  0.04149508  1  -1.213472  0  -0.221106  -0.014064  0  3.71939  0
N  N97  1  0.30796761  0.39263818  0.05802009  1  -1.231912  0  -0.222101  -0.012862  0  3.726847  0
O  O98  1  0.95406536  0.01937891  0.79628675  1  -1.194478  0  -0.349065  -0.632491  0  2.282413  0
O  O99  1  0.78176884  0.99125655  0.88478365  1  -1.186167  0  -0.356774  -0.589655  0  2.321981  0
O  O100  1  0.23445482  0.82391272  0.05557428  1  -1.202175  0  -0.353637  -0.615227  0  2.345436  0
O  O101  1  0.26172180  0.94239578  0.08463400  1  -1.162015  0  -0.33466  -0.569693  0  2.276372  0
O  O102  1  0.97965003  0.77510754  0.99657125  1  -1.204937  0  -0.347979  -0.644258  0  2.293569  0
O  O103  1  0.79045385  0.86146102  0.99628052  1  -1.185577  0  -0.343463  -0.574147  0  2.310128  0
O  O104  1  0.20137250  0.08818123  0.85480808  1  -1.197669  0  -0.341501  -0.605673  0  2.314176  0
O  O105  1  0.25456227  0.07357796  0.97236538  1  -1.164271  0  -0.348416  -0.582532  0  2.278565  0
O  O106  1  0.18817983  0.95902690  0.78876318  1  -1.234749  0  -0.687476  -0.946671  0  1.877031  0
O  O107  1  0.02962069  0.14905685  0.79297151  1  -1.240022  0  -0.565563  -0.739828  0  2.062021  0
O  O108  1  0.19802507  0.77082969  0.92942722  1  -1.217371  0  -0.56467  -0.74414  0  2.06458  0
O  O109  1  0.04013864  0.77345143  0.13840246  1  -1.243198  0  -0.65154  -0.904711  0  1.927369  0
O  O110  1  0.96281310  0.94819190  0.96098788  1  -1.217817  0  -0.754072  -1.059398  0  2.162567  0
O  O111  1  0.15784334  0.95345702  0.96150931  1  -1.252165  0  -0.64333  -0.96388  0  2.286501  0
O  O112  1  0.90217811  0.27038905  0.07666788  1  -1.198766  0  -0.348617  -0.626283  0  2.316288  0
O  O113  1  0.08081856  0.18401325  0.09412370  1  -1.183094  0  -0.349681  -0.584057  0  2.310301  0
O  O114  1  0.64938983  0.98551753  0.24094575  1  -1.202367  0  -0.3566  -0.613905  0  2.379931  0
O  O115  1  0.61141509  0.97450258  0.12173810  1  -1.186256  0  -0.346944  -0.58177  0  2.26239  0
O  O116  1  0.93540391  0.99981338  0.29000724  1  -1.180022  0  -0.333211  -0.586865  0  2.302517  0
O  O117  1  0.08911056  0.05117735  0.20948179  1  -1.186826  0  -0.359587  -0.59884  0  2.301219  0
O  O118  1  0.61731825  0.21246806  0.07015254  1  -1.200559  0  -0.339205  -0.598824  0  2.349284  0
O  O119  1  0.60556250  0.10268970  0.01183645  1  -1.170958  0  -0.340164  -0.575441  0  2.270516  0
O  O120  1  0.67807663  0.27476057  0.16972857  1  -1.238365  0  -0.565338  -0.735388  0  2.064912  0
O  O121  1  0.78556191  0.27868037  0.97124453  1  -1.242931  0  -0.696464  -0.952574  0  1.861917  0
O  O122  1  0.70755113  0.09151131  0.30710264  1  -1.229977  0  -0.691653  -0.928788  0  1.857461  0
O  O123  1  0.87525613  0.87603436  0.26816811  1  -1.224441  0  -0.593029  -0.77192  0  2.048172  0
O  O124  1  0.88952582  0.12135397  0.16216022  1  -1.256258  0  -0.645115  -0.96782  0  2.288224  0
O  O125  1  0.77238805  0.06864431  0.10371527  1  -1.219326  0  -0.756753  -1.071846  0  2.200868  0
O  O126  1  0.99995072  0.10637888  0.99780028  1  -1.220674  0  -0.75526  -1.067661  0  2.184473  0
O  O127  1  0.85145549  0.90806882  0.11341029  1  -1.257802  0  -0.658444  -0.974035  0  2.368211  0
O  O128  1  0.83940884  0.10810369  0.94421168  1  -1.250601  0  -0.646075  -0.964392  0  2.290568  0
O  O129  1  0.01032884  0.96288574  0.11963850  1  -1.21442  0  -0.760025  -1.066117  0  2.205683  0
