# generated using pymatgen
data_AgH3(C3O)2
_symmetry_space_group_name_H-M   'P 1'
_cell_length_a   6.10852571
_cell_length_b   10.69303379
_cell_length_c   16.84964109
_cell_angle_alpha   98.59427502
_cell_angle_beta   90.00219510
_cell_angle_gamma   90.00208828
_symmetry_Int_Tables_number   1
_chemical_formula_structural   AgH3(C3O)2
_chemical_formula_sum   'Ag8 H24 C48 O16'
_cell_volume   1088.23793076
_cell_formula_units_Z   8
loop_
 _symmetry_equiv_pos_site_id
 _symmetry_equiv_pos_as_xyz
  1  'x, y, z'
loop_
 _atom_site_type_symbol
 _atom_site_label
 _atom_site_symmetry_multiplicity
 _atom_site_fract_x
 _atom_site_fract_y
 _atom_site_fract_z
 _atom_site_occupancy
 _atom_site_hle17_bader_spin_density
 _atom_site_hle17_ddec_charge
 _atom_site_hle17_ddec_spin_density
 _atom_site_hle17_ddec_sum_bond_order
 _atom_site_hle17_magmom
 _atom_site_hse06_10hf_bader_spin_density
 _atom_site_hse06_10hf_ddec_charge
 _atom_site_hse06_10hf_ddec_spin_density
 _atom_site_hse06_10hf_ddec_sum_bond_order
 _atom_site_hse06_10hf_magmom
 _atom_site_hse06_bader_spin_density
 _atom_site_hse06_ddec_charge
 _atom_site_hse06_ddec_spin_density
 _atom_site_hse06_ddec_sum_bond_order
 _atom_site_hse06_magmom
 _atom_site_pbe_bader_spin_density
 _atom_site_pbe_cm5_charge
 _atom_site_pbe_ddec_charge
 _atom_site_pbe_ddec_spin_density
 _atom_site_pbe_ddec_sum_bond_order
 _atom_site_pbe_magmom
Ag  Ag0  1  0.66937248  0.58684862  0.57339732  1  0  0.621587  0  1.390519  0  0  0.512479  0  1.836407  0  0  0.547721  0  1.776077  0  0  0.425688  0.487389  0  1.878637  0
Ag  Ag1  1  0.16947242  0.91313829  0.42662184  1  0  0.62171  0  1.390409  0  0  0.512625  0  1.836225  0  0  0.547859  0  1.77591  0  0  0.425766  0.487538  0  1.878443  0
Ag  Ag2  1  0.33062523  0.41315054  0.42660831  1  0  0.62162  0  1.390422  0  0  0.512502  0  1.836307  0  0  0.547744  0  1.775981  0  0  0.425714  0.487408  0  1.878534  0
Ag  Ag3  1  0.83054821  0.08686324  0.57336505  1  0  0.621664  0  1.390529  0  0  0.512577  0  1.836378  0  0  0.547813  0  1.77606  0  0  0.425752  0.487489  0  1.878603  0
Ag  Ag4  1  0.04967479  0.72234081  0.53947617  1  0  0.605682  0  1.482545  0  0  0.494729  0  1.941236  0  0  0.528666  0  1.878075  0  0  0.423169  0.471754  0  1.984866  0
Ag  Ag5  1  0.54979484  0.77765228  0.46055801  1  0  0.605597  0  1.482788  0  0  0.4946  0  1.941615  0  0  0.528547  0  1.87843  0  0  0.423143  0.471619  0  1.985275  0
Ag  Ag6  1  0.95031473  0.27765636  0.46053341  1  0  0.605664  0  1.482527  0  0  0.494722  0  1.941187  0  0  0.528649  0  1.878019  0  0  0.423176  0.471749  0  1.98482  0
Ag  Ag7  1  0.45020942  0.22234535  0.53943322  1  0  0.605629  0  1.482828  0  0  0.49465  0  1.94161  0  0  0.528586  0  1.878417  0  0  0.423128  0.471674  0  1.985257  0
H  H8  1  0.32214317  0.67268076  0.69939956  1  0  0.122005  0  0.962918  0  0  0.127891  0  1.031364  0  0  0.132208  0  1.027761  0  0  0.104849  0.124738  0  1.034128  0
H  H9  1  0.82217970  0.82732706  0.30061602  1  0  0.122236  0  0.962821  0  0  0.128134  0  1.031213  0  0  0.132452  0  1.027619  0  0  0.104893  0.124979  0  1.033974  0
H  H10  1  0.67788074  0.32732282  0.30061900  1  0  0.12195  0  0.962842  0  0  0.127828  0  1.031348  0  0  0.132142  0  1.027756  0  0  0.104797  0.124673  0  1.034117  0
H  H11  1  0.17783110  0.17267313  0.69938675  1  0  0.122287  0  0.962869  0  0  0.128174  0  1.031263  0  0  0.1325  0  1.027668  0  0  0.104926  0.125017  0  1.034023  0
H  H12  1  0.33329030  0.83653405  0.81869449  1  0  0.102366  0  0.957706  0  0  0.111201  0  1.020362  0  0  0.113706  0  1.0205  0  0  0.101449  0.109291  0  1.020543  0
H  H13  1  0.83332273  0.66348971  0.18130089  1  0  0.102448  0  0.957737  0  0  0.111242  0  1.020432  0  0  0.113748  0  1.020559  0  0  0.101453  0.109336  0  1.020619  0
H  H14  1  0.66673688  0.16346301  0.18131923  1  0  0.102275  0  0.957886  0  0  0.111181  0  1.020451  0  0  0.113647  0  1.020626  0  0  0.101422  0.109271  0  1.02063  0
H  H15  1  0.16668317  0.33650688  0.81869379  1  0  0.102327  0  0.957759  0  0  0.111145  0  1.020449  0  0  0.113652  0  1.020567  0  0  0.101417  0.10924  0  1.020634  0
H  H16  1  0.16004462  0.94117959  0.94469550  1  0  0.081626  0  0.961296  0  0  0.094148  0  1.020363  0  0  0.09681  0  1.019378  0  0  0.097384  0.092296  0  1.021059  0
H  H17  1  0.66007564  0.55885995  0.05529525  1  0  0.081781  0  0.96117  0  0  0.094218  0  1.020303  0  0  0.096878  0  1.019324  0  0  0.097496  0.092375  0  1.020997  0
H  H18  1  0.83992690  0.05882720  0.05530856  1  0  0.081654  0  0.961328  0  0  0.094244  0  1.020318  0  0  0.096908  0  1.019334  0  0  0.097419  0.092391  0  1.021018  0
H  H19  1  0.33988933  0.44114406  0.94470614  1  0  0.081788  0  0.961131  0  0  0.094233  0  1.020252  0  0  0.096893  0  1.019272  0  0  0.097524  0.092388  0  1.020946  0
H  H20  1  0.81611701  0.85126298  0.99526528  1  0  0.081295  0  0.961002  0  0  0.093184  0  1.021574  0  0  0.095773  0  1.020737  0  0  0.097255  0.091336  0  1.022188  0
H  H21  1  0.31616040  0.64876841  0.00471115  1  0  0.081143  0  0.961158  0  0  0.093066  0  1.021692  0  0  0.095672  0  1.020836  0  0  0.097205  0.091217  0  1.022311  0
H  H22  1  0.18384632  0.14873838  0.00472811  1  0  0.081212  0  0.961189  0  0  0.093168  0  1.021672  0  0  0.095739  0  1.020852  0  0  0.097231  0.09132  0  1.022283  0
H  H23  1  0.68379802  0.35123334  0.99530484  1  0  0.080992  0  0.961328  0  0  0.092907  0  1.021864  0  0  0.09552  0  1.021009  0  0  0.097172  0.091061  0  1.022482  0
H  H24  1  0.65667293  0.65514306  0.92293845  1  0  0.088124  0  0.970229  0  0  0.098976  0  1.034373  0  0  0.101399  0  1.033998  0  0  0.097997  0.09718  0  1.034924  0
H  H25  1  0.15673212  0.84487578  0.07704239  1  0  0.088091  0  0.970268  0  0  0.098962  0  1.034385  0  0  0.101383  0  1.034008  0  0  0.098009  0.097164  0  1.034935  0
H  H26  1  0.34331004  0.34485442  0.07705870  1  0  0.088134  0  0.970213  0  0  0.098978  0  1.034365  0  0  0.101401  0  1.03399  0  0  0.097978  0.097182  0  1.034916  0
H  H27  1  0.84323940  0.15511925  0.92297706  1  0  0.088287  0  0.970214  0  0  0.099129  0  1.034322  0  0  0.101551  0  1.033947  0  0  0.098096  0.097331  0  1.034865  0
H  H28  1  0.66852975  0.47688176  0.81038317  1  0  0.099937  0  0.958464  0  0  0.110725  0  1.021113  0  0  0.112778  0  1.021851  0  0  0.101313  0.1093  0  1.020751  0
H  H29  1  0.16856221  0.02309680  0.18958804  1  0  0.099993  0  0.958482  0  0  0.110767  0  1.021133  0  0  0.11282  0  1.021871  0  0  0.10136  0.109342  0  1.020772  0
H  H30  1  0.33148760  0.52310266  0.18960489  1  0  0.099931  0  0.958664  0  0  0.110744  0  1.021274  0  0  0.112798  0  1.02201  0  0  0.101333  0.109321  0  1.020915  0
H  H31  1  0.83143223  0.97689790  0.81040645  1  0  0.099973  0  0.958564  0  0  0.110755  0  1.021197  0  0  0.112806  0  1.021935  0  0  0.101362  0.109329  0  1.020832  0
C  C32  1  0.16960364  0.46479736  0.60125868  1  0  0.643426  0  3.883073  0  0  0.586137  0  4.1667  0  0  0.62375  0  4.161235  0  0  0.196496  0.559966  0  4.170182  0
C  C33  1  0.66961650  0.03521548  0.39874580  1  0  0.643353  0  3.88272  0  0  0.585946  0  4.166556  0  0  0.623558  0  4.161094  0  0  0.196407  0.559774  0  4.170036  0
C  C34  1  0.83043500  0.53521321  0.39874577  1  0  0.643767  0  3.8828  0  0  0.586438  0  4.16656  0  0  0.624064  0  4.161083  0  0  0.196503  0.56027  0  4.170046  0
C  C35  1  0.33038285  0.96478285  0.60125500  1  0  0.643409  0  3.882785  0  0  0.586087  0  4.1665  0  0  0.623704  0  4.161035  0  0  0.196458  0.559916  0  4.169983  0
C  C36  1  0.08476246  0.52204853  0.68131640  1  0  -0.107237  0  3.7793  0  0  -0.091798  0  4.024782  0  0  -0.101752  0  4.046705  0  0  -0.026488  -0.085177  0  4.010211  0
C  C37  1  0.58479119  0.97797403  0.31867250  1  0  -0.106997  0  3.77834  0  0  -0.091506  0  4.023959  0  0  -0.101444  0  4.045865  0  0  -0.026404  -0.084883  0  4.009383  0
C  C38  1  0.91526144  0.47796211  0.31868509  1  0  -0.107074  0  3.778913  0  0  -0.091632  0  4.024413  0  0  -0.101574  0  4.046312  0  0  -0.0264  -0.085006  0  4.00984  0
C  C39  1  0.41520980  0.02203670  0.68132544  1  0  -0.10715  0  3.778488  0  0  -0.09164  0  4.024048  0  0  -0.101581  0  4.045954  0  0  -0.026388  -0.08502  0  4.009476  0
C  C40  1  0.17939552  0.62958130  0.72343827  1  0  -0.08459  0  3.658574  0  0  -0.118625  0  3.912021  0  0  -0.115297  0  3.927394  0  0  -0.076679  -0.120783  0  3.90183  0
C  C41  1  0.67942474  0.87042909  0.27656147  1  0  -0.085172  0  3.658153  0  0  -0.119196  0  3.91163  0  0  -0.115884  0  3.927012  0  0  -0.076796  -0.121342  0  3.901428  0
C  C42  1  0.82063166  0.37041689  0.27656845  1  0  -0.084588  0  3.65835  0  0  -0.118664  0  3.911834  0  0  -0.115341  0  3.927207  0  0  -0.076676  -0.120822  0  3.901646  0
C  C43  1  0.32057788  0.12958338  0.72344259  1  0  -0.085045  0  3.658593  0  0  -0.119075  0  3.912044  0  0  -0.115771  0  3.927433  0  0  -0.076784  -0.121216  0  3.90184  0
C  C44  1  0.09337854  0.68580234  0.79835133  1  0  0.0562  0  3.77107  0  0  0.075864  0  3.993051  0  0  0.073771  0  4.017135  0  0  -0.006105  0.077042  0  3.976734  0
C  C45  1  0.59342804  0.81419882  0.20163006  1  0  0.056277  0  3.770828  0  0  0.075906  0  3.992816  0  0  0.073819  0  4.016898  0  0  -0.006235  0.077068  0  3.97652  0
C  C46  1  0.90661917  0.31418836  0.20165163  1  0  0.05608  0  3.771582  0  0  0.075776  0  3.993507  0  0  0.073686  0  4.01758  0  0  -0.006138  0.076957  0  3.977189  0
C  C47  1  0.40657785  0.18579594  0.79836206  1  0  0.056254  0  3.771243  0  0  0.075886  0  3.993224  0  0  0.073797  0  4.017308  0  0  -0.006228  0.07704  0  3.976938  0
C  C48  1  0.18565774  0.79737448  0.84191416  1  0  -0.101625  0  3.715381  0  0  -0.120415  0  3.958044  0  0  -0.121537  0  3.978365  0  0  -0.085088  -0.119585  0  3.944568  0
C  C49  1  0.68570401  0.70262603  0.15806977  1  0  -0.101685  0  3.715781  0  0  -0.120412  0  3.958432  0  0  -0.121527  0  3.978736  0  0  -0.08497  -0.119592  0  3.944979  0
C  C50  1  0.81435634  0.20262272  0.15809424  1  0  -0.101501  0  3.715749  0  0  -0.120356  0  3.958412  0  0  -0.12144  0  3.978746  0  0  -0.085051  -0.119531  0  3.944938  0
C  C51  1  0.31430352  0.29736871  0.84192294  1  0  -0.101569  0  3.715794  0  0  -0.120324  0  3.958439  0  0  -0.121437  0  3.978745  0  0  -0.084984  -0.119503  0  3.944983  0
C  C52  1  0.08806974  0.85547017  0.91172929  1  0  -0.08652  0  3.805533  0  0  -0.100813  0  4.06135  0  0  -0.103714  0  4.082937  0  0  -0.096598  -0.098865  0  4.046582  0
C  C53  1  0.58811889  0.64454401  0.08825698  1  0  -0.086566  0  3.806286  0  0  -0.100813  0  4.062099  0  0  -0.103717  0  4.08369  0  0  -0.096847  -0.098873  0  4.047347  0
C  C54  1  0.91191651  0.14452907  0.08827338  1  0  -0.086428  0  3.805685  0  0  -0.100791  0  4.061533  0  0  -0.103693  0  4.083105  0  0  -0.096576  -0.098841  0  4.046763  0
C  C55  1  0.41186081  0.35545533  0.91174155  1  0  -0.08662  0  3.806197  0  0  -0.100866  0  4.062004  0  0  -0.103772  0  4.083599  0  0  -0.096834  -0.098926  0  4.047253  0
C  C56  1  0.89527318  0.80423106  0.94078059  1  0  -0.071826  0  3.79595  0  0  -0.088503  0  4.05108  0  0  -0.089783  0  4.072979  0  0  -0.093522  -0.087338  0  4.036001  0
C  C57  1  0.39532557  0.69577372  0.05920030  1  0  -0.071674  0  3.796272  0  0  -0.088317  0  4.051348  0  0  -0.089614  0  4.073244  0  0  -0.093338  -0.087149  0  4.036275  0
C  C58  1  0.10470325  0.19576169  0.05921606  1  0  -0.071784  0  3.796258  0  0  -0.088508  0  4.051398  0  0  -0.089773  0  4.073305  0  0  -0.09353  -0.087344  0  4.036315  0
C  C59  1  0.60465086  0.30422349  0.94080751  1  0  -0.071426  0  3.796268  0  0  -0.088057  0  4.051353  0  0  -0.089359  0  4.073249  0  0  -0.093316  -0.086898  0  4.036281  0
C  C60  1  0.80566104  0.69408084  0.90071057  1  0  -0.116285  0  3.742937  0  0  -0.134818  0  3.986317  0  0  -0.138084  0  4.007736  0  0  -0.089615  -0.13277  0  3.971989  0
C  C61  1  0.30570789  0.80591992  0.09926732  1  0  -0.116374  0  3.742988  0  0  -0.134954  0  3.986415  0  0  -0.138211  0  4.007839  0  0  -0.089725  -0.132903  0  3.972074  0
C  C62  1  0.19432357  0.30591287  0.09928559  1  0  -0.11648  0  3.742741  0  0  -0.135027  0  3.986161  0  0  -0.138292  0  4.007574  0  0  -0.089714  -0.132973  0  3.971827  0
C  C63  1  0.69426527  0.19407444  0.90074078  1  0  -0.116711  0  3.74296  0  0  -0.135271  0  3.986427  0  0  -0.138533  0  4.007854  0  0  -0.08978  -0.133217  0  3.972085  0
C  C64  1  0.90269054  0.63128691  0.82933453  1  0  0.075859  0  3.781459  0  0  0.09177  0  4.004111  0  0  0.093359  0  4.027291  0  0  -0.001052  0.090877  0  3.988438  0
C  C65  1  0.40273011  0.86871028  0.17065394  1  0  0.075757  0  3.781392  0  0  0.091739  0  4.004007  0  0  0.093314  0  4.027199  0  0  -0.000924  0.090861  0  3.988311  0
C  C66  1  0.09730553  0.36870472  0.17066912  1  0  0.075964  0  3.781166  0  0  0.0919  0  4.003756  0  0  0.093488  0  4.026936  0  0  -0.000974  0.091004  0  3.988091  0
C  C67  1  0.59727087  0.13128431  0.82934469  1  0  0.075886  0  3.781392  0  0  0.091872  0  4.003991  0  0  0.093452  0  4.027176  0  0  -0.000958  0.090986  0  3.988303  0
C  C68  1  0.81317471  0.51837173  0.78659461  1  0  -0.115068  0  3.686215  0  0  -0.14387  0  3.930994  0  0  -0.145717  0  3.948996  0  0  -0.084285  -0.143057  0  3.919305  0
C  C69  1  0.31321911  0.98163479  0.21338810  1  0  -0.115102  0  3.685804  0  0  -0.143875  0  3.93071  0  0  -0.145718  0  3.948709  0  0  -0.084354  -0.143066  0  3.919025  0
C  C70  1  0.18683773  0.48162965  0.21339819  1  0  -0.115047  0  3.686396  0  0  -0.14389  0  3.931135  0  0  -0.145739  0  3.94914  0  0  -0.08431  -0.143082  0  3.919458  0
C  C71  1  0.68678678  0.01836730  0.78661428  1  0  -0.115052  0  3.685929  0  0  -0.143822  0  3.930829  0  0  -0.145663  0  3.948824  0  0  -0.084328  -0.143007  0  3.919138  0
C  C72  1  0.90185379  0.46349426  0.71454886  1  0  -0.048534  0  3.722107  0  0  -0.032516  0  3.958754  0  0  -0.034812  0  3.976838  0  0  -0.010646  -0.031049  0  3.94668  0
C  C73  1  0.40187613  0.03651435  0.28543587  1  0  -0.048313  0  3.721469  0  0  -0.032494  0  3.958419  0  0  -0.034795  0  3.976491  0  0  -0.010715  -0.03104  0  3.94636  0
C  C74  1  0.09817011  0.53650619  0.28544325  1  0  -0.048651  0  3.72215  0  0  -0.032588  0  3.958806  0  0  -0.034886  0  3.976886  0  0  -0.010631  -0.031125  0  3.946736  0
C  C75  1  0.59812158  0.96349349  0.71456414  1  0  -0.048447  0  3.721591  0  0  -0.032644  0  3.958534  0  0  -0.034944  0  3.976605  0  0  -0.010753  -0.031189  0  3.946476  0
C  C76  1  0.79350975  0.35077551  0.66575139  1  0  0.670281  0  3.892484  0  0  0.615045  0  4.178799  0  0  0.651387  0  4.173492  0  0  0.206461  0.59021  0  4.181156  0
C  C77  1  0.29353777  0.14921931  0.33422322  1  0  0.670311  0  3.892359  0  0  0.615099  0  4.178675  0  0  0.651443  0  4.173361  0  0  0.206852  0.590281  0  4.181032  0
C  C78  1  0.20650269  0.64922967  0.33424063  1  0  0.670305  0  3.892416  0  0  0.615006  0  4.178801  0  0  0.651349  0  4.173492  0  0  0.206657  0.590181  0  4.181152  0
C  C79  1  0.70645175  0.85079042  0.66577699  1  0  0.670499  0  3.892528  0  0  0.615299  0  4.178794  0  0  0.651644  0  4.173473  0  0  0.206888  0.590469  0  4.181162  0
O  O80  1  0.25784795  0.53494548  0.55402448  1  0  -0.64558  0  2.185908  0  0  -0.55395  0  2.478154  0  0  -0.588895  0  2.462651  0  0  -0.327672  -0.529931  0  2.488921  0
O  O81  1  0.75787432  0.96505087  0.44596914  1  0  -0.645527  0  2.185895  0  0  -0.553858  0  2.478242  0  0  -0.588802  0  2.462735  0  0  -0.327672  -0.529876  0  2.489093  0
O  O82  1  0.74218577  0.46505565  0.44597838  1  0  -0.645802  0  2.185615  0  0  -0.554203  0  2.477945  0  0  -0.589146  0  2.462426  0  0  -0.327739  -0.530197  0  2.488744  0
O  O83  1  0.24211520  0.03494576  0.55402376  1  0  -0.645627  0  2.18579  0  0  -0.553995  0  2.47813  0  0  -0.588944  0  2.462622  0  0  -0.327734  -0.529982  0  2.488914  0
O  O84  1  0.14461879  0.34593949  0.58224585  1  0  -0.631576  0  2.237513  0  0  -0.545103  0  2.514697  0  0  -0.578688  0  2.501963  0  0  -0.319215  -0.521256  0  2.522685  0
O  O85  1  0.64460565  0.15407290  0.41775242  1  0  -0.631557  0  2.237416  0  0  -0.544958  0  2.514481  0  0  -0.578539  0  2.501744  0  0  -0.319078  -0.521121  0  2.522481  0
O  O86  1  0.85543131  0.65407118  0.41775445  1  0  -0.631563  0  2.237295  0  0  -0.545049  0  2.514401  0  0  -0.578674  0  2.501703  0  0  -0.319105  -0.52121  0  2.522397  0
O  O87  1  0.35539533  0.84592749  0.58224206  1  0  -0.631502  0  2.237425  0  0  -0.545009  0  2.514584  0  0  -0.578591  0  2.501847  0  0  -0.319121  -0.521174  0  2.522587  0
O  O88  1  0.66313810  0.37806394  0.61113048  1  0  -0.649164  0  2.169925  0  0  -0.562805  0  2.451161  0  0  -0.599723  0  2.439348  0  0  -0.329882  -0.536944  0  2.458009  0
O  O89  1  0.16315911  0.12191469  0.38883297  1  0  -0.649553  0  2.169482  0  0  -0.563191  0  2.450702  0  0  -0.600106  0  2.438882  0  0  -0.330187  -0.537298  0  2.457461  0
O  O90  1  0.33688089  0.62193561  0.38885976  1  0  -0.649216  0  2.169745  0  0  -0.562849  0  2.451023  0  0  -0.599769  0  2.43921  0  0  -0.330063  -0.536968  0  2.457817  0
O  O91  1  0.83682551  0.87808470  0.61116378  1  0  -0.64962  0  2.169633  0  0  -0.563242  0  2.450847  0  0  -0.600158  0  2.43903  0  0  -0.330207  -0.537359  0  2.45764  0
O  O92  1  0.83354491  0.24081910  0.68063819  1  0  -0.590368  0  2.071528  0  0  -0.518936  0  2.327026  0  0  -0.553326  0  2.321287  0  0  -0.305305  -0.494622  0  2.329994  0
O  O93  1  0.33355466  0.25917667  0.31933747  1  0  -0.590177  0  2.071981  0  0  -0.518711  0  2.327425  0  0  -0.553099  0  2.321693  0  0  -0.305276  -0.494402  0  2.330386  0
O  O94  1  0.16647244  0.75918524  0.31934958  1  0  -0.590359  0  2.071691  0  0  -0.518877  0  2.327187  0  0  -0.553263  0  2.321444  0  0  -0.305322  -0.494566  0  2.330152  0
O  O95  1  0.66644305  0.74083307  0.68066215  1  0  -0.590299  0  2.072124  0  0  -0.518841  0  2.327552  0  0  -0.55323  0  2.321816  0  0  -0.30528  -0.49452  0  2.33051  0
