# generated using pymatgen
data_AlH5C14Br2N2O5
_symmetry_space_group_name_H-M   'P 1'
_cell_length_a   6.70495765
_cell_length_b   23.07397993
_cell_length_c   26.14927763
_cell_angle_alpha   100.43185053
_cell_angle_beta   89.99848676
_cell_angle_gamma   90.00158921
_symmetry_Int_Tables_number   1
_chemical_formula_structural   AlH5C14Br2N2O5
_chemical_formula_sum   'Al4 H20 C56 Br8 N8 O20'
_cell_volume   3978.68713992
_cell_formula_units_Z   4
loop_
 _symmetry_equiv_pos_site_id
 _symmetry_equiv_pos_as_xyz
  1  'x, y, z'
loop_
 _atom_site_type_symbol
 _atom_site_label
 _atom_site_symmetry_multiplicity
 _atom_site_fract_x
 _atom_site_fract_y
 _atom_site_fract_z
 _atom_site_occupancy
 _atom_site_pbe_bader_charge
 _atom_site_pbe_bader_spin_density
 _atom_site_pbe_cm5_charge
 _atom_site_pbe_ddec_charge
 _atom_site_pbe_ddec_spin_density
 _atom_site_pbe_ddec_sum_bond_order
 _atom_site_pbe_magmom
Al  Al0  1  0.79503032  0.74910203  0.24954797  1  2.502882  0  0.404339  1.644738  0  2.576917  0
Al  Al1  1  0.20497883  0.25089584  0.75044983  1  2.502834  0  0.404331  1.644783  0  2.576971  0
Al  Al2  1  0.29502720  0.75089585  0.25044744  1  2.502788  0  0.404186  1.644887  0  2.577067  0
Al  Al3  1  0.70497748  0.24910336  0.74954841  1  2.502907  0  0.404263  1.644814  0  2.577083  0
H  H4  1  0.69865065  0.00870865  0.55641944  1  0.123388  0  0.109405  0.127646  0  1.00123  0
H  H5  1  0.30133464  0.99129120  0.44357952  1  0.123314  0  0.109397  0.127664  0  1.001208  0
H  H6  1  0.19866128  0.49128680  0.94357767  1  0.123415  0  0.109421  0.127653  0  1.00119  0
H  H7  1  0.80131954  0.50870359  0.05642169  1  0.123391  0  0.109353  0.127642  0  1.001178  0
H  H8  1  0.26026493  0.17055269  0.87761587  1  0.117173  0  0.113803  0.1233  0  0.982441  0
H  H9  1  0.73974572  0.82944921  0.12238464  1  0.117286  0  0.113725  0.123162  0  0.982375  0
H  H10  1  0.76028865  0.32945181  0.62238282  1  0.117242  0  0.113771  0.123215  0  0.982128  0
H  H11  1  0.23972349  0.67054781  0.37761925  1  0.117171  0  0.113798  0.123282  0  0.982433  0
H  H12  1  0.26453436  0.10520817  0.94420500  1  0.085823  0  0.102513  0.108498  0  1.015239  0
H  H13  1  0.73547181  0.89479760  0.05579745  1  0.085973  0  0.102526  0.108563  0  1.015236  0
H  H14  1  0.76453381  0.39479794  0.55579289  1  0.085954  0  0.102576  0.108684  0  1.015322  0
H  H15  1  0.23544701  0.60520737  0.44421151  1  0.085627  0  0.1026  0.108682  0  1.015214  0
H  H16  1  0.65958832  0.11547606  0.83643709  1  0.118685  0  0.112744  0.131027  0  0.990148  0
H  H17  1  0.34042382  0.88452552  0.16356187  1  0.118601  0  0.112737  0.131021  0  0.990111  0
H  H18  1  0.15961276  0.38452133  0.66356880  1  0.11904  0  0.11272  0.130985  0  0.990219  0
H  H19  1  0.84039490  0.61547631  0.33642783  1  0.119065  0  0.112713  0.131001  0  0.990164  0
H  H20  1  0.54884040  0.82603252  0.27186043  1  0.634927  0  0.357506  0.436729  0  0.843605  0
H  H21  1  0.45116726  0.17396380  0.72814243  1  0.634901  0  0.357558  0.436786  0  0.843548  0
H  H22  1  0.04883221  0.67396333  0.22814106  1  0.634871  0  0.357574  0.436807  0  0.84355  0
H  H23  1  0.95117247  0.32603408  0.77185868  1  0.634881  0  0.357516  0.436716  0  0.843618  0
C  C24  1  0.54404259  0.68557447  0.31337557  1  1.560418  0  0.272268  0.644841  0  4.092553  0
C  C25  1  0.45596805  0.31442342  0.68662650  1  1.560837  0  0.272333  0.644871  0  4.092254  0
C  C26  1  0.04402966  0.81442460  0.18662283  1  1.559954  0  0.272389  0.645018  0  4.092244  0
C  C27  1  0.95597204  0.18557465  0.81337535  1  1.560249  0  0.272424  0.645046  0  4.092081  0
C  C28  1  0.54327955  0.67335770  0.17342575  1  1.679526  0  0.278087  0.719013  0  4.154188  0
C  C29  1  0.45672513  0.32663928  0.82657399  1  1.679444  0  0.277973  0.718814  0  4.154479  0
C  C30  1  0.04326100  0.82663980  0.32657344  1  1.679407  0  0.277857  0.718666  0  4.154454  0
C  C31  1  0.95674517  0.17335907  0.67342708  1  1.679381  0  0.278022  0.718896  0  4.154427  0
C  C32  1  0.83033487  0.00454019  0.53168972  1  0.056283  0  -0.082837  -0.162461  0  3.946372  0
C  C33  1  0.16965638  0.99545900  0.46831236  1  0.056484  0  -0.082832  -0.162474  0  3.946473  0
C  C34  1  0.33034636  0.49545697  0.96831053  1  0.071477  0  -0.082843  -0.162368  0  3.946303  0
C  C35  1  0.66964191  0.50453906  0.03168883  1  0.05624  0  -0.082727  -0.162336  0  3.946477  0
C  C36  1  0.98747811  0.04534777  0.54436623  1  0.165083  0  0.001992  0.098701  0  4.083776  0
C  C37  1  0.01251613  0.95465019  0.45563196  1  0.165047  0  0.001962  0.098535  0  4.083896  0
C  C38  1  0.48748997  0.45464638  0.95563428  1  0.149696  0  0.001931  0.098374  0  4.084036  0
C  C39  1  0.51251172  0.54534653  0.04436468  1  0.164934  0  0.001931  0.098542  0  4.083928  0
C  C40  1  0.15744444  0.03986166  0.51168583  1  -0.118962  0  -0.007662  0.068855  0  3.935703  0
C  C41  1  0.84254235  0.96013848  0.48831663  1  -0.119123  0  -0.007698  0.068759  0  3.935672  0
C  C42  1  0.65743446  0.46013829  0.98831580  1  -0.11905  0  -0.007726  0.068803  0  3.93598  0
C  C43  1  0.34254933  0.53986012  0.01168044  1  -0.118796  0  -0.007686  0.068812  0  3.935843  0
C  C44  1  0.97280077  0.08995728  0.58888232  1  -0.514482  0  -0.02637  -0.022141  0  4.104817  0
C  C45  1  0.02718601  0.91004021  0.41111781  1  -0.514154  0  -0.026356  -0.022021  0  4.104987  0
C  C46  1  0.47280247  0.41003807  0.91111828  1  -0.514562  0  -0.026303  -0.021968  0  4.105068  0
C  C47  1  0.52718730  0.58995626  0.08887913  1  -0.514625  0  -0.026373  -0.022119  0  4.105024  0
C  C48  1  0.03833462  0.87178566  0.37247741  1  0.252  0  -0.028692  -0.179262  0  3.927098  0
C  C49  1  0.96166559  0.12821541  0.62752116  1  0.25229  0  -0.028686  -0.179242  0  3.926981  0
C  C50  1  0.53834308  0.62821411  0.12751830  1  0.252709  0  -0.028719  -0.179265  0  3.926882  0
C  C51  1  0.46165862  0.37178159  0.87247950  1  0.252656  0  -0.028708  -0.179268  0  3.927244  0
C  C52  1  0.13031475  0.14426107  0.88365643  1  -0.03353  0  -0.081084  -0.092052  0  3.962264  0
C  C53  1  0.86970336  0.85574135  0.11634448  1  -0.033055  0  -0.080962  -0.091887  0  3.962187  0
C  C54  1  0.63031475  0.35574688  0.61634301  1  -0.033524  0  -0.080971  -0.091831  0  3.962019  0
C  C55  1  0.36967204  0.64426033  0.38365594  1  -0.033807  0  -0.081001  -0.091929  0  3.962436  0
C  C56  1  0.13264523  0.10772327  0.92041538  1  0.012266  0  -0.07885  -0.095115  0  3.97756  0
C  C57  1  0.86736095  0.89227950  0.07958513  1  0.01188  0  -0.078871  -0.095174  0  3.977622  0
C  C58  1  0.63264649  0.39228145  0.57958094  1  0.012084  0  -0.078972  -0.095473  0  3.978048  0
C  C59  1  0.36734179  0.60772379  0.42041685  1  0.012404  0  -0.078936  -0.095445  0  3.97752  0
C  C60  1  0.96713169  0.07258864  0.92725472  1  0.034542  0  -0.006066  -0.021051  0  3.974807  0
C  C61  1  0.03286851  0.92741634  0.07274813  1  0.03462  0  -0.006135  -0.021205  0  3.97486  0
C  C62  1  0.46713964  0.42741275  0.57275018  1  0.034265  0  -0.006113  -0.021126  0  3.975147  0
C  C63  1  0.53285013  0.57258605  0.42725423  1  0.03431  0  -0.006009  -0.020834  0  3.974702  0
C  C64  1  0.79713233  0.07526340  0.89621762  1  -0.112166  0  -0.009624  0.079743  0  3.943792  0
C  C65  1  0.20288279  0.92473810  0.10378095  1  -0.112377  0  -0.009699  0.07966  0  3.943859  0
C  C66  1  0.29714879  0.42473225  0.60378710  1  -0.111888  0  -0.009579  0.079842  0  3.944064  0
C  C67  1  0.70285440  0.57526087  0.39621498  1  -0.112058  0  -0.009676  0.079685  0  3.944097  0
C  C68  1  0.79124778  0.11311588  0.86034517  1  0.046548  0  -0.086307  -0.144067  0  3.952571  0
C  C69  1  0.20876287  0.88688646  0.13965534  1  0.046684  0  -0.086197  -0.143912  0  3.95245  0
C  C70  1  0.29124952  0.38688804  0.63965996  1  0.045997  0  -0.086272  -0.144077  0  3.952792  0
C  C71  1  0.70872533  0.61311464  0.36034017  1  0.0463  0  -0.086317  -0.144279  0  3.952355  0
C  C72  1  0.95865125  0.14728999  0.85373115  1  -0.042435  0  -0.009801  -0.020912  0  3.963338  0
C  C73  1  0.04136685  0.85271058  0.14627132  1  -0.043009  0  -0.009858  -0.020928  0  3.963508  0
C  C74  1  0.45865801  0.35271338  0.64627108  1  -0.042131  0  -0.009792  -0.020761  0  3.962973  0
C  C75  1  0.54131386  0.64729061  0.35372905  1  -0.042289  0  -0.009769  -0.020673  0  3.963403  0
C  C76  1  0.01789089  0.96651276  0.03406701  1  1.020834  0  0.242757  0.261874  0  3.986092  0
C  C77  1  0.98210633  0.03349186  0.96593622  1  1.020874  0  0.242718  0.261782  0  3.986357  0
C  C78  1  0.51787678  0.53349083  0.46593543  1  1.020913  0  0.242617  0.261621  0  3.986353  0
C  C79  1  0.48210702  0.46650679  0.53406743  1  1.020703  0  0.242786  0.261927  0  3.986139  0
Br  Br80  1  0.62833786  0.90631128  0.47294212  1  -0.027439  0  0.055426  -0.028874  0  1.398565  0
Br  Br81  1  0.37166085  0.09368549  0.52706501  1  -0.027472  0  0.05542  -0.02891  0  1.398531  0
Br  Br82  1  0.12835887  0.59369083  0.02704879  1  -0.027418  0  0.055436  -0.028888  0  1.398553  0
Br  Br83  1  0.87165625  0.40631370  0.97293927  1  -0.027387  0  0.055396  -0.028916  0  1.3984  0
Br  Br84  1  0.57546390  0.02480913  0.89987273  1  -0.020821  0  0.046304  -0.057597  0  1.521173  0
Br  Br85  1  0.42454973  0.97519383  0.10012662  1  -0.020749  0  0.046354  -0.057546  0  1.521324  0
Br  Br86  1  0.07547064  0.47519013  0.60013714  1  -0.020897  0  0.046208  -0.057707  0  1.520927  0
Br  Br87  1  0.92450570  0.52481115  0.39986454  1  -0.020768  0  0.046297  -0.057577  0  1.521399  0
N  N88  1  0.83571457  0.03564761  0.00174648  1  -0.557808  0  -0.158341  -0.148707  0  3.208914  0
N  N89  1  0.16429458  0.96435586  0.99825326  1  -0.557923  0  -0.158353  -0.14877  0  3.208597  0
N  N90  1  0.33570812  0.46435554  0.49825554  1  -0.557628  0  -0.158376  -0.148895  0  3.208835  0
N  N91  1  0.66428463  0.53565053  0.50174419  1  -0.557669  0  -0.158275  -0.148664  0  3.20829  0
N  N92  1  0.85416167  0.00119094  0.03673423  1  -0.575976  0  -0.150027  -0.130718  0  3.190542  0
N  N93  1  0.14583853  0.99881408  0.96326667  1  -0.575888  0  -0.149903  -0.13061  0  3.190476  0
N  N94  1  0.35414417  0.49881397  0.46326923  1  -0.576079  0  -0.149886  -0.130451  0  3.190647  0
N  N95  1  0.64584261  0.50118904  0.53673245  1  -0.575726  0  -0.150027  -0.130726  0  3.19009  0
O  O96  1  0.37468930  0.69181532  0.19209627  1  -1.23816  0  -0.224583  -0.58005  0  2.281787  0
O  O97  1  0.62530494  0.30818567  0.80790191  1  -1.238268  0  -0.224549  -0.579904  0  2.281856  0
O  O98  1  0.87470107  0.80819017  0.30790139  1  -1.238293  0  -0.224547  -0.579805  0  2.282151  0
O  O99  1  0.12530808  0.19181003  0.69209718  1  -1.237865  0  -0.224586  -0.579899  0  2.282196  0
O  O100  1  0.71383185  0.69810140  0.29638281  1  -1.249329  0  -0.236425  -0.593245  0  2.336781  0
O  O101  1  0.28616090  0.30189711  0.70361810  1  -1.249608  0  -0.236479  -0.593288  0  2.336676  0
O  O102  1  0.21385776  0.80189964  0.20361851  1  -1.248446  0  -0.236626  -0.593556  0  2.336039  0
O  O103  1  0.78615289  0.19810104  0.79638240  1  -1.248968  0  -0.236577  -0.593462  0  2.336099  0
O  O104  1  0.71457210  0.69019450  0.19121496  1  -1.232911  0  -0.22664  -0.580353  0  2.280444  0
O  O105  1  0.28543258  0.30980183  0.80878167  1  -1.232943  0  -0.226636  -0.580328  0  2.280457  0
O  O106  1  0.21458359  0.80980109  0.30878091  1  -1.232526  0  -0.22655  -0.580309  0  2.27997  0
O  O107  1  0.78542706  0.19019813  0.69121922  1  -1.232953  0  -0.226704  -0.580435  0  2.28007  0
O  O108  1  0.87501177  0.79837094  0.20136037  1  -1.251016  0  -0.236192  -0.594951  0  2.351177  0
O  O109  1  0.12500485  0.20162929  0.79863625  1  -1.25113  0  -0.236283  -0.595059  0  2.351013  0
O  O110  1  0.37498413  0.70162613  0.29863224  1  -1.250987  0  -0.236317  -0.59515  0  2.350458  0
O  O111  1  0.62502204  0.29837071  0.70136478  1  -1.251182  0  -0.236263  -0.595084  0  2.350618  0
O  O112  1  0.54610858  0.78554036  0.25361203  1  -1.435813  0  -0.447389  -0.993184  0  2.188499  0
O  O113  1  0.45389461  0.21445811  0.74638655  1  -1.435868  0  -0.447447  -0.993241  0  2.188452  0
O  O114  1  0.04611284  0.71445746  0.24638442  1  -1.435773  0  -0.447468  -0.993266  0  2.18841  0
O  O115  1  0.95389333  0.28554042  0.75361338  1  -1.435775  0  -0.447434  -0.993181  0  2.188547  0
