# generated using pymatgen
data_AlH6C9SO6
_symmetry_space_group_name_H-M   'P 1'
_cell_length_a   6.69428282
_cell_length_b   11.10056449
_cell_length_c   12.98941290
_cell_angle_alpha   75.10206245
_cell_angle_beta   71.90657971
_cell_angle_gamma   73.12189277
_symmetry_Int_Tables_number   1
_chemical_formula_structural   AlH6C9SO6
_chemical_formula_sum   'Al2 H12 C18 S2 O12'
_cell_volume   863.08330595
_cell_formula_units_Z   2
loop_
 _symmetry_equiv_pos_site_id
 _symmetry_equiv_pos_as_xyz
  1  'x, y, z'
loop_
 _atom_site_type_symbol
 _atom_site_label
 _atom_site_symmetry_multiplicity
 _atom_site_fract_x
 _atom_site_fract_y
 _atom_site_fract_z
 _atom_site_occupancy
 _atom_site_pbe_bader_charge
 _atom_site_pbe_bader_spin_density
 _atom_site_pbe_cm5_charge
 _atom_site_pbe_ddec_charge
 _atom_site_pbe_ddec_spin_density
 _atom_site_pbe_ddec_sum_bond_order
 _atom_site_pbe_magmom
Al  Al0  1  0.50000044  0.49999726  0.50000353  1  2.507965  0  0.39714  1.642623  0  2.59494  0
Al  Al1  1  0.00000072  0.49999811  0.49999900  1  2.500721  0  0.401766  1.636263  0  2.568984  0
H  H2  1  0.29012736  0.58212657  0.36622626  1  0.638626  0  0.349719  0.4266  0  0.862606  0
H  H3  1  0.70987952  0.41787607  0.63377557  1  0.638706  0  0.349748  0.426696  0  0.862527  0
H  H4  1  0.67796617  0.11042195  0.57503979  1  0.078255  0  0.10434  0.109721  0  1.01819  0
H  H5  1  0.32204865  0.88957774  0.42495357  1  0.078214  0  0.104319  0.109719  0  1.018233  0
H  H6  1  0.91421728  0.92698068  0.62695435  1  0.029989  0  0.088243  0.122849  0  1.003071  0
H  H7  1  0.82704312  0.78094244  0.66174184  1  0.025244  0  0.089603  0.127207  0  1.001535  0
H  H8  1  0.00937330  0.81639212  0.53450688  1  0.059492  0  0.100704  0.150295  0  1.002891  0
H  H9  1  0.99064318  0.18360308  0.46549387  1  0.059249  0  0.100687  0.150235  0  1.002899  0
H  H10  1  0.17296136  0.21906216  0.33825928  1  0.025227  0  0.089621  0.127185  0  1.001446  0
H  H11  1  0.08578875  0.07302387  0.37304731  1  0.030114  0  0.088299  0.122884  0  1.003109  0
H  H12  1  0.46368477  0.56695081  0.87368623  1  0.602601  0  0.304679  0.319424  0  0.973198  0
H  H13  1  0.53631583  0.43304120  0.12631739  1  0.602676  0  0.304678  0.319426  0  0.97313  0
C  C14  1  0.86590830  0.50065833  0.30362003  1  1.645102  0  0.258159  0.662751  0  4.146576  0
C  C15  1  0.64403260  0.72900951  0.49478060  1  1.569597  0  0.266651  0.647085  0  4.085985  0
C  C16  1  0.13409715  0.49934066  0.69638025  1  1.645327  0  0.25827  0.662969  0  4.146464  0
C  C17  1  0.35597424  0.27098292  0.50521893  1  1.569505  0  0.266768  0.647306  0  4.085908  0
C  C18  1  0.57518491  0.86835179  0.50015221  1  -0.102536  0  -0.015717  -0.096194  0  3.938622  0
C  C19  1  0.42481955  0.13164289  0.49984347  1  -0.102051  0  -0.015732  -0.096312  0  3.938691  0
C  C20  1  0.68151839  0.92846538  0.54407732  1  -0.004113  0  6.9e-05  0.157551  0  3.950297  0
C  C21  1  0.31848480  0.07153186  0.45592125  1  -0.004148  0  -3e-06  0.157565  0  3.950497  0
C  C22  1  0.60129203  0.05981467  0.54215532  1  0.051279  0  -0.087271  -0.16308  0  3.969674  0
C  C23  1  0.39872011  0.94018431  0.45783546  1  0.05175  0  -0.087245  -0.163155  0  3.96984  0
C  C24  1  0.20132489  0.52838760  0.87112890  1  0.621859  0  0.09238  0.287947  0  4.074561  0
C  C25  1  0.79866431  0.47161989  0.12887097  1  0.621612  0  0.092335  0.287695  0  4.074695  0
C  C26  1  0.07654934  0.50317421  0.81412195  1  -0.132967  0  -0.03363  -0.236833  0  3.900125  0
C  C27  1  0.92344456  0.49683389  0.18587172  1  -0.132622  0  -0.033636  -0.23661  0  3.900046  0
C  C28  1  0.90099071  0.48296088  0.01417257  1  -0.20189  0  -0.037965  -0.130797  0  4.132234  0
C  C29  1  0.09899156  0.51705476  0.98583096  1  -0.132497  0  -0.037999  -0.130975  0  4.13218  0
C  C30  1  0.86820143  0.85998473  0.59427946  1  -0.02941  0  -0.241138  -0.409689  0  3.962139  0
C  C31  1  0.13180996  0.14001149  0.40572036  1  -0.029182  0  -0.241149  -0.409585  0  3.962058  0
S  S32  1  0.83740088  0.46447168  0.90113157  1  0.199449  0  0.074097  0.105198  0  2.879731  0
S  S33  1  0.16258338  0.53554311  0.09887102  1  0.198991  0  0.074164  0.105227  0  2.879918  0
O  O34  1  0.66992594  0.50060798  0.35360054  1  -1.259109  0  -0.225899  -0.571649  0  2.371472  0
O  O35  1  0.84072783  0.67351243  0.49245534  1  -1.26904  0  -0.235546  -0.595405  0  2.380015  0
O  O36  1  0.98838400  0.49491598  0.65401185  1  -1.251968  0  -0.239542  -0.590687  0  2.300677  0
O  O37  1  0.49786976  0.32379870  0.50978545  1  -1.254449  0  -0.238539  -0.595988  0  2.34808  0
O  O38  1  0.33008036  0.49938910  0.64639990  1  -1.259213  0  -0.225938  -0.571696  0  2.3714  0
O  O39  1  0.15928484  0.32648123  0.50754158  1  -1.268941  0  -0.235627  -0.595476  0  2.380142  0
O  O40  1  0.01161818  0.50508613  0.34599540  1  -1.251785  0  -0.239435  -0.59058  0  2.300742  0
O  O41  1  0.50213016  0.67620181  0.49021852  1  -1.254431  0  -0.238517  -0.595883  0  2.348156  0
O  O42  1  0.25387775  0.55867858  0.44594568  1  -1.445116  0  -0.448685  -0.984884  0  2.180732  0
O  O43  1  0.74612273  0.44131742  0.55405581  1  -1.445228  0  -0.448713  -0.985  0  2.180755  0
O  O44  1  0.39274086  0.56023153  0.82056962  1  -1.110533  0  -0.324257  -0.381012  0  2.355965  0
O  O45  1  0.60726702  0.43974033  0.17943676  1  -1.110322  0  -0.324253  -0.380936  0  2.355735  0
