# generated using pymatgen
data_MnH28C46(N2O)4
_symmetry_space_group_name_H-M   'P 1'
_cell_length_a   9.23913009
_cell_length_b   10.51570454
_cell_length_c   10.35445658
_cell_angle_alpha   91.82408447
_cell_angle_beta   113.04258833
_cell_angle_gamma   110.28539472
_symmetry_Int_Tables_number   1
_chemical_formula_structural   MnH28C46(N2O)4
_chemical_formula_sum   'Mn1 H28 C46 N8 O4'
_cell_volume   851.80304344
_cell_formula_units_Z   1
loop_
 _symmetry_equiv_pos_site_id
 _symmetry_equiv_pos_as_xyz
  1  'x, y, z'
loop_
 _atom_site_type_symbol
 _atom_site_label
 _atom_site_symmetry_multiplicity
 _atom_site_fract_x
 _atom_site_fract_y
 _atom_site_fract_z
 _atom_site_occupancy
 _atom_site_pbe_cm5_charge
 _atom_site_pbe_ddec_charge
 _atom_site_pbe_ddec_spin_density
 _atom_site_pbe_ddec_sum_bond_order
 _atom_site_pbe_magmom
Mn  Mn0  1  0.99999968  0.00000003  0.00000081  1  0.64517  0.561164  -1.281318  3.186417  -1.233
H  H1  1  0.58484411  0.90153597  0.45262590  1  0.106569  0.114728  0.000195  0.997785  0.0
H  H2  1  0.41516014  0.09846786  0.54737750  1  0.10654  0.114675  0.000195  0.997803  0.0
H  H3  1  0.78487415  0.05446271  0.69033321  1  0.117542  0.084977  0.000562  1.043405  0.0
H  H4  1  0.21513092  0.94553802  0.30967140  1  0.117532  0.084992  0.000562  1.043427  0.0
H  H5  1  0.31492407  0.92409272  0.18119136  1  0.115832  0.074235  0.000543  1.051376  0.0
H  H6  1  0.68507716  0.07590491  0.81881081  1  0.115822  0.074208  0.000543  1.051425  0.0
H  H7  1  0.38086921  0.71538099  0.17020484  1  0.105602  0.110759  0.000101  1.00778  0.0
H  H8  1  0.61913089  0.28461664  0.82979499  1  0.105606  0.110786  0.000101  1.007763  0.0
H  H9  1  0.19116843  0.52054807  0.95989564  1  0.103959  0.104109  0.000329  1.040746  0.0
H  H10  1  0.80882985  0.47945059  0.04010258  1  0.103969  0.104092  0.000329  1.04076  0.0
H  H11  1  0.57221334  0.65902470  0.40945265  1  0.109704  0.11257  0.000152  0.999383  0.0
H  H12  1  0.42778692  0.34097810  0.59054734  1  0.109715  0.112575  0.000152  0.99939  0.0
H  H13  1  0.54466112  0.26796166  0.26621939  1  0.099718  0.101306  -1.3e-05  1.054895  0.0
H  H14  1  0.45533650  0.73203803  0.73377764  1  0.09971  0.101285  -1.3e-05  1.054927  0.0
H  H15  1  0.49354957  0.07797233  0.08742077  1  0.100094  0.098742  0.000107  1.031147  0.0
H  H16  1  0.50644921  0.92202736  0.91257765  1  0.100072  0.098726  0.000107  1.031165  0.0
H  H17  1  0.69111821  0.95164374  0.14741081  1  0.098591  0.099381  0.000311  1.038095  0.0
H  H18  1  0.30888224  0.04835698  0.85258824  1  0.098549  0.099323  0.000311  1.038015  0.0
H  H19  1  0.93646135  0.02108256  0.38607780  1  0.09944  0.099067  1.6e-05  1.016716  0.0
H  H20  1  0.06353740  0.97891714  0.61392158  1  0.099437  0.099034  1.6e-05  1.016715  0.0
H  H21  1  0.99200898  0.21570431  0.56305668  1  0.101287  0.107441  9.3e-05  1.039513  0.0
H  H22  1  0.00798910  0.78429642  0.43694247  1  0.101269  0.107426  9.3e-05  1.039525  0.0
H  H23  1  0.41926935  0.38397444  0.18091856  1  0.102126  0.100473  0.000133  1.037452  0.0
H  H24  1  0.58073215  0.61602834  0.81907899  1  0.102115  0.100445  0.000133  1.037443  0.0
H  H25  1  0.31791806  0.40324888  0.74019649  1  0.100056  0.098472  9.8e-05  1.043353  0.0
H  H26  1  0.68207988  0.59675392  0.25980168  1  0.10006  0.09847  9.8e-05  1.043331  0.0
H  H27  1  0.99165162  0.35967482  0.72098782  1  0.304764  0.290239  1e-06  1.006619  0.0
H  H28  1  0.00834596  0.64032488  0.27901112  1  0.304757  0.290218  1e-06  1.006627  0.0
C  C29  1  0.66141692  0.86146101  0.53682484  1  -0.086931  -0.132298  0.007034  4.009268  0.004
C  C30  1  0.33858683  0.13854179  0.46317835  1  -0.08691  -0.132223  0.007034  4.009132  0.004
C  C31  1  0.77033132  0.94766958  0.67121169  1  0.049269  0.079577  0.002475  3.942466  0.0
C  C32  1  0.22967159  0.05232908  0.32879111  1  0.049283  0.079575  0.002475  3.942446  0.0
C  C33  1  0.87009028  0.77893512  0.75685058  1  0.113933  0.101687  0.009462  3.980314  0.004
C  C34  1  0.12990961  0.22106458  0.24315114  1  0.113898  0.101605  0.009461  3.980465  0.004
C  C35  1  0.23256549  0.83806854  0.09129160  1  0.048225  0.085326  0.005861  3.940962  0.002
C  C36  1  0.76743458  0.16192909  0.90870919  1  0.048214  0.085317  0.005861  3.94108  0.002
C  C37  1  0.26943653  0.72070951  0.08372930  1  -0.08681  -0.125596  0.006128  3.995953  0.003
C  C38  1  0.73056406  0.27928916  0.91627169  1  -0.086822  -0.125647  0.006127  3.995974  0.003
C  C39  1  0.16453319  0.61282148  0.96683253  1  -0.073319  -0.073097  0.01458  3.934498  0.008
C  C40  1  0.83546572  0.38717615  0.03316783  1  -0.073324  -0.07309  0.014578  3.934498  0.008
C  C41  1  0.02686322  0.62729501  0.85468900  1  0.001582  -0.008831  0.000907  4.02396  -0.001
C  C42  1  0.97313719  0.37270572  0.14531197  1  0.001574  -0.008797  0.000906  4.023845  -0.001
C  C43  1  0.99701913  0.74962356  0.87063092  1  0.114713  0.109543  0.012233  3.958965  0.006
C  C44  1  0.00297975  0.25037407  0.12937039  1  0.114726  0.109592  0.012233  3.958846  0.006
C  C45  1  0.76636977  0.68681281  0.62251394  1  0.003822  -0.002674  0.002135  4.00699  0.001
C  C46  1  0.23362966  0.31318585  0.37748567  1  0.003827  -0.002645  0.002135  4.00703  0.001
C  C47  1  0.65579297  0.72905616  0.51238045  1  -0.066412  -0.064241  0.008457  3.926817  0.005
C  C48  1  0.34420912  0.27094560  0.48762115  1  -0.066445  -0.064313  0.008456  3.926881  0.005
C  C49  1  0.79335977  0.56204426  0.60741293  1  0.085118  0.084479  -4.7e-05  4.097436  0.0
C  C50  1  0.20664114  0.43795751  0.39258825  1  0.085162  0.084543  -4.7e-05  4.097352  0.0
C  C51  1  0.91857564  0.53467463  0.72024500  1  0.093219  0.087806  0.000624  4.024072  0.0
C  C52  1  0.08142378  0.46532403  0.27975460  1  0.093218  0.08777  0.000624  4.024089  0.0
C  C53  1  0.80140958  0.37526006  0.52427519  1  0.218857  0.299331  -0.000162  4.002941  0.0
C  C54  1  0.19858971  0.62474066  0.47572343  1  0.21885  0.299341  -0.000162  4.002912  0.0
C  C55  1  0.77111262  0.25584913  0.42654125  1  -0.012567  0.007035  0.00014  4.023281  0.0
C  C56  1  0.22888718  0.74415263  0.57345662  1  -0.012582  0.006973  0.00014  4.023349  0.0
C  C57  1  0.63010408  0.21371591  0.29184428  1  -0.088976  -0.109914  0.000119  3.964935  0.0
C  C58  1  0.36989505  0.78628688  0.70815337  1  -0.088976  -0.109868  0.000119  3.964982  0.0
C  C59  1  0.60167711  0.10576362  0.19199384  1  -0.097894  -0.094515  0.000138  4.03188  0.0
C  C60  1  0.39832217  0.89423711  0.80800478  1  -0.097832  -0.094456  0.000138  4.031901  0.0
C  C61  1  0.71090043  0.03505129  0.22568927  1  -0.096249  -0.090952  0.000447  3.997929  0.0
C  C62  1  0.28909885  0.96494944  0.77430935  1  -0.096235  -0.09094  0.000447  3.997842  0.0
C  C63  1  0.84995881  0.07500901  0.36001170  1  -0.095462  -0.084264  0.000306  4.025935  0.0
C  C64  1  0.15004162  0.92499171  0.63998831  1  -0.095458  -0.08418  0.000305  4.025943  0.0
C  C65  1  0.88141715  0.18501138  0.45964803  1  -0.092838  -0.125397  0.000242  3.960297  0.0
C  C66  1  0.11858314  0.81499142  0.54035100  1  -0.092817  -0.125396  0.000242  3.960344  0.0
C  C67  1  0.19400820  0.24994356  0.90933456  1  0.212635  0.55717  0.003825  4.198252  0.0
C  C68  1  0.80599343  0.75005716  0.09066492  1  0.212662  0.557258  0.003825  4.198249  0.0
C  C69  1  0.35439463  0.37721682  0.95602877  1  -0.018689  -0.040422  0.004302  3.993937  0.002
C  C70  1  0.64560704  0.62278389  0.04396880  1  -0.018663  -0.040439  0.004302  3.993969  0.002
C  C71  1  0.45625595  0.43422268  0.10200239  1  -0.083849  -0.094291  0.001388  3.968477  0.001
C  C72  1  0.54374520  0.56577700  0.89799593  1  -0.08382  -0.094193  0.001388  3.968523  0.001
C  C73  1  0.39847238  0.44438829  0.85403627  1  -0.087493  -0.107012  0.001751  3.985523  0.001
C  C74  1  0.60152860  0.55561346  0.14596203  1  -0.087471  -0.106939  0.001751  3.985381  0.001
N  N75  1  0.86761193  0.90676651  0.78172715  1  -0.314022  -0.20147  0.026303  3.523167  0.024
N  N76  1  0.13238964  0.09323423  0.21827521  1  -0.313991  -0.201476  0.026304  3.523227  0.024
N  N77  1  0.09657804  0.85212081  0.99046672  1  -0.323753  -0.206951  0.026925  3.556097  0.024
N  N78  1  0.90342252  0.14787786  0.00953522  1  -0.323768  -0.206945  0.026924  3.556172  0.024
N  N79  1  0.92080772  0.41522307  0.66513785  1  -0.370929  -0.296723  9e-06  3.564423  0.0
N  N80  1  0.07919154  0.58477766  0.33486173  1  -0.370919  -0.296699  9e-06  3.564404  0.0
N  N81  1  0.72197705  0.46259807  0.48683892  1  -0.335645  -0.399225  7e-05  3.207759  0.0
N  N82  1  0.27802389  0.53740369  0.51316130  1  -0.335646  -0.39923  7e-05  3.207728  0.0
O  O83  1  0.20340966  0.15818723  0.98833878  1  -0.28948  -0.480127  -0.000256  2.35123  0.005
O  O84  1  0.79658960  0.84181350  0.01166080  1  -0.289497  -0.480178  -0.000256  2.351284  0.005
O  O85  1  0.06321337  0.24126584  0.80038943  1  -0.307944  -0.551073  0.002639  2.239029  0.002
O  O86  1  0.93678826  0.75873488  0.19961005  1  -0.307952  -0.551118  0.002639  2.239026  0.002
