# generated using pymatgen
data_H26Pd5(C11O8)2
_symmetry_space_group_name_H-M   'P 1'
_cell_length_a   9.25487510
_cell_length_b   9.63243315
_cell_length_c   10.65088017
_cell_angle_alpha   94.35040374
_cell_angle_beta   114.01267733
_cell_angle_gamma   114.22112663
_symmetry_Int_Tables_number   1
_chemical_formula_structural   H26Pd5(C11O8)2
_chemical_formula_sum   'H26 Pd5 C22 O16'
_cell_volume   756.62529436
_cell_formula_units_Z   1
loop_
 _symmetry_equiv_pos_site_id
 _symmetry_equiv_pos_as_xyz
  1  'x, y, z'
loop_
 _atom_site_type_symbol
 _atom_site_label
 _atom_site_symmetry_multiplicity
 _atom_site_fract_x
 _atom_site_fract_y
 _atom_site_fract_z
 _atom_site_occupancy
 _atom_site_pbe_bader_spin_density
 _atom_site_pbe_cm5_charge
 _atom_site_pbe_ddec_charge
 _atom_site_pbe_ddec_spin_density
 _atom_site_pbe_ddec_sum_bond_order
 _atom_site_pbe_magmom
H  H0  1  0.10785949  0.43139565  0.83479131  1  0  0.10433  0.162949  0  0.992129  0
H  H1  1  0.89213950  0.56860399  0.16520860  1  0  0.104322  0.162915  0  0.99207  0
H  H2  1  0.11100928  0.34807528  0.68011632  1  0  0.098842  0.149897  0  0.99186  0
H  H3  1  0.88898906  0.65192318  0.31988423  1  0  0.098855  0.149894  0  0.991862  0
H  H4  1  0.29640872  0.40892418  0.85493492  1  0  0.104007  0.165203  0  0.994062  0
H  H5  1  0.70359091  0.59107665  0.14506436  1  0  0.103987  0.165165  0  0.994098  0
H  H6  1  0.97948763  0.07366621  0.59814108  1  0  0.101614  0.150699  0  1.025341  0
H  H7  1  0.02051255  0.92633344  0.40186018  1  0  0.101615  0.150681  0  1.025306  0
H  H8  1  0.67384219  0.66477359  0.55698033  1  0  0.10189  0.152357  0  0.990738  0
H  H9  1  0.32615917  0.33522605  0.44302134  1  0  0.101895  0.152389  0  0.990726  0
H  H10  1  0.88179352  0.72716684  0.55474358  1  0  0.101792  0.155444  0  0.993229  0
H  H11  1  0.11820904  0.27283280  0.44525945  1  0  0.101787  0.155463  0  0.993205  0
H  H12  1  0.73907473  0.80656401  0.46370355  1  0  0.097073  0.157087  0  1.01686  0
H  H13  1  0.26092717  0.19343444  0.53629917  1  0  0.097079  0.157121  0  1.016833  0
H  H14  1  0.55775884  0.21605936  0.53605507  1  0  0.098871  0.15746  0  1.000675  0
H  H15  1  0.44223831  0.78393910  0.46394413  1  0  0.098868  0.157455  0  1.000679  0
H  H16  1  0.77772222  0.33169968  0.55490337  1  0  0.106077  0.162702  0  0.977006  0
H  H17  1  0.22227676  0.66829996  0.44509655  1  0  0.106074  0.162708  0  0.976996  0
H  H18  1  0.72830740  0.15813552  0.61280919  1  0  0.098238  0.162748  0  1.015979  0
H  H19  1  0.27168908  0.84186174  0.38718875  1  0  0.098256  0.162777  0  1.015956  0
H  H20  1  0.59793681  0.48800676  0.71113672  1  0  0.096418  0.150527  0  1.001951  0
H  H21  1  0.40206336  0.51199288  0.28886361  1  0  0.096411  0.150508  0  1.001962  0
H  H22  1  0.81461755  0.49575777  0.77042760  1  0  0.09728  0.154562  0  1.018374  0
H  H23  1  0.18538329  0.50424306  0.22957398  1  0  0.097296  0.15456  0  1.018347  0
H  H24  1  0.76686446  0.57543308  0.89345611  1  0  0.105244  0.180827  0  1.014525  0
H  H25  1  0.23313520  0.42456776  0.10654506  1  0  0.105222  0.180821  0  1.014548  0
Pd  Pd26  1  0.00000184  0.00000119  0.00000072  1  0  0.748095  0.463271  0  3.290326  0
Pd  Pd27  1  0.32333425  0.94969398  0.06647129  1  0  0.628783  0.292571  0  3.608508  0
Pd  Pd28  1  0.67666640  0.05030445  0.93352631  1  0  0.628802  0.292578  0  3.608653  0
Pd  Pd29  1  0.33206347  0.03846289  0.83584691  1  0  0.650886  0.329927  0  3.524265  0
Pd  Pd30  1  0.66793667  0.96153674  0.16415153  1  0  0.650878  0.329909  0  3.524277  0
C  C31  1  0.14839612  0.35453309  0.79282414  1  0  -0.240607  -0.481764  0  3.882138  0
C  C32  1  0.85160287  0.64546656  0.20717578  1  0  -0.240585  -0.481681  0  3.882083  0
C  C33  1  0.06450982  0.19306352  0.81192075  1  0  0.110647  0.467797  0  3.998423  0
C  C34  1  0.93549036  0.80693613  0.18808051  1  0  0.110667  0.467827  0  3.998397  0
C  C35  1  0.98449653  0.05543925  0.69906234  1  0  -0.169858  -0.471848  0  3.972354  0
C  C36  1  0.01550484  0.94456039  0.30093934  1  0  -0.169867  -0.471838  0  3.972291  0
C  C37  1  0.88414544  0.89744694  0.69603903  1  0  0.111559  0.472168  0  3.995733  0
C  C38  1  0.11585357  0.10255271  0.30396277  1  0  0.111548  0.472159  0  3.995717  0
C  C39  1  0.78710257  0.76659613  0.55861098  1  0  -0.239001  -0.477439  0  3.871352  0
C  C40  1  0.21289878  0.23340351  0.44138975  1  0  -0.239001  -0.477532  0  3.871332  0
C  C41  1  0.61097544  0.11510906  0.38386370  1  0  0.206397  0.664565  0  4.080521  0
C  C42  1  0.38902117  0.88489059  0.61613445  1  0  0.206322  0.664547  0  4.080553  0
C  C43  1  0.67113693  0.21055240  0.53126139  1  0  -0.242074  -0.516254  0  3.864571  0
C  C44  1  0.32886034  0.78944844  0.46873708  1  0  -0.242082  -0.516276  0  3.864516  0
C  C45  1  0.63523068  0.32195115  0.82775789  1  0  0.204866  0.657376  0  4.092002  0
C  C46  1  0.36476950  0.67804850  0.17224338  1  0  0.204872  0.65736  0  4.092113  0
C  C47  1  0.70700493  0.47843760  0.79666443  1  0  -0.248543  -0.532747  0  3.889333  0
C  C48  1  0.29299591  0.52156324  0.20333715  1  0  -0.248542  -0.532736  0  3.889394  0
C  C49  1  0.20510639  0.82960642  0.86246138  1  0  -0.083176  0.069287  0  4.035801  0
C  C50  1  0.79489493  0.17039321  0.13753746  1  0  -0.083165  0.069287  0  4.035808  0
C  C51  1  0.40432584  0.16001880  0.02928543  1  0  -0.088844  0.049132  0  4.065878  0
C  C52  1  0.59567547  0.83998082  0.97071247  1  0  -0.088837  0.049099  0  4.065991  0
O  O53  1  0.07572292  0.19564248  0.93675784  1  0  -0.304225  -0.360074  0  2.462438  0
O  O54  1  0.92427791  0.80435835  0.06324279  1  0  -0.304236  -0.360089  0  2.462383  0
O  O55  1  0.86988597  0.85085891  0.80234565  1  0  -0.301088  -0.353304  0  2.43486  0
O  O56  1  0.13011370  0.14914193  0.19765646  1  0  -0.301074  -0.353286  0  2.434879  0
O  O57  1  0.44942067  0.07048575  0.28826160  1  0  -0.33544  -0.454069  0  2.352379  0
O  O58  1  0.55057841  0.92951627  0.71173569  1  0  -0.335424  -0.454066  0  2.352298  0
O  O59  1  0.72740960  0.08808599  0.36744453  1  0  -0.340025  -0.47603  0  2.324151  0
O  O60  1  0.27258700  0.91191365  0.63255268  1  0  -0.339976  -0.476039  0  2.324325  0
O  O61  1  0.46900547  0.25517770  0.79803603  1  0  -0.339797  -0.471959  0  2.343847  0
O  O62  1  0.53099284  0.74482075  0.20196263  1  0  -0.3398  -0.471912  0  2.343869  0
O  O63  1  0.74623931  0.26982909  0.88291800  1  0  -0.334348  -0.441671  0  2.310663  0
O  O64  1  0.25376088  0.73017056  0.11708422  1  0  -0.334353  -0.441696  0  2.310634  0
O  O65  1  0.11439626  0.69599383  0.79106715  1  0  -0.168057  -0.141369  0  2.399292  0
O  O66  1  0.88560507  0.30400580  0.20893170  1  0  -0.16806  -0.141371  0  2.399256  0
O  O67  1  0.47899610  0.29426263  0.09580500  1  0  -0.163781  -0.118365  0  2.384798  0
O  O68  1  0.52100521  0.70573699  0.90419290  1  0  -0.163801  -0.118365  0  2.384847  0
