# generated using pymatgen
data_ZnH10C12S(NO2)2
_symmetry_space_group_name_H-M   'P 1'
_cell_length_a   4.89967657
_cell_length_b   8.05278069
_cell_length_c   16.23508278
_cell_angle_alpha   88.80487738
_cell_angle_beta   85.95832709
_cell_angle_gamma   72.31443499
_symmetry_Int_Tables_number   1
_chemical_formula_structural   ZnH10C12S(NO2)2
_chemical_formula_sum   'Zn2 H20 C24 S2 N4 O8'
_cell_volume   608.77921103
_cell_formula_units_Z   2
loop_
 _symmetry_equiv_pos_site_id
 _symmetry_equiv_pos_as_xyz
  1  'x, y, z'
loop_
 _atom_site_type_symbol
 _atom_site_label
 _atom_site_symmetry_multiplicity
 _atom_site_fract_x
 _atom_site_fract_y
 _atom_site_fract_z
 _atom_site_occupancy
 _atom_site_pbe_bader_spin_density
 _atom_site_pbe_cm5_charge
 _atom_site_pbe_ddec_charge
 _atom_site_pbe_ddec_spin_density
 _atom_site_pbe_ddec_sum_bond_order
 _atom_site_pbe_magmom
Zn  Zn0  1  0.47233651  0.05525153  0.24974529  1  0  0.71705  0.817844  0  2.36616  0
Zn  Zn1  1  0.52765964  0.94474984  0.75025457  1  0  0.717048  0.817804  0  2.366277  0
H  H2  1  0.41307722  0.99709187  0.07284252  1  0  0.119903  0.089087  0  1.002285  0
H  H3  1  0.59039044  0.99677289  0.42667491  1  0  0.1199  0.089553  0  1.001567  0
H  H4  1  0.58691963  0.00290820  0.92715611  1  0  0.119925  0.089095  0  1.002294  0
H  H5  1  0.40961380  0.00322457  0.57332484  1  0  0.119913  0.089571  0  1.00154  0
H  H6  1  0.06201253  0.13812667  0.96780225  1  0  0.110833  0.125997  0  1.011169  0
H  H7  1  0.79896994  0.13809658  0.53193077  1  0  0.110874  0.126169  0  1.010769  0
H  H8  1  0.93798365  0.86187470  0.03219699  1  0  0.110809  0.125981  0  1.011144  0
H  H9  1  0.20103697  0.86189958  0.46806957  1  0  0.110873  0.126157  0  1.010754  0
H  H10  1  0.71054215  0.56607441  0.14027140  1  0  0.11632  0.148317  0  1.024237  0
H  H11  1  0.72205166  0.56656725  0.35999250  1  0  0.116686  0.14839  0  1.024253  0
H  H12  1  0.28945811  0.43392696  0.85972778  1  0  0.116318  0.148295  0  1.024274  0
H  H13  1  0.27794096  0.43343673  0.64001109  1  0  0.116719  0.148388  0  1.024301  0
H  H14  1  0.08133963  0.41770259  0.23273558  1  0  0.117875  0.085325  0  1.033852  0
H  H15  1  0.50005741  0.41832759  0.26739869  1  0  0.117916  0.084794  0  1.034144  0
H  H16  1  0.91866478  0.58229878  0.76726230  1  0  0.117874  0.085333  0  1.033855  0
H  H17  1  0.49993720  0.58167248  0.73260429  1  0  0.117916  0.084785  0  1.034111  0
H  H18  1  0.65197230  0.36885186  0.93008790  1  0  0.104548  0.12031  0  1.05329  0
H  H19  1  0.97832961  0.36939742  0.57000048  1  0  0.104546  0.120292  0  1.052695  0
H  H20  1  0.34802595  0.63114951  0.06991070  1  0  0.10454  0.120287  0  1.053334  0
H  H21  1  0.02167593  0.63060135  0.43000110  1  0  0.104548  0.120301  0  1.052729  0
C  C22  1  0.25586492  0.12466250  0.08383250  1  0  0.046421  0.099339  0  3.952123  0
C  C23  1  0.61950616  0.12450379  0.41580902  1  0  0.046729  0.099002  0  3.951518  0
C  C24  1  0.74413126  0.87533887  0.91616674  1  0  0.046366  0.099338  0  3.952143  0
C  C25  1  0.38049532  0.87549498  0.58419200  1  0  0.046721  0.098985  0  3.951448  0
C  C26  1  0.05742511  0.20177905  0.02683623  1  0  -0.078414  -0.175656  0  3.901382  0
C  C27  1  0.74013498  0.20183726  0.47294308  1  0  -0.079268  -0.17639  0  3.902526  0
C  C28  1  0.94257109  0.79822232  0.97316240  1  0  -0.078359  -0.175604  0  3.90136  0
C  C29  1  0.25987193  0.79815890  0.52705726  1  0  -0.079277  -0.176398  0  3.902468  0
C  C30  1  0.84440657  0.36053268  0.04654722  1  0  0.012751  0.159534  0  3.995749  0
C  C31  1  0.79458380  0.36064753  0.45341007  1  0  0.013864  0.160306  0  3.99436  0
C  C32  1  0.15559512  0.63946999  0.95345130  1  0  0.012812  0.15956  0  3.995712  0
C  C33  1  0.20541762  0.63935124  0.54659219  1  0  0.013854  0.16034  0  3.994313  0
C  C34  1  0.86138765  0.44087226  0.12137188  1  0  -0.07505  -0.161129  0  3.864047  0
C  C35  1  0.69722878  0.44104696  0.37866007  1  0  -0.075006  -0.161076  0  3.864782  0
C  C36  1  0.13861327  0.55912781  0.87862730  1  0  -0.075041  -0.161071  0  3.863961  0
C  C37  1  0.30277202  0.55895311  0.62134157  1  0  -0.075076  -0.161156  0  3.864812  0
C  C38  1  0.06967684  0.35730213  0.17415227  1  0  0.04843  0.09679  0  3.942174  0
C  C39  1  0.57277572  0.35738063  0.32576564  1  0  0.047821  0.096749  0  3.942619  0
C  C40  1  0.93032554  0.64269924  0.82584564  1  0  0.048398  0.096743  0  3.942229  0
C  C41  1  0.42722157  0.64261814  0.67423730  1  0  0.047832  0.096798  0  3.94245  0
C  C42  1  0.61936860  0.43254882  0.99042582  1  0  -0.080981  -0.125862  0  3.928638  0
C  C43  1  0.94768044  0.43269547  0.50960056  1  0  -0.081374  -0.126505  0  3.929002  0
C  C44  1  0.38063581  0.56745255  0.00957205  1  0  -0.081017  -0.125866  0  3.928717  0
C  C45  1  0.05232101  0.56730329  0.49040108  1  0  -0.081331  -0.12652  0  3.929043  0
S  S46  1  0.08979131  0.81975280  0.24973615  1  0  0.549991  1.398326  0  6.410331  0
S  S47  1  0.91020753  0.18024727  0.75026368  1  0  0.549932  1.398197  0  6.410538  0
N  N48  1  0.26066458  0.19916885  0.15725569  1  0  -0.341182  -0.253964  0  3.585597  0
N  N49  1  0.54063301  0.19900188  0.34238493  1  0  -0.340135  -0.252424  0  3.583904  0
N  N50  1  0.73933432  0.80083122  0.84274290  1  0  -0.341169  -0.253987  0  3.585688  0
N  N51  1  0.45937116  0.80099559  0.65761606  1  0  -0.340111  -0.252378  0  3.583849  0
O  O52  1  0.31928260  0.71644923  0.19225776  1  0  -0.355286  -0.647951  0  2.219372  0
O  O53  1  0.96396904  0.71654571  0.30735146  1  0  -0.35539  -0.647844  0  2.217568  0
O  O54  1  0.68071621  0.28355084  0.80774268  1  0  -0.355283  -0.647924  0  2.219386  0
O  O55  1  0.03602912  0.28345566  0.69264898  1  0  -0.355382  -0.647792  0  2.217645  0
O  O56  1  0.20551700  0.93743559  0.30090747  1  0  -0.380551  -0.669129  0  2.315255  0
O  O57  1  0.85642495  0.93680335  0.19847468  1  0  -0.379837  -0.668206  0  2.314663  0
O  O58  1  0.79448185  0.06256448  0.69909235  1  0  -0.380525  -0.669088  0  2.315288  0
O  O59  1  0.14357387  0.06319672  0.80152576  1  0  -0.379811  -0.668159  0  2.314697  0
