# generated using pymatgen
data_Zn4H26C29S2O15
_symmetry_space_group_name_H-M   'P 1'
_cell_length_a   17.84678287
_cell_length_b   18.64326935
_cell_length_c   19.30479403
_cell_angle_alpha   118.84188088
_cell_angle_beta   115.92796964
_cell_angle_gamma   89.93043332
_symmetry_Int_Tables_number   1
_chemical_formula_structural   Zn4H26C29S2O15
_chemical_formula_sum   'Zn8 H52 C58 S4 O30'
_cell_volume   4877.47109910
_cell_formula_units_Z   2
loop_
 _symmetry_equiv_pos_site_id
 _symmetry_equiv_pos_as_xyz
  1  'x, y, z'
loop_
 _atom_site_type_symbol
 _atom_site_label
 _atom_site_symmetry_multiplicity
 _atom_site_fract_x
 _atom_site_fract_y
 _atom_site_fract_z
 _atom_site_occupancy
 _atom_site_pbe_bader_charge
 _atom_site_pbe_bader_spin_density
 _atom_site_pbe_cm5_charge
 _atom_site_pbe_ddec_charge
 _atom_site_pbe_ddec_spin_density
 _atom_site_pbe_ddec_sum_bond_order
 _atom_site_pbe_magmom
Zn  Zn0  1  0.86858681  0.45740580  0.92095344  1  1.3076  0  0.674147  0.962361  0  2.369152  0
Zn  Zn1  1  0.03469292  0.44757039  0.06653587  1  1.304001  0  0.66633  0.953127  0  2.400174  0
Zn  Zn2  1  0.03037438  0.61890887  0.06337811  1  1.315701  0  0.673799  0.957634  0  2.392866  0
Zn  Zn3  1  0.04769685  0.45672112  0.91000837  1  1.32006  0  0.66871  0.966031  0  2.338407  0
Zn  Zn4  1  0.62237189  0.02985121  0.06646395  1  1.307699  0  0.668407  0.956366  0  2.384725  0
Zn  Zn5  1  0.45820540  0.87108677  0.91312062  1  1.307465  0  0.668123  0.951647  0  2.408674  0
Zn  Zn6  1  0.46365153  0.04215707  0.91408392  1  1.314466  0  0.668135  0.955013  0  2.402983  0
Zn  Zn7  1  0.43932055  0.03477069  0.06612941  1  1.304149  0  0.669264  0.96665  0  2.339498  0
H  H8  1  0.79005999  0.17289174  0.36028047  1  0.133307  0  0.123841  0.151555  0  0.965984  0
H  H9  1  0.31942729  0.69329031  0.61091679  1  0.122444  0  0.12459  0.151719  0  0.96477  0
H  H10  1  0.78383571  0.68067080  0.87788629  1  0.048107  0  0.094286  0.092052  0  0.975604  0
H  H11  1  0.86960551  0.76605833  0.98184509  1  0.060101  0  0.09378  0.09207  0  0.983013  0
H  H12  1  0.78036147  0.85724345  0.97805538  1  0.042361  0  0.092581  0.090239  0  0.984303  0
H  H13  1  0.69475137  0.77120307  0.87457602  1  0.016118  0  0.092083  0.087225  0  0.979132  0
H  H14  1  0.80125421  0.89064157  0.12837293  1  0.047836  0  0.092737  0.093565  0  0.986899  0
H  H15  1  0.72967712  0.83084446  0.13372265  1  0.006866  0  0.088293  0.081515  0  0.981164  0
H  H16  1  0.88915344  0.79780299  0.13300001  1  0.033883  0  0.096431  0.102918  0  0.981106  0
H  H17  1  0.81529232  0.73694173  0.13474733  1  0.001179  0  0.091022  0.085967  0  0.977163  0
H  H18  1  0.67978600  0.59142360  0.88102820  1  0.02998  0  0.094579  0.099514  0  0.980253  0
H  H19  1  0.69304188  0.61350045  0.98579692  1  0.018506  0  0.089564  0.085543  0  0.981829  0
H  H20  1  0.60515522  0.70617867  0.98498047  1  0.004927  0  0.088461  0.083947  0  0.981733  0
H  H21  1  0.59083617  0.68294696  0.87958920  1  0.046132  0  0.091557  0.092013  0  0.983048  0
H  H22  1  0.09342871  0.18537410  0.87279605  1  0.025273  0  0.091116  0.08541  0  0.978838  0
H  H23  1  0.11223809  0.21246722  0.98157615  1  0.045908  0  0.09334  0.092281  0  0.981695  0
H  H24  1  0.20059869  0.12003510  0.98221666  1  0.035985  0  0.093324  0.092335  0  0.98408  0
H  H25  1  0.18161799  0.09385204  0.87364773  1  0.00409  0  0.090965  0.085303  0  0.97912  0
H  H26  1  0.32426428  0.24191050  0.12485650  1  0.03638  0  0.093419  0.094625  0  0.984195  0
H  H27  1  0.39503603  0.30223398  0.11907839  1  0.040872  0  0.089746  0.083606  0  0.98002  0
H  H28  1  0.23729824  0.33580075  0.12442979  1  0.048618  0  0.093194  0.095414  0  0.987382  0
H  H29  1  0.30748338  0.39428011  0.11645601  1  0.034808  0  0.089394  0.083348  0  0.980404  0
H  H30  1  0.19241411  0.27048225  0.86084428  1  0.061911  0  0.091513  0.091912  0  0.984075  0
H  H31  1  0.27938104  0.35657616  0.95998447  1  0.027034  0  0.090008  0.087194  0  0.980949  0
H  H32  1  0.36889807  0.26559424  0.96316378  1  0.05488  0  0.089657  0.086624  0  0.982596  0
H  H33  1  0.28253483  0.17990661  0.86317773  1  0.04562  0  0.090561  0.089658  0  0.982893  0
H  H34  1  0.82460348  0.19363186  0.91393612  1  0.024209  0  0.091123  0.086156  0  0.980759  0
H  H35  1  0.73292504  0.22275747  0.85874556  1  0.030657  0  0.093771  0.093548  0  0.980402  0
H  H36  1  0.64548741  0.12671753  0.85541296  1  0.03248  0  0.093544  0.092991  0  0.984322  0
H  H37  1  0.73784424  0.09908614  0.91190248  1  0.013484  0  0.091348  0.086062  0  0.978638  0
H  H38  1  0.59813851  0.24757874  0.94627467  1  0.05946  0  0.092971  0.094331  0  0.987266  0
H  H39  1  0.65552430  0.30450404  0.06669573  1  0.003233  0  0.08897  0.082514  0  0.980325  0
H  H40  1  0.68702271  0.34395226  0.95089976  1  0.047274  0  0.09458  0.097398  0  0.984092  0
H  H41  1  0.74454839  0.39947271  0.07121664  1  0.028863  0  0.089894  0.0839  0  0.978635  0
H  H42  1  0.90860883  0.27405126  0.08729417  1  0.036278  0  0.090904  0.091307  0  0.987204  0
H  H43  1  0.87650763  0.35859697  0.15171332  1  0.000939  0  0.090416  0.087208  0  0.978037  0
H  H44  1  0.78726821  0.26414141  0.14843972  1  0.000276  0  0.090223  0.087672  0  0.979416  0
H  H45  1  0.82032971  0.17980832  0.08509270  1  0.043101  0  0.090616  0.090183  0  0.983993  0
H  H46  1  0.08890995  0.71877807  0.90254994  1  0.030533  0  0.093013  0.088739  0  0.979592  0
H  H47  1  0.12509352  0.63522557  0.84094060  1  0.029969  0  0.094352  0.09274  0  0.978091  0
H  H48  1  0.21266118  0.73233255  0.84578285  1  0.020318  0  0.093521  0.093467  0  0.984667  0
H  H49  1  0.17776752  0.81576303  0.90940323  1  0.030793  0  0.091902  0.086795  0  0.978552  0
H  H50  1  0.34292704  0.69157720  0.92743791  1  0.072558  0  0.093255  0.094856  0  0.987021  0
H  H51  1  0.40022997  0.74722921  0.04771721  1  0.01966  0  0.088815  0.082137  0  0.980721  0
H  H52  1  0.25387464  0.59583659  0.92335970  1  0.040405  0  0.092457  0.093505  0  0.986644  0
H  H53  1  0.31153835  0.65227793  0.04363033  1  0.01859  0  0.088935  0.083497  0  0.981431  0
H  H54  1  0.17104472  0.80168658  0.07584516  1  0.043399  0  0.093035  0.095876  0  0.986229  0
H  H55  1  0.26123481  0.77454400  0.13438024  1  0.01167  0  0.08874  0.084223  0  0.980227  0
H  H56  1  0.35181707  0.86876750  0.13874893  1  0.024308  0  0.089072  0.084267  0  0.982572  0
H  H57  1  0.26161087  0.89737158  0.08216986  1  0.027152  0  0.091065  0.090818  0  0.984118  0
H  H58  1  0.62102894  0.21567723  0.57571082  1  0.609479  0  0.334354  0.368  0  0.878887  0
H  H59  1  0.28669152  0.86839878  0.41974170  1  0.611945  0  0.333156  0.366581  0  0.880952  0
C  C60  1  0.85796149  0.36284579  0.00342479  1  1.551926  0  0.233993  0.600503  0  4.102942  0
C  C61  1  0.11901356  0.61935992  0.23338441  1  1.606854  0  0.219422  0.610921  0  4.222758  0
C  C62  1  0.85325042  0.63400696  0.99918319  1  1.520632  0  0.23709  0.602395  0  4.099384  0
C  C63  1  0.13585077  0.62966589  0.98281718  1  1.542035  0  0.234775  0.602312  0  4.095264  0
C  C64  1  0.87216858  0.37349361  0.74726429  1  1.590511  0  0.218931  0.611327  0  4.216397  0
C  C65  1  0.13845191  0.35650594  0.98588327  1  1.534321  0  0.234368  0.600611  0  4.098381  0
C  C66  1  0.63737807  0.85530424  0.99371825  1  1.545471  0  0.235855  0.604702  0  4.093587  0
C  C67  1  0.38021853  0.87220131  0.74418928  1  1.625377  0  0.216702  0.604598  0  4.230022  0
C  C68  1  0.64266973  0.13472474  0.99669804  1  1.551248  0  0.235108  0.603021  0  4.097888  0
C  C69  1  0.35486427  0.13437320  0.98866955  1  1.548799  0  0.235954  0.604101  0  4.094568  0
C  C70  1  0.60966366  0.11767998  0.23553543  1  1.553033  0  0.217543  0.607696  0  4.22223  0
C  C71  1  0.35276129  0.85782867  0.99051944  1  1.555621  0  0.234943  0.60317  0  4.093776  0
C  C72  1  0.73008622  0.30532196  0.59373864  1  0.021452  0  -0.02292  -0.113646  0  4.030827  0
C  C73  1  0.74810247  0.19201526  0.38953743  1  -0.002965  0  -0.087917  -0.134552  0  3.96617  0
C  C74  1  0.81955121  0.32691319  0.64689806  1  -0.127899  0  -0.016097  -0.130327  0  3.944066  0
C  C75  1  0.65918415  0.16945334  0.33609950  1  -0.135203  0  -0.021506  -0.109999  0  3.972559  0
C  C76  1  0.77397567  0.24118448  0.48309525  1  -0.136548  0  -0.022533  -0.004878  0  4.08036  0
C  C77  1  0.70398005  0.25541564  0.49954400  1  -0.167815  0  -0.025157  -0.055989  0  4.076855  0
C  C78  1  0.19143270  0.75819497  0.39195344  1  0.058141  0  -0.022596  -0.113296  0  4.034309  0
C  C79  1  0.30264429  0.73567561  0.58614687  1  0.092757  0  -0.087283  -0.134284  0  3.962689  0
C  C80  1  0.16670135  0.67037376  0.33385075  1  -0.168197  0  -0.016291  -0.128672  0  3.94771  0
C  C81  1  0.32844736  0.82302979  0.64404366  1  -0.21213  0  -0.021982  -0.108521  0  3.980873  0
C  C82  1  0.25342774  0.71190327  0.49432435  1  -0.22078  0  -0.02306  -0.006813  0  4.078529  0
C  C83  1  0.24217447  0.78192702  0.48411725  1  -0.174151  0  -0.024803  -0.055833  0  4.082584  0
C  C84  1  0.80167454  0.73188540  0.94757334  1  -0.080384  0  -0.153851  -0.171067  0  3.845276  0
C  C85  1  0.74240088  0.79251582  0.94539144  1  -0.023064  0  -0.155304  -0.169393  0  3.853642  0
C  C86  1  0.69435384  0.79478885  0.99630648  1  0.048047  0  -0.017136  0.019004  0  3.813132  0
C  C87  1  0.76271310  0.82624473  0.09572737  1  -0.020892  0  -0.15821  -0.170827  0  3.863174  0
C  C88  1  0.82078493  0.76457066  0.09752232  1  0.016437  0  -0.158678  -0.174414  0  3.855043  0
C  C89  1  0.79348484  0.69218495  0.99923318  1  0.051004  0  -0.015768  0.023583  0  3.813528  0
C  C90  1  0.69882642  0.64337574  0.95063170  1  0.000541  0  -0.163396  -0.179013  0  3.885391  0
C  C91  1  0.64024985  0.70439897  0.94969139  1  -0.008802  0  -0.164585  -0.17579  0  3.885383  0
C  C92  1  0.14435445  0.20834573  0.94300754  1  -0.025112  0  -0.155216  -0.169358  0  3.845316  0
C  C93  1  0.20319091  0.14710334  0.94359278  1  -0.009132  0  -0.154997  -0.16847  0  3.852351  0
C  C94  1  0.29781751  0.19524932  0.98749207  1  0.037308  0  -0.016239  0.02018  0  3.809399  0
C  C95  1  0.32707124  0.26862080  0.08602399  1  -0.04997  0  -0.158726  -0.172162  0  3.862886  0
C  C96  1  0.26881711  0.33013380  0.08500461  1  -0.0477  0  -0.159699  -0.173721  0  3.86453  0
C  C97  1  0.19865821  0.29840438  0.98608797  1  0.053212  0  -0.01675  0.021402  0  3.809944  0
C  C98  1  0.24224320  0.29265198  0.93106527  1  -0.056964  0  -0.164687  -0.179243  0  3.888539  0
C  C99  1  0.30156914  0.23220252  0.93265964  1  -0.069054  0  -0.163178  -0.173131  0  3.881441  0
C  C100  1  0.76857851  0.21610761  0.91739930  1  -0.025573  0  -0.1548  -0.171572  0  3.852334  0
C  C101  1  0.71041636  0.15284438  0.91550437  1  -0.011022  0  -0.156493  -0.170246  0  3.854541  0
C  C102  1  0.70245812  0.19813742  0.00256619  1  0.044305  0  -0.015997  0.021885  0  3.811995  0
C  C103  1  0.66313472  0.27286695  0.00600871  1  -0.042647  0  -0.157614  -0.172091  0  3.86136  0
C  C104  1  0.72211078  0.33626795  0.00878368  1  -0.036184  0  -0.159306  -0.172269  0  3.86276  0
C  C105  1  0.80127085  0.30457633  0.00632350  1  0.045788  0  -0.016375  0.021633  0  3.812731  0
C  C106  1  0.85174730  0.29565186  0.08854257  1  0.004188  0  -0.163961  -0.177355  0  3.881036  0
C  C107  1  0.79295689  0.23296783  0.08663382  1  -0.020017  0  -0.164744  -0.17805  0  3.884697  0
C  C108  1  0.14689834  0.69830140  0.90325205  1  -0.026906  0  -0.15421  -0.169246  0  3.845861  0
C  C109  1  0.20581170  0.76255007  0.90682488  1  -0.01575  0  -0.155378  -0.170612  0  3.850225  0
C  C110  1  0.29665934  0.79796578  0.99234102  1  0.038802  0  -0.016304  0.020609  0  3.811534  0
C  C111  1  0.33515338  0.72256023  0.98783735  1  -0.05229  0  -0.159685  -0.172617  0  3.858288  0
C  C112  1  0.27605681  0.65926200  0.98512953  1  -0.024764  0  -0.160541  -0.174697  0  3.872001  0
C  C113  1  0.19699291  0.69105407  0.98747080  1  0.031595  0  -0.016044  0.021823  0  3.807085  0
C  C114  1  0.22767999  0.77974848  0.07442644  1  -0.015256  0  -0.163981  -0.176896  0  3.878378  0
C  C115  1  0.28743321  0.84281181  0.07781659  1  -0.009165  0  -0.164317  -0.175263  0  3.8903  0
C  C116  1  0.66847905  0.33427091  0.62869693  1  1.56808  0  0.233135  0.60166  0  4.115378  0
C  C117  1  0.16473725  0.82083204  0.36449457  1  1.583073  0  0.231747  0.598631  0  4.116453  0
S  S118  1  0.87137523  0.28876306  0.58342741  1  0.273163  0  0.098081  0.146692  0  2.73957  0
S  S119  1  0.60627526  0.20832455  0.39872654  1  0.272324  0  0.083876  0.123865  0  2.744528  0
S  S120  1  0.20247705  0.61725689  0.39034656  1  0.297803  0  0.10071  0.149887  0  2.744874  0
S  S121  1  0.29257303  0.87705520  0.58824624  1  0.258014  0  0.083715  0.122309  0  2.76485  0
O  O122  1  0.99571254  0.49411128  0.98875717  1  -1.225664  0  -0.572109  -1.028705  0  2.535533  0
O  O123  1  0.81945535  0.38852120  0.94978209  1  -1.171425  0  -0.314459  -0.548599  0  2.346039  0
O  O124  1  0.09481049  0.53922213  0.19687122  1  -1.154915  0  -0.317484  -0.541865  0  2.333531  0
O  O125  1  0.93414498  0.67011389  0.05228769  1  -1.176968  0  -0.312282  -0.542559  0  2.355892  0
O  O126  1  0.93956474  0.37938440  0.05233396  1  -1.1796  0  -0.313605  -0.544888  0  2.361865  0
O  O127  1  0.81876163  0.55419748  0.94495033  1  -1.164979  0  -0.30978  -0.541692  0  2.364023  0
O  O128  1  0.10789018  0.65910352  0.19300467  1  -1.17655  0  -0.305754  -0.52368  0  2.337231  0
O  O129  1  0.09801396  0.66300221  0.02882835  1  -1.178137  0  -0.314692  -0.549529  0  2.378561  0
O  O130  1  0.95387161  0.39658030  0.78097840  1  -1.178114  0  -0.318266  -0.544428  0  2.318663  0
O  O131  1  0.12523120  0.55001732  0.93221776  1  -1.170489  0  -0.314932  -0.54857  0  2.32026  0
O  O132  1  0.83114807  0.38479224  0.78995531  1  -1.154433  0  -0.307055  -0.526534  0  2.340469  0
O  O133  1  0.11252433  0.37736104  0.04343847  1  -1.17187  0  -0.317582  -0.552023  0  2.359912  0
O  O134  1  0.11737882  0.37874097  0.92833374  1  -1.177748  0  -0.312149  -0.545261  0  2.342999  0
O  O135  1  0.49583456  0.99535212  0.99157720  1  -1.217669  0  -0.572592  -1.026126  0  2.541138  0
O  O136  1  0.67519271  0.93477176  0.04379655  1  -1.183381  0  -0.317173  -0.552503  0  2.343526  0
O  O137  1  0.40291464  0.82999316  0.78239183  1  -1.171543  0  -0.313577  -0.531729  0  2.315417  0
O  O138  1  0.56357375  0.10915100  0.93422589  1  -1.183544  0  -0.317806  -0.553176  0  2.354929  0
O  O139  1  0.55611576  0.82235383  0.94102689  1  -1.17805  0  -0.3139  -0.547661  0  2.372796  0
O  O140  1  0.67536101  0.11118269  0.05312810  1  -1.16502  0  -0.312574  -0.544702  0  2.354949  0
O  O141  1  0.39724798  0.95301580  0.78323280  1  -1.164054  0  -0.318442  -0.542376  0  2.336527  0
O  O142  1  0.38889212  0.11617263  0.93841131  1  -1.177606  0  -0.313169  -0.545462  0  2.37572  0
O  O143  1  0.52744466  0.10398276  0.19778342  1  -1.142769  0  -0.318742  -0.543474  0  2.310224  0
O  O144  1  0.36406075  0.10595511  0.03961283  1  -1.173078  0  -0.317353  -0.554308  0  2.328498  0
O  O145  1  0.65442167  0.09157023  0.19617683  1  -1.175774  0  -0.316197  -0.537697  0  2.323015  0
O  O146  1  0.37381875  0.82310692  0.92868807  1  -1.185091  0  -0.317539  -0.55234  0  2.358494  0
O  O147  1  0.37341514  0.93727986  0.04890721  1  -1.182373  0  -0.313454  -0.547364  0  2.34237  0
O  O148  1  0.60843080  0.26975270  0.60616622  1  -1.094967  0  -0.338132  -0.474018  0  2.175346  0
O  O149  1  0.66651606  0.40738278  0.66902250  1  -1.096728  0  -0.270917  -0.428986  0  2.033014  0
O  O150  1  0.23237332  0.88143332  0.39204789  1  -1.102625  0  -0.339182  -0.475029  0  2.174387  0
O  O151  1  0.09088479  0.82306186  0.32605466  1  -1.095663  0  -0.267721  -0.42407  0  2.035015  0
