# generated using pymatgen
data_Zn2H24C34N2O17
_symmetry_space_group_name_H-M   'P 1'
_cell_length_a   9.88238924
_cell_length_b   10.88141068
_cell_length_c   15.98645080
_cell_angle_alpha   91.97249776
_cell_angle_beta   86.45406816
_cell_angle_gamma   88.19125669
_symmetry_Int_Tables_number   1
_chemical_formula_structural   Zn2H24C34N2O17
_chemical_formula_sum   'Zn2 H24 C34 N2 O17'
_cell_volume   1713.80610592
_cell_formula_units_Z   1
loop_
 _symmetry_equiv_pos_site_id
 _symmetry_equiv_pos_as_xyz
  1  'x, y, z'
loop_
 _atom_site_type_symbol
 _atom_site_label
 _atom_site_symmetry_multiplicity
 _atom_site_fract_x
 _atom_site_fract_y
 _atom_site_fract_z
 _atom_site_occupancy
 _atom_site_pbe_bader_charge
 _atom_site_pbe_bader_spin_density
 _atom_site_pbe_cm5_charge
 _atom_site_pbe_ddec_charge
 _atom_site_pbe_ddec_spin_density
 _atom_site_pbe_ddec_sum_bond_order
 _atom_site_pbe_magmom
Zn  Zn0  1  0.35869744  0.50462365  0.49784072  1  1.30858  0  0.686162  0.850111  0  2.365519  0
Zn  Zn1  1  0.65929355  0.49207397  0.50331595  1  1.318975  0  0.694032  0.894593  0  2.28392  0
H  H2  1  0.42374304  0.68984135  0.09441985  1  0.041289  0  0.0998  0.108852  0  0.973911  0
H  H3  1  0.23668887  0.09445903  0.26040784  1  0.025683  0  0.092831  0.086654  0  1.003416  0
H  H4  1  0.35575987  0.21512203  0.36373824  1  0.091867  0  0.093723  0.105506  0  1.050317  0
H  H5  1  0.69052753  0.20650148  0.56724747  1  0.665361  0  0.303934  0.356971  0  0.968876  0
H  H6  1  0.95203675  0.33979251  0.35184804  1  0.637012  0  0.351985  0.38769  0  0.856226  0
H  H7  1  0.79712086  0.68376982  0.80278750  1  0.655676  0  0.315631  0.375717  0  0.927875  0
H  H8  1  0.05458024  0.81371111  0.78546472  1  0.626856  0  0.332263  0.368867  0  0.888422  0
H  H9  1  0.23967564  0.69555548  0.59971907  1  0.165587  0  0.117759  0.157186  0  1.000509  0
H  H10  1  0.24327890  0.43997192  0.35800711  1  0.662556  0  0.314084  0.382383  0  0.947062  0
H  H11  1  0.69337059  0.45403842  0.90538818  1  0.069036  0  0.117884  0.073588  0  0.944411  0
H  H12  1  0.65998305  0.71243991  0.92836915  1  0.599964  0  0.325727  0.350177  0  0.904033  0
H  H13  1  0.54242373  0.30620621  0.04841453  1  0.070075  0  0.107241  0.134518  0  0.957392  0
H  H14  1  0.67737409  0.62589917  0.05409374  1  0.039304  0  0.102712  0.11065  0  0.973828  0
H  H15  1  0.72755590  0.46864527  0.04814044  1  0.065195  0  0.105499  0.121584  0  0.961386  0
H  H16  1  0.27999941  0.29272223  0.94109643  1  0.608307  0  0.328069  0.365046  0  0.881914  0
H  H17  1  0.50980414  0.30084382  0.84311942  1  0.58208  0  0.320355  0.368274  0  0.890769  0
H  H18  1  0.37022172  0.35383950  0.07360494  1  0.052753  0  0.104881  0.121251  0  0.974155  0
H  H19  1  0.68424562  0.88462110  0.56881814  1  0.092261  0  0.113665  0.137224  0  0.976708  0
H  H20  1  0.45479245  0.71038089  0.94980567  1  -0.0018  0  0.09315  0.012263  0  0.979884  0
H  H21  1  0.75546763  0.58802484  0.65979096  1  0.176622  0  0.110259  0.155126  0  1.054242  0
H  H22  1  0.26099494  0.63009683  0.88350360  1  0.571098  0  0.312253  0.348813  0  0.920058  0
H  H23  1  0.30182775  0.57534043  0.08214015  1  0.061302  0  0.108229  0.129577  0  0.956719  0
H  H24  1  0.38224898  0.75785446  0.36225465  1  0.047745  0  0.096557  0.106511  0  1.02913  0
H  H25  1  0.24873614  0.86405688  0.25911558  1  0.038763  0  0.095552  0.093123  0  1.002336  0
C  C26  1  0.53597613  0.72880981  0.48683865  1  1.561388  0  0.2249  0.60954  0  4.147843  0
C  C27  1  0.30207194  0.91734151  0.30501774  1  0.000978  0  -0.107875  -0.107015  0  4.082338  0
C  C28  1  0.29527955  0.04700717  0.30598967  1  -0.085092  0  -0.102895  -0.088376  0  4.078531  0
C  C29  1  0.46323362  0.51023893  0.66085172  1  1.624134  0  0.225121  0.674006  0  4.239717  0
C  C30  1  0.36251528  0.11533759  0.36381274  1  -0.066975  0  -0.104169  -0.146251  0  3.984488  0
C  C31  1  0.44197594  0.05773953  0.42346145  1  -0.012791  0  0.001132  0.094735  0  3.952138  0
C  C32  1  0.44832170  0.92547515  0.42218654  1  -0.006136  0  -0.00949  0.03716  0  3.960418  0
C  C33  1  0.53337485  0.86539225  0.47875803  1  -0.037182  0  -0.003761  -0.035163  0  3.958594  0
C  C34  1  0.61558758  0.93136631  0.52855091  1  0.104243  0  -0.092771  -0.209714  0  3.944644  0
C  C35  1  0.61233671  0.06136402  0.52927730  1  0.440689  0  0.09325  0.32127  0  4.080387  0
C  C36  1  0.52092323  0.12568182  0.48097689  1  0.081523  0  -0.040983  -0.25098  0  3.930819  0
C  C37  1  0.40268505  0.60441279  0.05969467  1  -0.019465  0  -0.154768  -0.272822  0  3.816708  0
C  C38  1  0.86161245  0.60959662  0.64727857  1  0.007607  0  -0.114715  -0.30386  0  3.96752  0
C  C39  1  0.92695579  0.68320684  0.70304496  1  0.450331  0  0.075399  0.216548  0  4.113226  0
C  C40  1  0.06355865  0.71703318  0.68462156  1  0.531847  0  0.080996  0.229474  0  4.083633  0
C  C41  1  0.51007360  0.26116257  0.49222448  1  1.477871  0  0.219134  0.620532  0  4.125328  0
C  C42  1  0.13545527  0.66972743  0.61340184  1  -0.001917  0  -0.10279  -0.266204  0  3.943726  0
C  C43  1  0.07368777  0.58711821  0.55919239  1  0.494469  0  0.103564  0.175065  0  4.016958  0
C  C44  1  0.93322621  0.56140238  0.57369532  1  0.410181  0  0.10251  0.17888  0  4.012436  0
C  C45  1  0.94437510  0.43911835  0.45135128  1  1.224486  0  0.22327  0.326281  0  4.081454  0
C  C46  1  0.08641406  0.46097649  0.43833480  1  1.245095  0  0.22228  0.331032  0  4.114597  0
C  C47  1  0.50500686  0.48511651  0.33259186  1  1.680629  0  0.227683  0.685289  0  4.209843  0
C  C48  1  0.51049090  0.50312225  0.07681791  1  0.106186  0  0.003397  0.201767  0  3.904368  0
C  C49  1  0.40079308  0.62538295  0.96517992  1  0.51448  0  0.006305  0.230602  0  3.838595  0
C  C50  1  0.63593201  0.53284693  0.93577488  1  0.466676  0  0.010015  0.2075  0  3.784114  0
C  C51  1  0.64772404  0.53438127  0.03172519  1  -0.022025  0  -0.154088  -0.282914  0  3.839292  0
C  C52  1  0.51794635  0.48532885  0.24222068  1  0.195841  0  -0.057831  -0.218742  0  3.986591  0
C  C53  1  0.48361297  0.51865982  0.91593463  1  0.122752  0  -0.01352  -0.086557  0  3.862395  0
C  C54  1  0.46517217  0.37871183  0.04007041  1  -0.028004  0  -0.155981  -0.328046  0  3.800892  0
C  C55  1  0.44152334  0.38846216  0.94605994  1  0.984135  0  0.156159  0.499492  0  3.833779  0
C  C56  1  0.52000635  0.49351585  0.16654714  1  -0.49956  0  -0.023747  -0.030438  0  4.012766  0
C  C57  1  0.46875665  0.52254202  0.82680447  1  0.063986  0  -0.038282  -0.047891  0  4.136055  0
C  C58  1  0.45803060  0.51714580  0.75152334  1  -0.333974  0  -0.046104  -0.192204  0  3.966882  0
C  C59  1  0.37677840  0.85801471  0.36261168  1  0.027003  0  -0.095737  -0.124672  0  3.988807  0
N  N60  1  0.87046635  0.48860075  0.51599469  1  -1.254017  0  -0.312059  -0.32051  0  3.438947  0
N  N61  1  0.14884984  0.53006062  0.49229873  1  -1.2549  0  -0.323848  -0.333668  0  3.465817  0
O  O62  1  0.42150440  0.67950630  0.49982473  1  -1.176667  0  -0.31066  -0.558245  0  2.385035  0
O  O63  1  0.69786069  0.11679444  0.57999448  1  -1.175645  0  -0.361176  -0.448168  0  2.239948  0
O  O64  1  0.88385551  0.36634754  0.39645897  1  -1.112732  0  -0.311689  -0.403754  0  2.290579  0
O  O65  1  0.87081184  0.73235978  0.77744508  1  -1.178426  0  -0.362965  -0.474963  0  2.314636  0
O  O66  1  0.12282934  0.79367990  0.73948151  1  -1.131453  0  -0.34892  -0.423546  0  2.228482  0
O  O67  1  0.14789704  0.40771405  0.36898681  1  -1.165839  0  -0.332125  -0.464484  0  2.302039  0
O  O68  1  0.69478516  0.63801844  0.89766042  1  -1.126933  0  -0.385144  -0.499412  0  2.259589  0
O  O69  1  0.30373820  0.37666752  0.92830637  1  -1.117086  0  -0.39428  -0.548643  0  2.198065  0
O  O70  1  0.52331158  0.29362918  0.90297593  1  -1.093269  0  -0.399984  -0.564368  0  2.15322  0
O  O71  1  0.65153564  0.67340764  0.48227982  1  -1.151633  0  -0.31135  -0.53186  0  2.30695  0
O  O72  1  0.35579157  0.48520731  0.62519733  1  -1.143266  0  -0.301654  -0.521779  0  2.275161  0
O  O73  1  0.57867222  0.53040598  0.62537302  1  -1.162605  0  -0.303012  -0.549457  0  2.348532  0
O  O74  1  0.40128932  0.31957002  0.47820962  1  -1.163555  0  -0.30593  -0.530418  0  2.357203  0
O  O75  1  0.61603685  0.31448233  0.51915516  1  -1.17097  0  -0.320347  -0.575204  0  2.39043  0
O  O76  1  0.38247451  0.50336533  0.36515973  1  -1.176829  0  -0.312618  -0.574739  0  2.33552  0
O  O77  1  0.60941863  0.47089510  0.37277203  1  -1.144038  0  -0.293477  -0.528646  0  2.256221  0
O  O78  1  0.26415719  0.64092842  0.94428367  1  -1.075693  0  -0.408606  -0.497717  0  2.179977  0
