# generated using pymatgen
data_LiH11(C7O2)2
_symmetry_space_group_name_H-M   'P 1'
_cell_length_a   5.31498056
_cell_length_b   8.27809136
_cell_length_c   13.66106020
_cell_angle_alpha   99.15985286
_cell_angle_beta   92.91894245
_cell_angle_gamma   93.87061587
_symmetry_Int_Tables_number   1
_chemical_formula_structural   LiH11(C7O2)2
_chemical_formula_sum   'Li2 H22 C28 O8'
_cell_volume   590.87823672
_cell_formula_units_Z   2
loop_
 _symmetry_equiv_pos_site_id
 _symmetry_equiv_pos_as_xyz
  1  'x, y, z'
loop_
 _atom_site_type_symbol
 _atom_site_label
 _atom_site_symmetry_multiplicity
 _atom_site_fract_x
 _atom_site_fract_y
 _atom_site_fract_z
 _atom_site_occupancy
 _atom_site_pbe_bader_spin_density
 _atom_site_pbe_cm5_charge
 _atom_site_pbe_ddec_charge
 _atom_site_pbe_ddec_spin_density
 _atom_site_pbe_ddec_sum_bond_order
 _atom_site_pbe_magmom
Li  Li0  1  0.30158938  0.43833801  0.43806987  1  0  0.513355  0.811155  0  0.514333  0
Li  Li1  1  0.69837277  0.56167000  0.56193258  1  0  0.513276  0.811149  0  0.514337  0
H  H2  1  0.91548312  0.26881208  0.54250994  1  0  0.315489  0.362659  0  0.973218  0
H  H3  1  0.08447894  0.73118241  0.45749265  1  0  0.31543  0.362457  0  0.973647  0
H  H4  1  0.57235594  0.72589321  0.72124427  1  0  0.112371  0.100305  0  1.057945  0
H  H5  1  0.42761850  0.27410614  0.27874886  1  0  0.112381  0.10033  0  1.05782  0
H  H6  1  0.87803696  0.49124896  0.79652971  1  0  0.106409  0.101697  0  1.029312  0
H  H7  1  0.12194312  0.50875512  0.20348232  1  0  0.106457  0.101699  0  1.02933  0
H  H8  1  0.53135601  0.93711322  0.42340520  1  0  0.111072  0.111948  0  1.03023  0
H  H9  1  0.46862082  0.06287508  0.57658178  1  0  0.111075  0.11197  0  1.030343  0
H  H10  1  0.64445854  0.87193330  0.89430112  1  0  0.097897  0.091981  0  1.017733  0
H  H11  1  0.35554379  0.12806212  0.10568720  1  0  0.097901  0.092034  0  1.017742  0
H  H12  1  0.33446102  0.82861529  0.01962831  1  0  0.096429  0.08807  0  1.037702  0
H  H13  1  0.66557156  0.17138345  0.98037062  1  0  0.096457  0.088128  0  1.037719  0
H  H14  1  0.52999539  0.66527693  0.12759470  1  0  0.098385  0.09247  0  1.010643  0
H  H15  1  0.47005832  0.33473400  0.87239060  1  0  0.098384  0.092568  0  1.010602  0
H  H16  1  0.94941209  0.63627851  0.97040895  1  0  0.096788  0.091517  0  1.030036  0
H  H17  1  0.05061305  0.36372391  0.02960187  1  0  0.096788  0.091557  0  1.03002  0
H  H18  1  0.12402686  0.04221134  0.23465383  1  0  0.10468  0.102133  0  1.028934  0
H  H19  1  0.87599233  0.95781691  0.76536450  1  0  0.104729  0.102218  0  1.028925  0
H  H20  1  0.33431808  0.72152180  0.29096798  1  0  0.104592  0.10451  0  1.036646  0
H  H21  1  0.66569743  0.27847110  0.70901091  1  0  0.104522  0.104368  0  1.036646  0
H  H22  1  0.92284079  0.82759158  0.09882877  1  0  0.09543  0.089851  0  1.034502  0
H  H23  1  0.07722318  0.17244129  0.90116919  1  0  0.095401  0.089755  0  1.034704  0
C  C24  1  0.22189212  0.59647171  0.74808039  1  0  -0.011632  -0.051132  0  3.957592  0
C  C25  1  0.77808060  0.40351896  0.25192502  1  0  -0.0116  -0.050882  0  3.957656  0
C  C26  1  0.17734864  0.50594789  0.64374986  1  0  0.2393  0.634331  0  4.17477  0
C  C27  1  0.82261521  0.49404536  0.35625046  1  0  0.239139  0.633953  0  4.1752  0
C  C28  1  0.43743791  0.70453079  0.77602936  1  0  -0.073954  -0.090231  0  3.953225  0
C  C29  1  0.56255447  0.29546343  0.22396811  1  0  -0.07402  -0.09039  0  3.953347  0
C  C30  1  0.84087469  0.00279885  0.33688450  1  0  -0.017806  -0.059637  0  3.985696  0
C  C31  1  0.15912798  0.99720261  0.66311834  1  0  -0.017767  -0.059615  0  3.985698  0
C  C32  1  0.04605733  0.57416310  0.81879390  1  0  -0.078182  -0.085217  0  3.968835  0
C  C33  1  0.95394182  0.42582852  0.18121447  1  0  -0.078204  -0.08521  0  3.968744  0
C  C34  1  0.96018690  0.13658320  0.41367195  1  0  0.248843  0.610447  0  4.104777  0
C  C35  1  0.03980871  0.86342201  0.58633254  1  0  0.249004  0.610642  0  4.104599  0
C  C36  1  0.61772893  0.91288187  0.35262554  1  0  -0.070401  -0.065057  0  3.907002  0
C  C37  1  0.38227134  0.08710002  0.64736506  1  0  -0.070403  -0.065255  0  3.906873  0
C  C38  1  0.47664104  0.78788122  0.87323991  1  0  -0.092109  -0.082974  0  4.012132  0
C  C39  1  0.52336573  0.21210796  0.12675670  1  0  -0.092174  -0.083116  0  4.012223  0
C  C40  1  0.30193499  0.76389208  0.94354997  1  0  -0.092672  -0.085029  0  4.014064  0
C  C41  1  0.69809103  0.23610057  0.05644966  1  0  -0.092698  -0.085049  0  4.01411  0
C  C42  1  0.61594319  0.76104810  0.18617180  1  0  -0.086457  -0.074552  0  4.009389  0
C  C43  1  0.38409915  0.23896292  0.81381541  1  0  -0.086814  -0.075093  0  4.009996  0
C  C44  1  0.08656632  0.65652398  0.91607448  1  0  -0.09804  -0.102894  0  4.036795  0
C  C45  1  0.91344640  0.34346997  0.08393300  1  0  -0.097968  -0.102902  0  4.036827  0
C  C46  1  0.95100072  0.97094978  0.24536350  1  0  -0.078212  -0.08039  0  3.967937  0
C  C47  1  0.04902419  0.02906371  0.75464621  1  0  -0.078418  -0.080619  0  3.968005  0
C  C48  1  0.50630583  0.79177928  0.27742834  1  0  -0.087159  -0.085476  0  3.98238  0
C  C49  1  0.49370932  0.20821356  0.72256006  1  0  -0.086868  -0.084995  0  3.982147  0
C  C50  1  0.83784904  0.85117010  0.17013801  1  0  -0.096172  -0.096781  0  4.024697  0
C  C51  1  0.16219751  0.14884695  0.82986088  1  0  -0.095925  -0.096396  0  4.024985  0
O  O52  1  0.35240425  0.50900728  0.58407559  1  0  -0.435401  -0.708923  0  2.233128  0
O  O53  1  0.64754038  0.49099601  0.41592302  1  0  -0.435235  -0.708735  0  2.233069  0
O  O54  1  0.95821407  0.43105480  0.61868014  1  0  -0.359384  -0.648799  0  2.251099  0
O  O55  1  0.04174540  0.56893599  0.38132714  1  0  -0.359399  -0.648688  0  2.25132  0
O  O56  1  0.84037135  0.16327588  0.49671726  1  0  -0.303575  -0.473987  0  2.339561  0
O  O57  1  0.15958650  0.83671617  0.50328791  1  0  -0.303531  -0.473855  0  2.340267  0
O  O58  1  0.15486905  0.21958076  0.39940170  1  0  -0.359827  -0.601915  0  2.22082  0
O  O59  1  0.84509973  0.78042463  0.60061530  1  0  -0.359978  -0.60211  0  2.220371  0
