# generated using pymatgen
data_CdH14C19N2O5
_symmetry_space_group_name_H-M   'P 1'
_cell_length_a   11.75219858
_cell_length_b   11.76742978
_cell_length_c   13.27722606
_cell_angle_alpha   88.42314375
_cell_angle_beta   88.47509618
_cell_angle_gamma   79.98564319
_symmetry_Int_Tables_number   1
_chemical_formula_structural   CdH14C19N2O5
_chemical_formula_sum   'Cd4 H56 C76 N8 O20'
_cell_volume   1807.04543043
_cell_formula_units_Z   4
loop_
 _symmetry_equiv_pos_site_id
 _symmetry_equiv_pos_as_xyz
  1  'x, y, z'
loop_
 _atom_site_type_symbol
 _atom_site_label
 _atom_site_symmetry_multiplicity
 _atom_site_fract_x
 _atom_site_fract_y
 _atom_site_fract_z
 _atom_site_occupancy
 _atom_site_pbe_bader_charge
 _atom_site_pbe_bader_spin_density
 _atom_site_pbe_cm5_charge
 _atom_site_pbe_ddec_charge
 _atom_site_pbe_ddec_spin_density
 _atom_site_pbe_ddec_sum_bond_order
 _atom_site_pbe_magmom
Cd  Cd0  1  0.98115192  0.45178085  0.14808216  1  1.282327  0  0.76955  0.889082  0  2.148774  0
Cd  Cd1  1  0.54820311  0.01879700  0.35186023  1  1.281961  0  0.770288  0.888504  0  2.151546  0
Cd  Cd2  1  0.01885523  0.54821233  0.85191873  1  1.282439  0  0.769566  0.889192  0  2.14865  0
Cd  Cd3  1  0.45176685  0.98120502  0.64814035  1  1.282063  0  0.770305  0.888554  0  2.151249  0
H  H4  1  0.90297956  0.41253179  0.52907617  1  0.075924  0  0.101009  0.112259  0  1.007952  0
H  H5  1  0.58751406  0.09736145  0.97099265  1  0.077995  0  0.101086  0.112527  0  1.007421  0
H  H6  1  0.09702281  0.58749675  0.47091583  1  0.075476  0  0.100975  0.112202  0  1.007855  0
H  H7  1  0.41249523  0.90263345  0.02901552  1  0.078011  0  0.101107  0.112559  0  1.007399  0
H  H8  1  0.76314005  0.38304192  0.66903426  1  0.028747  0  0.096613  0.09273  0  1.009015  0
H  H9  1  0.61699129  0.23707104  0.83100889  1  0.029539  0  0.096646  0.092494  0  1.009531  0
H  H10  1  0.23686625  0.61699635  0.33096208  1  0.028631  0  0.096674  0.092674  0  1.009227  0
H  H11  1  0.38303172  0.76291858  0.16899795  1  0.029622  0  0.096678  0.092558  0  1.009506  0
H  H12  1  0.56500973  0.35534590  0.63234400  1  0.064719  0  0.106069  0.118361  0  1.010681  0
H  H13  1  0.64462773  0.43495813  0.86760856  1  0.065211  0  0.10618  0.118484  0  1.010185  0
H  H14  1  0.43500171  0.64467392  0.36766005  1  0.06456  0  0.106129  0.118372  0  1.010563  0
H  H15  1  0.35538144  0.56503831  0.13239650  1  0.06513  0  0.106155  0.118499  0  1.010178  0
H  H16  1  0.63612067  0.40421693  0.31525786  1  0.106848  0  0.110337  0.130136  0  1.02397  0
H  H17  1  0.59578892  0.36375259  0.18472820  1  0.107711  0  0.110348  0.129903  0  1.024003  0
H  H18  1  0.36388067  0.59579339  0.68473999  1  0.106901  0  0.110294  0.130054  0  1.024089  0
H  H19  1  0.40421241  0.63624033  0.81527839  1  0.107866  0  0.110348  0.129905  0  1.023962  0
H  H20  1  0.32010560  0.33647591  0.47862228  1  0.066032  0  0.121006  0.117479  0  0.950772  0
H  H21  1  0.66344621  0.67947357  0.02146093  1  0.06936  0  0.120826  0.117634  0  0.952129  0
H  H22  1  0.67989355  0.66354193  0.52138048  1  0.065954  0  0.120969  0.117459  0  0.950879  0
H  H23  1  0.33656306  0.32052048  0.97854730  1  0.069773  0  0.120812  0.11765  0  0.952016  0
H  H24  1  0.39200579  0.38854197  0.57847396  1  0.085715  0  0.105596  0.092825  0  1.024983  0
H  H25  1  0.61120887  0.60792577  0.92152542  1  0.083568  0  0.105705  0.09314  0  1.025183  0
H  H26  1  0.60799929  0.61146712  0.42152976  1  0.085684  0  0.105583  0.092838  0  1.024961  0
H  H27  1  0.38879955  0.39207426  0.07848020  1  0.083364  0  0.105654  0.093079  0  1.025173  0
H  H28  1  0.80857649  0.28004932  0.11494755  1  0.13227  0  0.114245  0.086172  0  1.043871  0
H  H29  1  0.71953334  0.19126030  0.38504219  1  0.130422  0  0.114036  0.085999  0  1.043452  0
H  H30  1  0.19142838  0.71993685  0.88502756  1  0.132026  0  0.114223  0.08619  0  1.043796  0
H  H31  1  0.28044920  0.80874795  0.61494577  1  0.130046  0  0.114096  0.086009  0  1.043506  0
H  H32  1  0.79351836  0.07295256  0.12282539  1  0.139824  0  0.108311  0.118459  0  1.050052  0
H  H33  1  0.92699526  0.20622365  0.37718138  1  0.141704  0  0.10848  0.118775  0  1.049404  0
H  H34  1  0.20649991  0.92703335  0.87717523  1  0.139676  0  0.108349  0.118436  0  1.049889  0
H  H35  1  0.07298991  0.79376839  0.62281506  1  0.141622  0  0.108515  0.118838  0  1.049371  0
H  H36  1  0.78784974  0.90416545  0.14353965  1  0.150552  0  0.112761  0.135525  0  1.014026  0
H  H37  1  0.09575813  0.21189206  0.35645778  1  0.149658  0  0.112821  0.135271  0  1.014404  0
H  H38  1  0.21218073  0.09582383  0.85644179  1  0.150551  0  0.112898  0.135759  0  1.013914  0
H  H39  1  0.90421146  0.78809802  0.64354137  1  0.149736  0  0.112816  0.135292  0  1.01447  0
H  H40  1  0.79497183  0.69361732  0.16965796  1  0.145726  0  0.126988  0.106693  0  0.970869  0
H  H41  1  0.30663400  0.20479010  0.33030340  1  0.145329  0  0.126917  0.106974  0  0.970642  0
H  H42  1  0.20505240  0.30637543  0.83031839  1  0.145967  0  0.12704  0.106711  0  0.970715  0
H  H43  1  0.69333399  0.79521120  0.66969283  1  0.146022  0  0.126911  0.106861  0  0.970683  0
H  H44  1  0.15244392  0.62852414  0.15865228  1  0.101189  0  0.111594  0.074266  0  1.042393  0
H  H45  1  0.37176215  0.84778298  0.34127500  1  0.100644  0  0.11164  0.074365  0  1.042758  0
H  H46  1  0.84758188  0.37146269  0.84135984  1  0.101027  0  0.111588  0.074209  0  1.042832  0
H  H47  1  0.62822016  0.15221878  0.65874739  1  0.10022  0  0.111668  0.074287  0  1.042714  0
H  H48  1  0.16369710  0.83351988  0.13332540  1  0.088858  0  0.101848  0.101379  0  1.05712  0
H  H49  1  0.16643620  0.83657499  0.36669754  1  0.090577  0  0.102003  0.101321  0  1.05722  0
H  H50  1  0.83633255  0.16647428  0.86670860  1  0.089068  0  0.101893  0.101356  0  1.05732  0
H  H51  1  0.83354967  0.16341542  0.63333218  1  0.091656  0  0.101964  0.101191  0  1.057456  0
H  H52  1  0.16816160  0.99827791  0.11689264  1  0.070373  0  0.109932  0.11881  0  1.004546  0
H  H53  1  0.00170110  0.83211876  0.38309544  1  0.071797  0  0.110231  0.119282  0  1.004171  0
H  H54  1  0.83185619  0.00172096  0.88310939  1  0.070481  0  0.110016  0.118963  0  1.004476  0
H  H55  1  0.99826030  0.16787325  0.61689509  1  0.071582  0  0.110146  0.119247  0  1.003946  0
H  H56  1  0.16570079  0.20851415  0.11228663  1  0.129997  0  0.117788  0.094529  0  1.002036  0
H  H57  1  0.79112505  0.83459626  0.38767254  1  0.115564  0  0.118082  0.094768  0  1.002659  0
H  H58  1  0.83430953  0.79148884  0.88770280  1  0.130155  0  0.117756  0.094503  0  1.001901  0
H  H59  1  0.20883743  0.16540969  0.61229733  1  0.115566  0  0.118053  0.094705  0  1.002595  0
C  C60  1  0.85907807  0.42428118  0.32652269  1  1.541059  0  0.184649  0.547406  0  4.242941  0
C  C61  1  0.57568192  0.14109016  0.17348339  1  1.537952  0  0.185136  0.547726  0  4.24119  0
C  C62  1  0.14091689  0.57573332  0.67346701  1  1.541024  0  0.184864  0.547812  0  4.242504  0
C  C63  1  0.42430984  0.85890951  0.82651963  1  1.538362  0  0.185104  0.547891  0  4.241462  0
C  C64  1  0.77805810  0.40863639  0.41337304  1  -0.046902  0  -0.020059  -0.008903  0  3.998075  0
C  C65  1  0.59135995  0.22207893  0.08664666  1  -0.089639  0  -0.02  -0.008657  0  3.996678  0
C  C66  1  0.22194217  0.59137638  0.58661943  1  -0.047591  0  -0.020166  -0.009135  0  3.998062  0
C  C67  1  0.40863629  0.77792089  0.91335905  1  -0.089562  0  -0.019928  -0.008677  0  3.996759  0
C  C68  1  0.81495198  0.40178950  0.51340271  1  -0.048796  0  -0.101852  -0.145672  0  4.003393  0
C  C69  1  0.59823084  0.18527784  0.98664374  1  -0.007058  0  -0.101846  -0.145899  0  4.002122  0
C  C70  1  0.18505384  0.59823090  0.48659263  1  -0.048221  0  -0.101772  -0.145483  0  4.003117  0
C  C71  1  0.40177407  0.81471867  0.01336312  1  -0.007027  0  -0.101867  -0.145837  0  4.002111  0
C  C72  1  0.73681379  0.38408477  0.59075848  1  -0.031744  0  -0.094454  -0.057694  0  4.043585  0
C  C73  1  0.61594651  0.26334746  0.90926579  1  -0.033716  0  -0.094486  -0.057554  0  4.044186  0
C  C74  1  0.26319124  0.61594083  0.40923580  1  -0.032362  0  -0.094542  -0.057725  0  4.043381  0
C  C75  1  0.38406959  0.73664682  0.09073970  1  -0.034289  0  -0.094521  -0.057745  0  4.04427  0
C  C76  1  0.62434076  0.36842761  0.57037325  1  0.019533  0  -0.10789  -0.215953  0  3.985088  0
C  C77  1  0.63158072  0.37566998  0.92961115  1  0.017846  0  -0.107789  -0.215933  0  3.984743  0
C  C78  1  0.37566869  0.63159064  0.42962651  1  0.019316  0  -0.107955  -0.215922  0  3.984718  0
C  C79  1  0.36842934  0.62432382  0.07039554  1  0.018181  0  -0.107761  -0.215831  0  3.984686  0
C  C80  1  0.58837864  0.37396237  0.47017123  1  0.395606  0  0.085656  0.258594  0  4.053439  0
C  C81  1  0.62603682  0.41153315  0.02979870  1  0.394846  0  0.085565  0.258763  0  4.051631  0
C  C82  1  0.41162280  0.62604887  0.52982806  1  0.396398  0  0.085629  0.258613  0  4.053452  0
C  C83  1  0.37396449  0.58846389  0.97020535  1  0.394844  0  0.08561  0.258694  0  4.051737  0
C  C84  1  0.66480842  0.39716706  0.39265438  1  0.00251  0  -0.09355  -0.216219  0  3.946982  0
C  C85  1  0.60284125  0.33515548  0.10733205  1  0.001468  0  -0.093596  -0.216174  0  3.946573  0
C  C86  1  0.33519393  0.60284324  0.60734642  1  0.003216  0  -0.093457  -0.216073  0  3.946877  0
C  C87  1  0.39715576  0.66484325  0.89267218  1  0.001422  0  -0.09362  -0.216195  0  3.946599  0
C  C88  1  0.40384016  0.32851657  0.51564127  1  0.448928  0  -0.06665  -0.128487  0  3.908242  0
C  C89  1  0.67139147  0.59595545  0.98436038  1  0.448477  0  -0.06611  -0.128733  0  3.909436  0
C  C90  1  0.59616142  0.67149316  0.48436188  1  0.448874  0  -0.066692  -0.128514  0  3.908466  0
C  C91  1  0.32861434  0.40404093  0.01564718  1  0.448341  0  -0.066136  -0.128733  0  3.909371  0
C  C92  1  0.43690253  0.20492126  0.55648038  1  1.556694  0  0.189987  0.567805  0  4.223585  0
C  C93  1  0.79508319  0.56304449  0.94351044  1  1.556196  0  0.189425  0.567212  0  4.223145  0
C  C94  1  0.56308333  0.79508636  0.44352249  1  1.556687  0  0.189839  0.567462  0  4.223617  0
C  C95  1  0.20492355  0.43694598  0.05650123  1  1.55618  0  0.189515  0.567358  0  4.22322  0
C  C96  1  0.88620876  0.21427384  0.11520200  1  0.453598  0  0.048496  0.104572  0  3.930553  0
C  C97  1  0.78541217  0.11374141  0.38483012  1  0.450824  0  0.047612  0.103337  0  3.931051  0
C  C98  1  0.11380283  0.78571430  0.88478535  1  0.453527  0  0.048496  0.10474  0  3.930394  0
C  C99  1  0.21457562  0.88626009  0.61516172  1  0.453339  0  0.0476  0.103337  0  3.930824  0
C  C100  1  0.87868460  0.09768874  0.11972139  1  -0.005319  0  -0.081579  -0.166901  0  3.908868  0
C  C101  1  0.90215739  0.12121667  0.38030908  1  -0.003407  0  -0.080749  -0.166226  0  3.907505  0
C  C102  1  0.12133205  0.90230092  0.88027985  1  -0.005668  0  -0.081685  -0.167019  0  3.908869  0
C  C103  1  0.09781736  0.87877651  0.61968724  1  -0.004255  0  -0.080816  -0.166221  0  3.907011  0
C  C104  1  0.98006057  0.01474273  0.12284178  1  -0.06255  0  0.009992  0.096307  0  3.970949  0
C  C105  1  0.98515363  0.01994614  0.37719910  1  -0.061031  0  0.009573  0.096046  0  3.972309  0
C  C106  1  0.01996165  0.98524879  0.87716574  1  -0.062508  0  0.010005  0.09618  0  3.971187  0
C  C107  1  0.01482658  0.98004879  0.62280126  1  -0.0623  0  0.009519  0.095857  0  3.971977  0
C  C108  1  0.97641426  0.88997287  0.13525425  1  -0.016381  0  0.012356  0.100429  0  3.96326  0
C  C109  1  0.11004833  0.02359631  0.36476062  1  -0.015444  0  0.012431  0.100312  0  3.964572  0
C  C110  1  0.02361395  0.11001824  0.86475137  1  -0.016796  0  0.012412  0.10061  0  3.962868  0
C  C111  1  0.88992945  0.97639349  0.63524629  1  -0.014955  0  0.012446  0.100257  0  3.964695  0
C  C112  1  0.87179092  0.84727024  0.14539931  1  -0.045843  0  -0.078416  -0.170158  0  3.904743  0
C  C113  1  0.15275634  0.12808966  0.35459872  1  -0.045934  0  -0.078356  -0.169871  0  3.904893  0
C  C114  1  0.12823919  0.15272052  0.85459187  1  -0.046638  0  -0.078643  -0.170582  0  3.904712  0
C  C115  1  0.84721859  0.87190536  0.64540049  1  -0.046585  0  -0.078456  -0.170044  0  3.904829  0
C  C116  1  0.87449576  0.72924903  0.16007870  1  0.422091  0  0.051768  0.099148  0  3.92739  0
C  C117  1  0.27091415  0.12539884  0.33988652  1  0.425542  0  0.052603  0.099833  0  3.925989  0
C  C118  1  0.12552983  0.27074155  0.83990902  1  0.422167  0  0.05169  0.099192  0  3.927043  0
C  C119  1  0.72905909  0.87459821  0.66011266  1  0.425266  0  0.052675  0.100077  0  3.925252  0
C  C120  1  0.07368498  0.69267438  0.15547493  1  0.486469  0  0.046898  0.099876  0  3.971427  0
C  C121  1  0.30751548  0.92641170  0.34447785  1  0.485808  0  0.046819  0.099592  0  3.971963  0
C  C122  1  0.92634155  0.30731464  0.84453322  1  0.487122  0  0.046937  0.099862  0  3.972164  0
C  C123  1  0.69246393  0.07358446  0.65554135  1  0.486435  0  0.046551  0.099405  0  3.972442  0
C  C124  1  0.07886085  0.80882334  0.14106117  1  -0.01026  0  -0.084639  -0.173993  0  3.955518  0
C  C125  1  0.19122750  0.92126081  0.35893493  1  -0.008735  0  -0.084529  -0.173295  0  3.955623  0
C  C126  1  0.92116942  0.19116775  0.85895110  1  -0.009679  0  -0.084643  -0.173875  0  3.955924  0
C  C127  1  0.80875189  0.07873450  0.64108433  1  -0.009645  0  -0.084389  -0.172884  0  3.955897  0
C  C128  1  0.08518015  0.05626803  0.11676619  1  0.010267  0  -0.083825  -0.173574  0  3.947246  0
C  C129  1  0.94361260  0.91496953  0.38326647  1  0.010374  0  -0.083562  -0.173498  0  3.947239  0
C  C130  1  0.91483774  0.94373095  0.88323809  1  0.010556  0  -0.083917  -0.173765  0  3.947362  0
C  C131  1  0.05635489  0.08502052  0.61672528  1  0.010703  0  -0.083394  -0.173383  0  3.946414  0
C  C132  1  0.08517462  0.17439937  0.11298562  1  0.452804  0  0.047306  0.096376  0  3.963085  0
C  C133  1  0.82532984  0.91498209  0.38703569  1  0.466076  0  0.046951  0.095712  0  3.963101  0
C  C134  1  0.91483580  0.82559957  0.88700786  1  0.452733  0  0.0473  0.096425  0  3.96292  0
C  C135  1  0.17464183  0.08502437  0.61294408  1  0.46714  0  0.046858  0.095828  0  3.962789  0
N  N136  1  0.98741652  0.25308527  0.11353908  1  -1.230196  0  -0.32504  -0.239566  0  3.467446  0
N  N137  1  0.74660298  0.01265256  0.38649881  1  -1.229555  0  -0.324776  -0.237754  0  3.471888  0
N  N138  1  0.01259086  0.74691043  0.88644729  1  -1.230172  0  -0.32499  -0.239697  0  3.467334  0
N  N139  1  0.25336816  0.98735274  0.61348863  1  -1.230645  0  -0.324677  -0.237674  0  3.471922  0
N  N140  1  0.97373265  0.65252414  0.16446803  1  -1.228527  0  -0.325444  -0.236387  0  3.489043  0
N  N141  1  0.34765618  0.02625657  0.33548102  1  -1.232062  0  -0.326165  -0.236353  0  3.492542  0
N  N142  1  0.02629339  0.34746687  0.83552870  1  -1.228825  0  -0.325412  -0.2364  0  3.488816  0
N  N143  1  0.65232017  0.97374213  0.66452764  1  -1.232928  0  -0.326044  -0.2363  0  3.492379  0
O  O144  1  0.81308118  0.46086578  0.24260533  1  -1.15097  0  -0.337719  -0.552308  0  2.215484  0
O  O145  1  0.53911912  0.18693201  0.25738633  1  -1.14975  0  -0.337728  -0.552861  0  2.215405  0
O  O146  1  0.18691134  0.53914770  0.75738838  1  -1.150666  0  -0.337836  -0.552613  0  2.215509  0
O  O147  1  0.46086033  0.81306650  0.74261459  1  -1.150089  0  -0.337802  -0.552986  0  2.215508  0
O  O148  1  0.96761514  0.39749599  0.33816445  1  -1.157801  0  -0.347105  -0.580374  0  2.112268  0
O  O149  1  0.60243289  0.03272618  0.16181219  1  -1.155109  0  -0.3476  -0.580554  0  2.111861  0
O  O150  1  0.03238315  0.60251853  0.66182200  1  -1.157863  0  -0.347136  -0.580458  0  2.112235  0
O  O151  1  0.39756842  0.96727417  0.83819012  1  -1.155089  0  -0.34753  -0.580575  0  2.111997  0
O  O152  1  0.48151843  0.36013013  0.44020119  1  -1.073176  0  -0.176802  -0.169468  0  2.573405  0
O  O153  1  0.63981194  0.51824591  0.05974618  1  -1.073079  0  -0.177133  -0.169896  0  2.572946  0
O  O154  1  0.51848475  0.63987500  0.55980142  1  -1.072949  0  -0.176701  -0.169461  0  2.57344  0
O  O155  1  0.36018513  0.48175370  0.94025873  1  -1.073284  0  -0.177129  -0.169846  0  2.572988  0
O  O156  1  0.49613433  0.12757457  0.50295658  1  -1.191535  0  -0.331511  -0.571343  0  2.331285  0
O  O157  1  0.87263815  0.50378387  0.99697640  1  -1.190488  0  -0.330983  -0.570467  0  2.332836  0
O  O158  1  0.50385298  0.87242830  0.49704275  1  -1.191921  0  -0.33137  -0.571095  0  2.331384  0
O  O159  1  0.12735798  0.49619513  0.00303755  1  -1.190137  0  -0.330996  -0.570544  0  2.332975  0
O  O160  1  0.39955165  0.18527701  0.64515422  1  -1.160159  0  -0.335297  -0.553643  0  2.167146  0
O  O161  1  0.81464353  0.60052993  0.85486145  1  -1.159874  0  -0.334923  -0.552813  0  2.166854  0
O  O162  1  0.60042684  0.81472903  0.35484097  1  -1.160044  0  -0.335292  -0.553553  0  2.166985  0
O  O163  1  0.18537212  0.39946492  0.14515233  1  -1.16009  0  -0.334952  -0.552913  0  2.166807  0
