# generated using pymatgen
data_ErH11C16(NO7)2
_symmetry_space_group_name_H-M   'P 1'
_cell_length_a   9.11494889
_cell_length_b   9.98948057
_cell_length_c   13.17724879
_cell_angle_alpha   114.17782863
_cell_angle_beta   96.12376441
_cell_angle_gamma   111.54017759
_symmetry_Int_Tables_number   1
_chemical_formula_structural   ErH11C16(NO7)2
_chemical_formula_sum   'Er2 H22 C32 N4 O28'
_cell_volume   970.30151245
_cell_formula_units_Z   2
loop_
 _symmetry_equiv_pos_site_id
 _symmetry_equiv_pos_as_xyz
  1  'x, y, z'
loop_
 _atom_site_type_symbol
 _atom_site_label
 _atom_site_symmetry_multiplicity
 _atom_site_fract_x
 _atom_site_fract_y
 _atom_site_fract_z
 _atom_site_occupancy
 _atom_site_hle17_bader_spin_density
 _atom_site_hle17_ddec_charge
 _atom_site_hle17_ddec_spin_density
 _atom_site_hle17_ddec_sum_bond_order
 _atom_site_hle17_magmom
 _atom_site_hse06_10hf_bader_spin_density
 _atom_site_hse06_10hf_ddec_charge
 _atom_site_hse06_10hf_ddec_spin_density
 _atom_site_hse06_10hf_ddec_sum_bond_order
 _atom_site_hse06_10hf_magmom
 _atom_site_hse06_bader_spin_density
 _atom_site_hse06_ddec_charge
 _atom_site_hse06_ddec_spin_density
 _atom_site_hse06_ddec_sum_bond_order
 _atom_site_hse06_magmom
 _atom_site_pbe_bader_spin_density
 _atom_site_pbe_cm5_charge
 _atom_site_pbe_ddec_charge
 _atom_site_pbe_ddec_spin_density
 _atom_site_pbe_ddec_sum_bond_order
 _atom_site_pbe_magmom
Er  Er0  1  0.20302369  0.43854967  0.46764868  1  0  2.300236  0  1.577818  0  0  2.23678  0  1.890695  0  0  2.285522  0  1.849396  0  0  1.510431  2.116085  0  2.078667  0
Er  Er1  1  0.79697129  0.56144220  0.53234768  1  0  2.300278  0  1.577897  0  0  2.236806  0  1.89079  0  0  2.285555  0  1.849487  0  0  1.510444  2.116079  0  2.078818  0
H  H2  1  0.88705800  0.96690787  0.24682839  1  0  0.415178  0  0.83342  0  0  0.385604  0  0.911359  0  0  0.397814  0  0.897153  0  0  0.318235  0.376618  0  0.921974  0
H  H3  1  0.11295026  0.03311171  0.75316705  1  0  0.415032  0  0.833574  0  0  0.385526  0  0.911442  0  0  0.397738  0  0.897231  0  0  0.31819  0.376548  0  0.92205  0
H  H4  1  0.58820822  0.79267933  0.88191510  1  0  0.122029  0  0.92831  0  0  0.129129  0  0.991926  0  0  0.133278  0  0.987943  0  0  0.120461  0.125951  0  0.995133  0
H  H5  1  0.41179707  0.20731933  0.11807466  1  0  0.122124  0  0.928188  0  0  0.129115  0  0.991939  0  0  0.133259  0  0.987964  0  0  0.120446  0.125937  0  0.995147  0
H  H6  1  0.48989401  0.67729858  0.15635116  1  0  0.121413  0  0.95727  0  0  0.124643  0  1.029398  0  0  0.127889  0  1.02766  0  0  0.113997  0.122319  0  1.030542  0
H  H7  1  0.51012872  0.32272260  0.84365379  1  0  0.121396  0  0.957223  0  0  0.12461  0  1.029355  0  0  0.127857  0  1.027615  0  0  0.113977  0.122283  0  1.030499  0
H  H8  1  0.11600939  0.40463774  0.82223010  1  0  0.134554  0  0.956382  0  0  0.134103  0  1.0311  0  0  0.138935  0  1.025904  0  0  0.11869  0.130514  0  1.035111  0
H  H9  1  0.88399686  0.59537944  0.17778656  1  0  0.134462  0  0.95645  0  0  0.134058  0  1.031115  0  0  0.138895  0  1.025913  0  0  0.118641  0.130469  0  1.035121  0
H  H10  1  0.81676858  0.95489354  0.45074435  1  0  0.133435  0  0.908792  0  0  0.142189  0  0.966493  0  0  0.146598  0  0.962581  0  0  0.124273  0.138675  0  0.970247  0
H  H11  1  0.18322006  0.04508877  0.54925340  1  0  0.133554  0  0.908758  0  0  0.142217  0  0.966558  0  0  0.146628  0  0.962636  0  0  0.124253  0.138709  0  0.970313  0
H  H12  1  0.53402922  0.13508620  0.30636846  1  0  0.138544  0  0.953442  0  0  0.140676  0  1.022788  0  0  0.145225  0  1.01909  0  0  0.122254  0.137401  0  1.025421  0
H  H13  1  0.46594760  0.86489637  0.69363187  1  0  0.138486  0  0.953384  0  0  0.14069  0  1.02264  0  0  0.145237  0  1.018949  0  0  0.122235  0.137407  0  1.025287  0
H  H14  1  0.28534895  0.71820253  0.35857487  1  0  0.13135  0  0.962071  0  0  0.131398  0  1.037689  0  0  0.136445  0  1.032366  0  0  0.121265  0.127635  0  1.041397  0
H  H15  1  0.71463881  0.28178887  0.64143318  1  0  0.131417  0  0.962135  0  0  0.131393  0  1.037822  0  0  0.136498  0  1.032444  0  0  0.121266  0.127635  0  1.041528  0
H  H16  1  0.99294939  0.49217044  0.31382870  1  0  0.450459  0  0.845801  0  0  0.420691  0  0.906347  0  0  0.431199  0  0.891121  0  0  0.305524  0.412657  0  0.917784  0
H  H17  1  0.00704816  0.50782740  0.68616653  1  0  0.45055  0  0.845668  0  0  0.420768  0  0.906238  0  0  0.431273  0  0.891015  0  0  0.305556  0.412741  0  0.917669  0
H  H18  1  0.10111841  0.41788447  0.23733792  1  0  0.454444  0  0.822767  0  0  0.424954  0  0.882252  0  0  0.435554  0  0.8663  0  0  0.313684  0.416844  0  0.894241  0
H  H19  1  0.89888053  0.58211111  0.76266050  1  0  0.454483  0  0.82272  0  0  0.424977  0  0.88223  0  0  0.435578  0  0.866277  0  0  0.313666  0.416863  0  0.894226  0
H  H20  1  0.38405643  0.32860134  0.30686159  1  0  0.441557  0  0.854749  0  0  0.410366  0  0.919967  0  0  0.421112  0  0.904129  0  0  0.302589  0.402305  0  0.931503  0
H  H21  1  0.61594196  0.67140280  0.69313787  1  0  0.441549  0  0.854755  0  0  0.410338  0  0.920008  0  0  0.421092  0  0.904156  0  0  0.302554  0.402266  0  0.931553  0
H  H22  1  0.21513274  0.17080168  0.26224196  1  0  0.438892  0  0.846915  0  0  0.413044  0  0.901177  0  0  0.42233  0  0.887349  0  0  0.312834  0.406226  0  0.911069  0
H  H23  1  0.78486681  0.82920250  0.73775832  1  0  0.438809  0  0.847023  0  0  0.412951  0  0.901301  0  0  0.422238  0  0.887471  0  0  0.312789  0.406132  0  0.911195  0
C  C24  1  0.29769216  0.54980494  0.71269886  1  0  0.661474  0  3.885331  0  0  0.611395  0  4.177302  0  0  0.645436  0  4.170479  0  0  0.213358  0.589219  0  4.173644  0
C  C25  1  0.70230982  0.45019044  0.28729660  1  0  0.661474  0  3.885271  0  0  0.61145  0  4.177148  0  0  0.64548  0  4.170335  0  0  0.213371  0.589277  0  4.173486  0
C  C26  1  0.34781698  0.59245369  0.83767578  1  0  -0.051673  0  3.708267  0  0  -0.0226  0  3.940143  0  0  -0.033837  0  3.962933  0  0  -0.005169  -0.01656  0  3.926388  0
C  C27  1  0.65219995  0.40756159  0.16233092  1  0  -0.051806  0  3.708353  0  0  -0.022773  0  3.940246  0  0  -0.034005  0  3.963036  0  0  -0.005303  -0.016733  0  3.926491  0
C  C28  1  0.50439929  0.71870216  0.91243103  1  0  -0.008508  0  3.612333  0  0  -0.052293  0  3.859877  0  0  -0.04618  0  3.875582  0  0  -0.045893  -0.055733  0  3.849429  0
C  C29  1  0.49561531  0.28130657  0.08756675  1  0  -0.008564  0  3.611837  0  0  -0.052279  0  3.859354  0  0  -0.046166  0  3.875066  0  0  -0.045815  -0.055718  0  3.848905  0
C  C30  1  0.55636256  0.75015804  0.02705922  1  0  -0.06116  0  3.741519  0  0  -0.035533  0  3.979976  0  0  -0.046807  0  4.004271  0  0  -0.008868  -0.028382  0  3.963188  0
C  C31  1  0.44364370  0.24984542  0.97292974  1  0  -0.061121  0  3.741002  0  0  -0.035347  0  3.979364  0  0  -0.046623  0  4.003663  0  0  -0.008812  -0.028207  0  3.962582  0
C  C32  1  0.45053034  0.65716896  0.06830512  1  0  -0.081006  0  3.674076  0  0  -0.122411  0  3.932732  0  0  -0.118299  0  3.95213  0  0  -0.064885  -0.124364  0  3.918975  0
C  C33  1  0.54948672  0.34284482  0.93169657  1  0  -0.081135  0  3.674041  0  0  -0.122572  0  3.932662  0  0  -0.118467  0  3.952058  0  0  -0.064931  -0.124522  0  3.918903  0
C  C34  1  0.29141481  0.53870021  0.99436720  1  0  0.062382  0  3.697068  0  0  0.056988  0  3.960131  0  0  0.051012  0  3.982893  0  0  0.078755  0.060475  0  3.944727  0
C  C35  1  0.70860212  0.46131507  0.00563950  1  0  0.062586  0  3.697002  0  0  0.057299  0  3.959902  0  0  0.051341  0  3.982638  0  0  0.078791  0.060787  0  3.944495  0
C  C36  1  0.23823634  0.50314440  0.87928614  1  0  -0.046665  0  3.62236  0  0  -0.088716  0  3.878639  0  0  -0.082471  0  3.892514  0  0  -0.053141  -0.092613  0  3.870074  0
C  C37  1  0.76177632  0.49686611  0.12072120  1  0  -0.046651  0  3.6224  0  0  -0.088762  0  3.878612  0  0  -0.082522  0  3.892481  0  0  -0.053102  -0.092658  0  3.870044  0
C  C38  1  0.72282369  0.88961718  0.10522204  1  0  0.64022  0  3.829268  0  0  0.59183  0  4.129351  0  0  0.623275  0  4.123521  0  0  0.226056  0.570389  0  4.132919  0
C  C39  1  0.27719332  0.11036891  0.89476219  1  0  0.64046  0  3.829023  0  0  0.591861  0  4.129426  0  0  0.623309  0  4.123589  0  0  0.2259  0.570428  0  4.132994  0
C  C40  1  0.56113815  0.71242243  0.45541799  1  0  0.728522  0  3.855675  0  0  0.68163  0  4.148358  0  0  0.71696  0  4.137827  0  0  0.23474  0.656757  0  4.150179  0
C  C41  1  0.43885201  0.28757322  0.54458005  1  0  0.728668  0  3.855253  0  0  0.681755  0  4.148028  0  0  0.717075  0  4.137508  0  0  0.234754  0.656875  0  4.149861  0
C  C42  1  0.55242971  0.82507903  0.40913620  1  0  -0.071449  0  3.718253  0  0  -0.042742  0  3.949789  0  0  -0.054078  0  3.973335  0  0  -0.010516  -0.036373  0  3.93626  0
C  C43  1  0.44757767  0.17491455  0.59087112  1  0  -0.071447  0  3.718347  0  0  -0.04271  0  3.949897  0  0  -0.054047  0  3.973456  0  0  -0.010502  -0.036346  0  3.93638  0
C  C44  1  0.69821187  0.94651408  0.41531299  1  0  -0.018089  0  3.615863  0  0  -0.06362  0  3.869873  0  0  -0.057614  0  3.884709  0  0  -0.053221  -0.068276  0  3.862279  0
C  C45  1  0.30177765  0.05348030  0.58468388  1  0  -0.0183  0  3.615791  0  0  -0.063792  0  3.869818  0  0  -0.05778  0  3.884647  0  0  -0.053277  -0.068457  0  3.862234  0
C  C46  1  0.69235849  0.06012852  0.38084083  1  0  -0.05591  0  3.724128  0  0  -0.028029  0  3.959159  0  0  -0.038382  0  3.981173  0  0  -0.0049  -0.022296  0  3.946682  0
C  C47  1  0.30764181  0.93986723  0.61916074  1  0  -0.05574  0  3.724122  0  0  -0.027834  0  3.959054  0  0  -0.038184  0  3.981069  0  0  -0.004834  -0.022097  0  3.946573  0
C  C48  1  0.54035020  0.04697165  0.33286126  1  0  -0.0775  0  3.647781  0  0  -0.118314  0  3.904811  0  0  -0.11388  0  3.920918  0  0  -0.061249  -0.121523  0  3.895015  0
C  C49  1  0.45963698  0.95301935  0.66713980  1  0  -0.07745  0  3.647891  0  0  -0.118322  0  3.904887  0  0  -0.113898  0  3.921002  0  0  -0.061234  -0.121543  0  3.89507  0
C  C50  1  0.39664818  0.92095607  0.32372146  1  0  0.04653  0  3.721804  0  0  0.043647  0  3.984193  0  0  0.037104  0  4.008336  0  0  0.074832  0.047616  0  3.968142  0
C  C51  1  0.60333431  0.07903232  0.67627557  1  0  0.046349  0  3.721817  0  0  0.043523  0  3.984197  0  0  0.036983  0  4.008351  0  0  0.074772  0.047541  0  3.968067  0
C  C52  1  0.39932465  0.81200823  0.36335408  1  0  -0.07764  0  3.684764  0  0  -0.119014  0  3.943636  0  0  -0.114561  0  3.961224  0  0  -0.062707  -0.121089  0  3.931871  0
C  C53  1  0.60066985  0.18798651  0.63664997  1  0  -0.077648  0  3.685297  0  0  -0.118994  0  3.944189  0  0  -0.114598  0  3.961746  0  0  -0.062737  -0.121098  0  3.932434  0
C  C54  1  0.85163141  0.19926038  0.40178855  1  0  0.711614  0  3.854177  0  0  0.663193  0  4.150432  0  0  0.698589  0  4.139599  0  0  0.233358  0.639116  0  4.147865  0
C  C55  1  0.14835435  0.80073042  0.59820859  1  0  0.71155  0  3.854026  0  0  0.663211  0  4.150136  0  0  0.698611  0  4.139298  0  0  0.233183  0.639135  0  4.147565  0
N  N56  1  0.17561546  0.44701019  0.03886321  1  0  0.505512  0  3.888294  0  0  0.532221  0  4.187747  0  0  0.553525  0  4.196459  0  0  0.060986  0.51799  0  4.181915  0
N  N57  1  0.82439824  0.55300516  0.96114413  1  0  0.505324  0  3.888556  0  0  0.532011  0  4.188005  0  0  0.553313  0  4.19672  0  0  0.060963  0.517784  0  4.182165  0
N  N58  1  0.23640569  0.90967918  0.27774280  1  0  0.514688  0  3.871795  0  0  0.53656  0  4.175524  0  0  0.557861  0  4.184173  0  0  0.061584  0.522271  0  4.170017  0
N  N59  1  0.76358617  0.09031603  0.72226887  1  0  0.514549  0  3.872049  0  0  0.536432  0  4.175801  0  0  0.557726  0  4.184456  0  0  0.061537  0.522131  0  4.170283  0
O  O60  1  0.14827621  0.44815817  0.64880214  1  0  -0.679004  0  2.037922  0  0  -0.630542  0  2.265161  0  0  -0.656129  0  2.256596  0  0  -0.347465  -0.604367  0  2.270945  0
O  O61  1  0.85172293  0.55183755  0.35119861  1  0  -0.679013  0  2.037823  0  0  -0.630556  0  2.265026  0  0  -0.656134  0  2.256465  0  0  -0.347489  -0.604377  0  2.270808  0
O  O62  1  0.40416755  0.61169188  0.66883539  1  0  -0.696276  0  2.06822  0  0  -0.647056  0  2.304208  0  0  -0.673152  0  2.295559  0  0  -0.338484  -0.620807  0  2.308892  0
O  O63  1  0.59582538  0.38830339  0.33115658  1  0  -0.69626  0  2.068098  0  0  -0.647068  0  2.30407  0  0  -0.673156  0  2.295427  0  0  -0.338506  -0.620825  0  2.308764  0
O  O64  1  0.78475913  0.01495808  0.09738634  1  0  -0.510214  0  1.85448  0  0  -0.476205  0  2.039351  0  0  -0.494529  0  2.032934  0  0  -0.288401  -0.463807  0  2.04375  0
O  O65  1  0.21527737  0.98502851  0.90258905  1  0  -0.510252  0  1.854669  0  0  -0.476181  0  2.039669  0  0  -0.494498  0  2.033234  0  0  -0.288179  -0.463778  0  2.044059  0
O  O66  1  0.79228163  0.86139761  0.18488150  1  0  -0.556649  0  2.102238  0  0  -0.511956  0  2.327931  0  0  -0.534562  0  2.315442  0  0  -0.334772  -0.496003  0  2.336758  0
O  O67  1  0.20773631  0.13861356  0.81511716  1  0  -0.55654  0  2.101993  0  0  -0.511897  0  2.327761  0  0  -0.534516  0  2.315298  0  0  -0.334739  -0.49595  0  2.336585  0
O  O68  1  0.23245047  0.46643313  0.13729657  1  0  -0.380571  0  1.78138  0  0  -0.349266  0  1.984831  0  0  -0.364787  0  1.981562  0  0  -0.122305  -0.339371  0  1.987741  0
O  O69  1  0.76756052  0.53358105  0.86271105  1  0  -0.38056  0  1.78164  0  0  -0.349233  0  1.985088  0  0  -0.364769  0  1.981846  0  0  -0.122258  -0.339334  0  1.987992  0
O  O70  1  0.02948336  0.35766831  0.97855591  1  0  -0.326445  0  1.765599  0  0  -0.320691  0  1.976719  0  0  -0.33148  0  1.973279  0  0  -0.115469  -0.313442  0  1.979272  0
O  O71  1  0.97053535  0.64233849  0.02145135  1  0  -0.326272  0  1.765435  0  0  -0.320575  0  1.976611  0  0  -0.331367  0  1.973176  0  0  -0.115455  -0.313331  0  1.979161  0
O  O72  1  0.42694137  0.61401722  0.45734369  1  0  -0.75518  0  2.123988  0  0  -0.718729  0  2.39869  0  0  -0.743629  0  2.384495  0  0  -0.419096  -0.686125  0  2.409197  0
O  O73  1  0.57306792  0.38598348  0.54266131  1  0  -0.755197  0  2.12374  0  0  -0.71873  0  2.398443  0  0  -0.743629  0  2.384257  0  0  -0.419065  -0.686111  0  2.40895  0
O  O74  1  0.70241541  0.72475735  0.49077278  1  0  -0.717297  0  2.068935  0  0  -0.684086  0  2.322691  0  0  -0.709227  0  2.312828  0  0  -0.383569  -0.654636  0  2.331884  0
O  O75  1  0.29757942  0.27522548  0.50921401  1  0  -0.717415  0  2.068987  0  0  -0.684173  0  2.322726  0  0  -0.709303  0  2.31285  0  0  -0.383586  -0.65473  0  2.331926  0
O  O76  1  0.97231999  0.16944835  0.37845321  1  0  -0.69315  0  1.994712  0  0  -0.651373  0  2.23171  0  0  -0.676035  0  2.219442  0  0  -0.355433  -0.624488  0  2.240843  0
O  O77  1  0.02766176  0.83055178  0.62153667  1  0  -0.693171  0  1.994517  0  0  -0.651384  0  2.23141  0  0  -0.676063  0  2.219168  0  0  -0.355341  -0.624502  0  2.240546  0
O  O78  1  0.86653152  0.34470877  0.44660027  1  0  -0.768831  0  2.124566  0  0  -0.73285  0  2.385134  0  0  -0.758898  0  2.3753  0  0  -0.382616  -0.696324  0  2.390353  0
O  O79  1  0.13344478  0.65528324  0.55339529  1  0  -0.76883  0  2.124723  0  0  -0.7329  0  2.385285  0  0  -0.75893  0  2.37541  0  0  -0.38252  -0.696381  0  2.390496  0
O  O80  1  0.23065237  0.97607214  0.21631540  1  0  -0.369742  0  1.773677  0  0  -0.343603  0  1.974946  0  0  -0.355667  0  1.968133  0  0  -0.121245  -0.336038  0  1.980234  0
O  O81  1  0.76933059  0.02393200  0.78370235  1  0  -0.369626  0  1.77386  0  0  -0.343513  0  1.975171  0  0  -0.355585  0  1.968369  0  0  -0.121198  -0.335945  0  1.980453  0
O  O82  1  0.11673391  0.83705427  0.30368623  1  0  -0.329181  0  1.747671  0  0  -0.306379  0  1.952206  0  0  -0.318178  0  1.948207  0  0  -0.10366  -0.298766  0  1.955488  0
O  O83  1  0.88325479  0.16293456  0.69631957  1  0  -0.329065  0  1.747777  0  0  -0.306282  0  1.952304  0  0  -0.31805  0  1.948286  0  0  -0.103598  -0.298672  0  1.955591  0
O  O84  1  0.07990459  0.45421136  0.31305657  1  0  -0.929663  0  1.909857  0  0  -0.890353  0  2.102134  0  0  -0.909296  0  2.069259  0  0  -0.652436  -0.865282  0  2.132009  0
O  O85  1  0.92008960  0.54577668  0.68693632  1  0  -0.9298  0  1.909749  0  0  -0.890465  0  2.10204  0  0  -0.909402  0  2.069158  0  0  -0.652437  -0.865396  0  2.131928  0
O  O86  1  0.26370108  0.29087713  0.29710564  1  0  -0.891272  0  1.872943  0  0  -0.854711  0  2.053248  0  0  -0.874041  0  2.023219  0  0  -0.632431  -0.83042  0  2.079698  0
O  O87  1  0.73629685  0.70913159  0.70288910  1  0  -0.891195  0  1.873055  0  0  -0.854614  0  2.053385  0  0  -0.87394  0  2.023342  0  0  -0.632345  -0.830297  0  2.079871  0
