# generated using pymatgen
data_CdH7C7NCl2O
_symmetry_space_group_name_H-M   'P 1'
_cell_length_a   7.25003557
_cell_length_b   8.08155878
_cell_length_c   9.35487445
_cell_angle_alpha   109.32139320
_cell_angle_beta   94.97927775
_cell_angle_gamma   113.16156460
_symmetry_Int_Tables_number   1
_chemical_formula_structural   CdH7C7NCl2O
_chemical_formula_sum   'Cd2 H14 C14 N2 Cl4 O2'
_cell_volume   460.45027132
_cell_formula_units_Z   2
loop_
 _symmetry_equiv_pos_site_id
 _symmetry_equiv_pos_as_xyz
  1  'x, y, z'
loop_
 _atom_site_type_symbol
 _atom_site_label
 _atom_site_symmetry_multiplicity
 _atom_site_fract_x
 _atom_site_fract_y
 _atom_site_fract_z
 _atom_site_occupancy
 _atom_site_hle17_bader_spin_density
 _atom_site_hle17_ddec_charge
 _atom_site_hle17_ddec_spin_density
 _atom_site_hle17_ddec_sum_bond_order
 _atom_site_hle17_magmom
 _atom_site_hse06_10hf_bader_spin_density
 _atom_site_hse06_10hf_ddec_charge
 _atom_site_hse06_10hf_ddec_spin_density
 _atom_site_hse06_10hf_ddec_sum_bond_order
 _atom_site_hse06_10hf_magmom
 _atom_site_hse06_bader_spin_density
 _atom_site_hse06_ddec_charge
 _atom_site_hse06_ddec_spin_density
 _atom_site_hse06_ddec_sum_bond_order
 _atom_site_hse06_magmom
 _atom_site_pbe_bader_spin_density
 _atom_site_pbe_cm5_charge
 _atom_site_pbe_ddec_charge
 _atom_site_pbe_ddec_spin_density
 _atom_site_pbe_ddec_sum_bond_order
 _atom_site_pbe_magmom
Cd  Cd0  1  0.26709391  0.01663041  0.07678815  1  0  0.969218  0  1.966513  0  0  0.803642  0  2.437281  0  0  0.852591  0  2.392739  0  0  0.578118  0.769397  0  2.467244  0
Cd  Cd1  1  0.73291003  0.98337109  0.92321139  1  0  0.969207  0  1.966543  0  0  0.803618  0  2.437313  0  0  0.852566  0  2.392774  0  0  0.578118  0.769374  0  2.467276  0
H  H2  1  0.26981130  0.01009045  0.65227011  1  0  0.114851  0  0.958375  0  0  0.121581  0  1.025592  0  0  0.124812  0  1.024604  0  0  0.104732  0.119213  0  1.026477  0
H  H3  1  0.73018309  0.98991416  0.34773081  1  0  0.114794  0  0.958442  0  0  0.121585  0  1.025587  0  0  0.124817  0  1.024597  0  0  0.104742  0.119213  0  1.026482  0
H  H4  1  0.98754266  0.67389782  0.57119055  1  0  0.104166  0  0.963624  0  0  0.11359  0  1.024889  0  0  0.116606  0  1.023084  0  0  0.100422  0.111363  0  1.026287  0
H  H5  1  0.01245717  0.32610371  0.42881409  1  0  0.1042  0  0.963628  0  0  0.113603  0  1.024914  0  0  0.116618  0  1.02311  0  0  0.100417  0.111377  0  1.026311  0
H  H6  1  0.80681706  0.47205757  0.28282799  1  0  0.117379  0  0.953799  0  0  0.121495  0  1.022165  0  0  0.125123  0  1.019887  0  0  0.10633  0.118766  0  1.02408  0
H  H7  1  0.19318689  0.52794390  0.71717582  1  0  0.117414  0  0.953812  0  0  0.121539  0  1.022173  0  0  0.125177  0  1.019883  0  0  0.106346  0.118807  0  1.02409  0
H  H8  1  0.91453286  0.62600714  0.09268083  1  0  0.090088  0  0.944335  0  0  0.093205  0  1.015586  0  0  0.096032  0  1.013237  0  0  0.108604  0.09109  0  1.017352  0
H  H9  1  0.08546625  0.37399294  0.90732121  1  0  0.090052  0  0.944311  0  0  0.093182  0  1.015577  0  0  0.096011  0  1.013227  0  0  0.108586  0.091068  0  1.017343  0
H  H10  1  0.64566565  0.46459838  0.62816192  1  0  0.149092  0  0.959415  0  0  0.167484  0  1.017539  0  0  0.170105  0  1.016533  0  0  0.090741  0.165547  0  1.018337  0
H  H11  1  0.35433887  0.53539868  0.37183424  1  0  0.149068  0  0.959488  0  0  0.167475  0  1.017592  0  0  0.170094  0  1.016589  0  0  0.090748  0.165539  0  1.01839  0
H  H12  1  0.58394443  0.26185776  0.68440643  1  0  0.141341  0  0.965999  0  0  0.158719  0  1.031095  0  0  0.159807  0  1.032677  0  0  0.094159  0.157874  0  1.030106  0
H  H13  1  0.41605806  0.73814082  0.31559004  1  0  0.141331  0  0.966021  0  0  0.158702  0  1.031136  0  0  0.15979  0  1.032719  0  0  0.09416  0.157857  0  1.030148  0
H  H14  1  0.40834519  0.35916548  0.67949215  1  0  0.144037  0  0.949676  0  0  0.1656  0  1.008348  0  0  0.166681  0  1.009308  0  0  0.102438  0.164803  0  1.007673  0
H  H15  1  0.59166214  0.64083450  0.32050503  1  0  0.14398  0  0.949677  0  0  0.165546  0  1.00836  0  0  0.166621  0  1.009327  0  0  0.102416  0.16475  0  1.007686  0
C  C16  1  0.24465378  0.99346695  0.41424387  1  0  0.082592  0  3.762572  0  0  0.086037  0  4.000564  0  0  0.086269  0  4.023748  0  0  0.100927  0.08595  0  3.985004  0
C  C17  1  0.75533779  0.00653475  0.58575496  1  0  0.082421  0  3.762617  0  0  0.085972  0  4.000591  0  0  0.086155  0  4.023746  0  0  0.100928  0.085881  0  3.985029  0
C  C18  1  0.18954858  0.92154774  0.52893223  1  0  -0.099702  0  3.670232  0  0  -0.121115  0  3.916497  0  0  -0.126113  0  3.939371  0  0  -0.071303  -0.117827  0  3.901193  0
C  C19  1  0.81044654  0.07845832  0.47107130  1  0  -0.099673  0  3.670479  0  0  -0.121151  0  3.916732  0  0  -0.126154  0  3.939617  0  0  -0.071321  -0.117862  0  3.901428  0
C  C20  1  0.03117898  0.73136146  0.48252117  1  0  -0.006573  0  3.672993  0  0  -0.023235  0  3.92083  0  0  -0.022242  0  3.939774  0  0  -0.064381  -0.023629  0  3.907817  0
C  C21  1  0.96881679  0.26864310  0.51748303  1  0  -0.006534  0  3.673104  0  0  -0.023167  0  3.920938  0  0  -0.022172  0  3.939885  0  0  -0.06434  -0.023562  0  3.907924  0
C  C22  1  0.93122710  0.62089791  0.32462871  1  0  -0.085437  0  3.678151  0  0  -0.099586  0  3.930221  0  0  -0.104045  0  3.949312  0  0  -0.067157  -0.096666  0  3.917333  0
C  C23  1  0.06877477  0.37910210  0.67537668  1  0  -0.085583  0  3.678239  0  0  -0.09973  0  3.930327  0  0  -0.104201  0  3.949412  0  0  -0.067204  -0.096806  0  3.917441  0
C  C24  1  0.99171411  0.70534618  0.21728536  1  0  0.14634  0  3.662031  0  0  0.1144  0  3.917705  0  0  0.120365  0  3.935213  0  0  0.059129  0.110607  0  3.905659  0
C  C25  1  0.00828010  0.29464954  0.78271617  1  0  0.146447  0  3.661946  0  0  0.114447  0  3.917675  0  0  0.120406  0  3.935196  0  0  0.059116  0.110652  0  3.905629  0
C  C26  1  0.42071876  0.19122573  0.45260515  1  0  0.477309  0  3.65283  0  0  0.461559  0  3.916474  0  0  0.483525  0  3.919622  0  0  0.170952  0.44634  0  3.914372  0
C  C27  1  0.57927681  0.80876691  0.54740733  1  0  0.477643  0  3.652926  0  0  0.461676  0  3.916833  0  0  0.483801  0  3.919744  0  0  0.171082  0.446472  0  3.914713  0
C  C28  1  0.52157653  0.32730585  0.61946514  1  0  -0.435913  0  3.679383  0  0  -0.516765  0  3.907435  0  0  -0.523043  0  3.913111  0  0  -0.253599  -0.512071  0  3.903516  0
C  C29  1  0.47842595  0.67269274  0.38053026  1  0  -0.435902  0  3.679015  0  0  -0.516718  0  3.907141  0  0  -0.523041  0  3.912773  0  0  -0.253626  -0.51203  0  3.903224  0
N  N30  1  0.14532702  0.88592350  0.26131825  1  0  -0.331809  0  3.294574  0  0  -0.262732  0  3.547314  0  0  -0.28086  0  3.569163  0  0  -0.320944  -0.250332  0  3.532198  0
N  N31  1  0.85466659  0.11407667  0.73868347  1  0  -0.331808  0  3.294672  0  0  -0.262707  0  3.547387  0  0  -0.280844  0  3.569254  0  0  -0.32094  -0.250304  0  3.532271  0
Cl  Cl32  1  0.05955706  0.23575740  0.14311133  1  0  -0.562229  0  1.018707  0  0  -0.497785  0  1.302882  0  0  -0.517649  0  1.2824  0  0  -0.290089  -0.483542  0  1.316568  0
Cl  Cl33  1  0.94044830  0.76424706  0.85688490  1  0  -0.56222  0  1.018688  0  0  -0.49777  0  1.302849  0  0  -0.517632  0  1.28236  0  0  -0.29009  -0.483526  0  1.31653  0
Cl  Cl34  1  0.53021569  0.21110643  0.96012789  1  0  -0.553737  0  0.957714  0  0  -0.485356  0  1.227844  0  0  -0.504755  0  1.206365  0  0  -0.300889  -0.471519  0  1.24214  0
Cl  Cl35  1  0.46978614  0.78889366  0.03986684  1  0  -0.553709  0  0.957718  0  0  -0.485346  0  1.227873  0  0  -0.504745  0  1.206396  0  0  -0.300877  -0.471506  0  1.242169  0
O  O36  1  0.48084890  0.23920215  0.34562678  1  0  -0.461025  0  2.006929  0  0  -0.400753  0  2.229063  0  0  -0.423223  0  2.225561  0  0  -0.24818  -0.385382  0  2.2313  0
O  O37  1  0.51916029  0.76079048  0.65435768  1  0  -0.461117  0  2.007636  0  0  -0.400737  0  2.2298  0  0  -0.423255  0  2.226212  0  0  -0.248271  -0.385376  0  2.232034  0
