# generated using pymatgen
data_Cu3H16C24(N4O7)2
_symmetry_space_group_name_H-M   'P 1'
_cell_length_a   8.41044668
_cell_length_b   8.43988114
_cell_length_c   10.09427027
_cell_angle_alpha   71.49463025
_cell_angle_beta   87.60705369
_cell_angle_gamma   83.00749637
_symmetry_Int_Tables_number   1
_chemical_formula_structural   Cu3H16C24(N4O7)2
_chemical_formula_sum   'Cu3 H16 C24 N8 O14'
_cell_volume   674.41712713
_cell_formula_units_Z   1
loop_
 _symmetry_equiv_pos_site_id
 _symmetry_equiv_pos_as_xyz
  1  'x, y, z'
loop_
 _atom_site_type_symbol
 _atom_site_label
 _atom_site_symmetry_multiplicity
 _atom_site_fract_x
 _atom_site_fract_y
 _atom_site_fract_z
 _atom_site_occupancy
 _atom_site_pbe_bader_charge
 _atom_site_pbe_bader_spin_density
 _atom_site_pbe_cm5_charge
 _atom_site_pbe_ddec_charge
 _atom_site_pbe_ddec_spin_density
 _atom_site_pbe_ddec_sum_bond_order
 _atom_site_pbe_magmom
Cu  Cu0  1  0.50001249  0.49998876  0.00001088  1  1.145585  0.613885  0.781904  0.88433  0.762444  2.157748  0.612
Cu  Cu1  1  0.02238434  0.50157115  0.34919813  1  1.075151  -0.000992  0.69905  0.856939  -0.002011  2.270274  -0.001
Cu  Cu2  1  0.97763553  0.49838222  0.65082480  1  1.075256  -0.000787  0.698737  0.856583  -0.001532  2.268876  -0.001
H  H3  1  0.57903148  0.74005664  0.26973280  1  0.142104  0.000278  0.1229  0.137495  0.000247  0.993825  0.0
H  H4  1  0.42096853  0.25996090  0.73026867  1  0.142144  0.000276  0.122929  0.137595  0.000246  0.993668  0.0
H  H5  1  0.12563739  0.39867572  0.07906942  1  0.193222  0.00033  0.148161  0.136128  7.6e-05  1.000995  0.0
H  H6  1  0.87438636  0.60132034  0.92092913  1  0.193049  0.000329  0.148128  0.135964  7.6e-05  1.000945  0.0
H  H7  1  0.49103456  0.77933856  0.68238626  1  0.171164  -4.1e-05  0.116325  0.122575  -5.7e-05  1.038719  0.0
H  H8  1  0.50894539  0.22066647  0.31761422  1  0.171296  -3.9e-05  0.116347  0.122623  -5.5e-05  1.038662  0.0
H  H9  1  0.57119930  0.10987419  0.08052120  1  0.15322  0.000311  0.140103  0.115648  9e-05  0.986363  0.0
H  H10  1  0.42880701  0.89008421  0.91948694  1  0.153362  0.00031  0.140113  0.115721  8.9e-05  0.986467  0.0
H  H11  1  0.95086835  0.16239607  0.15221974  1  0.11958  3.5e-05  0.115777  0.112102  3.6e-05  1.007988  0.0
H  H12  1  0.04912980  0.83761765  0.84776300  1  0.119472  3.4e-05  0.115767  0.112029  3.5e-05  1.008215  0.0
H  H13  1  0.05576126  0.98546826  0.27614399  1  0.077901  1.8e-05  0.11061  0.100324  3e-06  0.978857  0.0
H  H14  1  0.94422464  0.01454806  0.72385132  1  0.077792  1.6e-05  0.110638  0.100345  1e-06  0.978814  0.0
H  H15  1  0.90514002  0.88964907  0.12107397  1  0.054878  0.000285  0.094693  0.096716  0.000133  0.998761  0.0
H  H16  1  0.09486361  0.11034581  0.87892848  1  0.054845  0.000283  0.094696  0.096733  0.000131  0.998757  0.0
H  H17  1  0.11094517  0.84775902  0.08761900  1  0.049921  5.5e-05  0.091543  0.095896  3.8e-05  1.01678  0.0
H  H18  1  0.88905488  0.15223589  0.91238554  1  0.049956  5.3e-05  0.091545  0.095885  3.7e-05  1.016813  0.0
C  C19  1  0.36261688  0.65145898  0.36773216  1  0.040121  0.008905  -0.026455  -0.162474  0.006103  3.931655  0.007
C  C20  1  0.63738873  0.34856229  0.63226022  1  0.040404  0.008912  -0.026416  -0.16217  0.006108  3.930919  0.007
C  C21  1  0.50341063  0.72427685  0.36189482  1  0.056764  -0.000501  -0.060054  -0.085149  -0.000653  3.970991  0.0
C  C22  1  0.49659302  0.27574065  0.63809664  1  0.057203  -0.000502  -0.060215  -0.085461  -0.000653  3.97133  0.0
C  C23  1  0.31228385  0.67348530  0.60425751  1  0.058247  0.000828  -0.026418  -0.14941  0.000552  3.888269  0.001
C  C24  1  0.68769873  0.32651721  0.39574455  1  0.05801  0.000835  -0.026417  -0.149516  0.000557  3.888821  0.001
C  C25  1  0.26281951  0.62705303  0.48909242  1  0.534853  0.001195  0.107872  0.332074  0.000598  3.974192  0.001
C  C26  1  0.73717405  0.37295943  0.51088386  1  0.534394  0.001197  0.107784  0.332015  0.000599  3.974399  0.001
C  C27  1  0.21914736  0.29606363  0.08737343  1  1.005142  -0.000257  0.170646  0.106143  -0.000332  3.850674  0.001
C  C28  1  0.78086808  0.70392114  0.91262641  1  1.005759  -0.000259  0.170763  0.106491  -0.000334  3.850285  0.001
C  C29  1  0.45372149  0.74699427  0.59323183  1  -0.052713  -0.000744  -0.06638  -0.086509  -0.000854  3.944924  0.0
C  C30  1  0.54626247  0.25301827  0.40675859  1  -0.053519  -0.000743  -0.066326  -0.086485  -0.000853  3.944917  0.0
C  C31  1  0.23027085  0.63863260  0.74472383  1  1.584324  -0.000341  0.210546  0.598946  -0.000399  4.156609  0.0
C  C32  1  0.76974721  0.36135978  0.25529866  1  1.584731  -0.000333  0.210701  0.599414  -0.000387  4.155448  0.0
C  C33  1  0.54821835  0.77186963  0.47348440  1  0.223673  0.000136  0.060947  0.028767  3.9e-05  3.979415  0.0
C  C34  1  0.45177127  0.22815553  0.52652725  1  0.22472  0.000136  0.061066  0.028983  3.9e-05  3.97946  0.0
C  C35  1  0.44407386  0.14450220  0.09048646  1  0.956239  -0.00097  0.146735  0.142727  -0.001164  3.982044  0.0
C  C36  1  0.55593219  0.85547003  0.90951602  1  0.956293  -0.000971  0.146706  0.14254  -0.001164  3.982342  0.0
C  C37  1  0.04663085  0.05826739  0.16477084  1  0.292476  0.000693  -0.052147  -0.08989  0.000527  3.859704  0.001
C  C38  1  0.95336619  0.94173379  0.83522519  1  0.292814  0.000691  -0.05219  -0.089861  0.000526  3.859804  0.001
C  C39  1  0.01284053  0.94946598  0.07679976  1  -0.049687  0.000369  -0.169413  -0.176596  0.000262  3.955539  0.0
C  C40  1  0.98715677  0.05053269  0.92319891  1  -0.022043  0.000368  -0.169412  -0.176565  0.000261  3.955423  0.0
C  C41  1  0.33118118  0.59633147  0.24488210  1  1.558807  0.001028  0.223078  0.60525  0.001128  4.133088  0.0
C  C42  1  0.66881576  0.40366976  0.75513076  1  1.558611  0.001018  0.222884  0.60492  0.001116  4.133374  0.0
N  N43  1  0.37650136  0.30680879  0.06704236  1  -1.167921  0.076663  -0.375643  -0.326673  0.049495  3.618472  0.064
N  N44  1  0.62351396  0.69316592  0.93295818  1  -1.168754  0.076677  -0.375658  -0.326616  0.0495  3.618303  0.064
N  N45  1  0.19557142  0.13374442  0.12310257  1  -0.812425  0.00259  -0.129924  0.180433  0.00145  3.713506  0.002
N  N46  1  0.80443025  0.86624668  0.87689600  1  -0.812084  0.002589  -0.12995  0.180266  0.00145  3.713694  0.002
N  N47  1  0.70183150  0.83623300  0.46792586  1  0.335103  -2.6e-05  0.045254  0.508959  -3.7e-05  4.220809  0.0
N  N48  1  0.29814903  0.16379972  0.53207713  1  0.336354  -2.6e-05  0.045489  0.508856  -3.7e-05  4.22095  0.0
N  N49  1  0.33716351  0.03521185  0.12533489  1  -0.67705  0.008698  -0.219633  -0.256738  0.005462  3.113496  0.007
N  N50  1  0.66283117  0.96476671  0.87466625  1  -0.677096  0.008697  -0.219619  -0.256652  0.005461  3.113534  0.007
O  O51  1  0.19491055  0.55567475  0.22302137  1  -1.109899  0.00183  -0.319225  -0.532062  0.000528  2.446588  0.002
O  O52  1  0.80507774  0.44425106  0.77700395  1  -1.11063  0.001863  -0.319079  -0.531775  0.000553  2.447314  0.002
O  O53  1  0.12748756  0.55701589  0.49580336  1  -1.052772  -0.000598  -0.337122  -0.521274  -0.000689  2.673827  -0.001
O  O54  1  0.87250916  0.44301404  0.50412457  1  -1.052775  -0.000602  -0.337144  -0.521453  -0.000694  2.674019  -0.001
O  O55  1  0.28812364  0.68433569  0.83704751  1  -1.156781  0.002164  -0.304536  -0.540278  0.000979  2.211427  0.003
O  O56  1  0.71185226  0.31572972  0.16294491  1  -1.15721  0.002155  -0.304603  -0.540485  0.000971  2.211233  0.003
O  O57  1  0.10288624  0.55998154  0.77235719  1  -1.104665  0.000152  -0.337275  -0.553878  6.5e-05  2.389783  0.0
O  O58  1  0.89720988  0.43991494  0.22767162  1  -1.104207  0.000104  -0.337298  -0.553993  2.4e-05  2.389284  0.0
O  O59  1  0.44824213  0.59330696  0.16228016  1  -1.114796  0.090815  -0.293488  -0.515218  0.056943  2.394671  0.082
O  O60  1  0.55171809  0.40673838  0.83771018  1  -1.114074  0.090928  -0.293382  -0.515174  0.057014  2.39424  0.083
O  O61  1  0.74921823  0.85973119  0.57477822  1  -0.484941  -3.8e-05  -0.140617  -0.363218  -5.3e-05  1.974345  0.0
O  O62  1  0.25079511  0.14024988  0.42524248  1  -0.486567  -3.4e-05  -0.140671  -0.36323  -4.9e-05  1.974536  0.0
O  O63  1  0.78065556  0.86116148  0.35722998  1  -0.486091  3.7e-05  -0.136791  -0.359837  1e-05  1.978689  0.0
O  O64  1  0.21928725  0.13893549  0.64275604  1  -0.486242  3.2e-05  -0.136937  -0.359771  7e-06  1.978744  0.0
