# generated using pymatgen
data_CdH2C6(NO2)2
_symmetry_space_group_name_H-M   'P 1'
_cell_length_a   5.48899658
_cell_length_b   10.66075301
_cell_length_c   11.83069259
_cell_angle_alpha   104.27360141
_cell_angle_beta   90.00035886
_cell_angle_gamma   90.00062989
_symmetry_Int_Tables_number   1
_chemical_formula_structural   CdH2C6(NO2)2
_chemical_formula_sum   'Cd4 H8 C24 N8 O16'
_cell_volume   670.92317671
_cell_formula_units_Z   4
loop_
 _symmetry_equiv_pos_site_id
 _symmetry_equiv_pos_as_xyz
  1  'x, y, z'
loop_
 _atom_site_type_symbol
 _atom_site_label
 _atom_site_symmetry_multiplicity
 _atom_site_fract_x
 _atom_site_fract_y
 _atom_site_fract_z
 _atom_site_occupancy
 _atom_site_hle17_bader_spin_density
 _atom_site_hle17_ddec_charge
 _atom_site_hle17_ddec_spin_density
 _atom_site_hle17_ddec_sum_bond_order
 _atom_site_hle17_magmom
 _atom_site_hse06_10hf_bader_spin_density
 _atom_site_hse06_10hf_ddec_charge
 _atom_site_hse06_10hf_ddec_spin_density
 _atom_site_hse06_10hf_ddec_sum_bond_order
 _atom_site_hse06_10hf_magmom
 _atom_site_hse06_bader_spin_density
 _atom_site_hse06_ddec_charge
 _atom_site_hse06_ddec_spin_density
 _atom_site_hse06_ddec_sum_bond_order
 _atom_site_hse06_magmom
 _atom_site_pbe_bader_spin_density
 _atom_site_pbe_cm5_charge
 _atom_site_pbe_ddec_charge
 _atom_site_pbe_ddec_spin_density
 _atom_site_pbe_ddec_sum_bond_order
 _atom_site_pbe_magmom
Cd  Cd0  1  0.75670189  0.23055978  0.76494713  1  0  1.151702  0  1.668608  0  0  0.961987  0  2.118614  0  0  1.019334  0  2.065406  0  0  0.791449  0.920832  0  2.155234  0
Cd  Cd1  1  0.25671428  0.76944188  0.73504884  1  0  1.151612  0  1.668647  0  0  0.961925  0  2.118629  0  0  1.019271  0  2.065424  0  0  0.791448  0.920771  0  2.155236  0
Cd  Cd2  1  0.24327463  0.76945199  0.23504877  1  0  1.151731  0  1.668757  0  0  0.962038  0  2.118733  0  0  1.019374  0  2.06553  0  0  0.791523  0.920896  0  2.155347  0
Cd  Cd3  1  0.74331690  0.23054953  0.26494487  1  0  1.151546  0  1.668789  0  0  0.961771  0  2.118841  0  0  1.019117  0  2.065638  0  0  0.791363  0.920626  0  2.15545  0
H  H4  1  0.12783264  0.60135785  0.95197801  1  0  0.117  0  0.924529  0  0  0.12076  0  0.992126  0  0  0.124549  0  0.989094  0  0  0.128531  0.117972  0  0.994547  0
H  H5  1  0.62786794  0.39863322  0.54801602  1  0  0.116956  0  0.924589  0  0  0.120785  0  0.992116  0  0  0.124573  0  0.989081  0  0  0.128553  0.117995  0  0.994539  0
H  H6  1  0.87213295  0.39863147  0.04802705  1  0  0.117024  0  0.924471  0  0  0.120795  0  0.992005  0  0  0.124584  0  0.988969  0  0  0.128536  0.118005  0  0.994429  0
H  H7  1  0.37216324  0.60137458  0.45198572  1  0  0.11699  0  0.924505  0  0  0.120721  0  0.992073  0  0  0.124512  0  0.989038  0  0  0.128529  0.11793  0  0.994497  0
H  H8  1  0.18567959  0.21399771  0.55423570  1  0  0.115165  0  0.95907  0  0  0.114834  0  1.031635  0  0  0.119634  0  1.027158  0  0  0.122714  0.111291  0  1.035124  0
H  H9  1  0.68564685  0.78599962  0.94575655  1  0  0.115149  0  0.9589  0  0  0.114793  0  1.031512  0  0  0.119592  0  1.02704  0  0  0.122722  0.111258  0  1.034975  0
H  H10  1  0.81435341  0.78601493  0.44576801  1  0  0.115088  0  0.959062  0  0  0.114792  0  1.031628  0  0  0.119587  0  1.027158  0  0  0.122712  0.111258  0  1.035097  0
H  H11  1  0.31437703  0.21397353  0.05422279  1  0  0.11507  0  0.959294  0  0  0.11482  0  1.031815  0  0  0.119603  0  1.027337  0  0  0.122741  0.111294  0  1.035271  0
C  C12  1  0.26986415  0.38065060  0.78247730  1  0  0.645842  0  3.916147  0  0  0.589722  0  4.217051  0  0  0.625527  0  4.20809  0  0  0.212277  0.565406  0  4.222234  0
C  C13  1  0.76988470  0.61934534  0.71751738  1  0  0.645737  0  3.915985  0  0  0.589596  0  4.216851  0  0  0.625399  0  4.207894  0  0  0.212217  0.565281  0  4.222038  0
C  C14  1  0.73010508  0.61934552  0.21752765  1  0  0.645574  0  3.916118  0  0  0.589499  0  4.216983  0  0  0.625312  0  4.208025  0  0  0.212161  0.565187  0  4.222163  0
C  C15  1  0.23016652  0.38064694  0.28248414  1  0  0.645937  0  3.915303  0  0  0.589541  0  4.216522  0  0  0.625345  0  4.207573  0  0  0.212211  0.565228  0  4.221705  0
C  C16  1  0.38893661  0.44446552  0.89798450  1  0  0.083679  0  3.67573  0  0  0.086424  0  3.91986  0  0  0.086638  0  3.935641  0  0  0.130473  0.085695  0  3.909683  0
C  C17  1  0.88894684  0.55553019  0.60201720  1  0  0.083574  0  3.675953  0  0  0.086479  0  3.919856  0  0  0.086695  0  3.935634  0  0  0.130471  0.085748  0  3.909678  0
C  C18  1  0.61102716  0.55552968  0.10201601  1  0  0.083861  0  3.675622  0  0  0.086514  0  3.919736  0  0  0.086693  0  3.935578  0  0  0.130571  0.085784  0  3.909556  0
C  C19  1  0.11105519  0.44446588  0.39799112  1  0  0.083387  0  3.675702  0  0  0.086348  0  3.919507  0  0  0.086559  0  3.935299  0  0  0.130422  0.085615  0  3.909328  0
C  C20  1  0.29323778  0.55560463  0.97373138  1  0  0.10685  0  3.604475  0  0  0.068524  0  3.861437  0  0  0.073062  0  3.875253  0  0  0.074217  0.065267  0  3.852583  0
C  C21  1  0.79327554  0.44438748  0.52627262  1  0  0.106928  0  3.604553  0  0  0.068474  0  3.861519  0  0  0.07301  0  3.875342  0  0  0.07417  0.065215  0  3.852667  0
C  C22  1  0.70671142  0.44438086  0.02627026  1  0  0.106645  0  3.604541  0  0  0.068429  0  3.861419  0  0  0.072977  0  3.875243  0  0  0.074136  0.065169  0  3.85257  0
C  C23  1  0.20674106  0.55561921  0.47374070  1  0  0.10681  0  3.604456  0  0  0.068607  0  3.86113  0  0  0.07314  0  3.874957  0  0  0.074227  0.065347  0  3.852279  0
C  C24  1  0.59541124  0.95168958  0.63607644  1  0  0.630363  0  3.936185  0  0  0.574689  0  4.23804  0  0  0.609936  0  4.230893  0  0  0.205946  0.550838  0  4.241919  0
C  C25  1  0.09540134  0.04831277  0.86392942  1  0  0.630022  0  3.936733  0  0  0.574447  0  4.238415  0  0  0.609672  0  4.231298  0  0  0.205847  0.550615  0  4.242269  0
C  C26  1  0.40464544  0.04832804  0.36391743  1  0  0.630095  0  3.935903  0  0  0.574636  0  4.237543  0  0  0.60987  0  4.230425  0  0  0.206005  0.550795  0  4.241398  0
C  C27  1  0.90462255  0.95166689  0.13607255  1  0  0.630459  0  3.936209  0  0  0.574761  0  4.238128  0  0  0.61003  0  4.230953  0  0  0.206022  0.550907  0  4.242001  0
C  C28  1  0.80817117  0.97764929  0.56349639  1  0  0.083732  0  3.680804  0  0  0.085886  0  3.925705  0  0  0.085512  0  3.941959  0  0  0.128488  0.085763  0  3.915059  0
C  C29  1  0.30818002  0.02236230  0.93651047  1  0  0.083931  0  3.680552  0  0  0.086195  0  3.925322  0  0  0.085839  0  3.941568  0  0  0.128574  0.086058  0  3.914677  0
C  C30  1  0.19181992  0.02234678  0.43651193  1  0  0.083924  0  3.679605  0  0  0.085852  0  3.924715  0  0  0.085496  0  3.940971  0  0  0.128457  0.085717  0  3.914061  0
C  C31  1  0.69182383  0.97765433  0.06348486  1  0  0.083708  0  3.680034  0  0  0.085823  0  3.925012  0  0  0.085445  0  3.941266  0  0  0.128516  0.085701  0  3.914357  0
C  C32  1  0.09974103  0.11921774  0.52861073  1  0  0.108565  0  3.603507  0  0  0.069378  0  3.860853  0  0  0.073681  0  3.874981  0  0  0.069156  0.066196  0  3.851901  0
C  C33  1  0.59971429  0.88079826  0.97139239  1  0  0.108668  0  3.603386  0  0  0.069497  0  3.860657  0  0  0.073803  0  3.874797  0  0  0.069155  0.066317  0  3.851704  0
C  C34  1  0.90026646  0.88080337  0.47141354  1  0  0.108692  0  3.603367  0  0  0.069419  0  3.860674  0  0  0.073726  0  3.874807  0  0  0.069091  0.066234  0  3.851726  0
C  C35  1  0.40025312  0.11921165  0.02859631  1  0  0.108631  0  3.604145  0  0  0.069179  0  3.861627  0  0  0.0735  0  3.875733  0  0  0.06909  0.065995  0  3.852691  0
N  N36  1  0.59461865  0.39047299  0.92560942  1  0  -0.283837  0  3.213496  0  0  -0.221865  0  3.474212  0  0  -0.235346  0  3.490224  0  0  -0.296299  -0.212356  0  3.463586  0
N  N37  1  0.09462169  0.60953021  0.57440509  1  0  -0.28376  0  3.213535  0  0  -0.221838  0  3.474133  0  0  -0.235322  0  3.490151  0  0  -0.296275  -0.212327  0  3.463505  0
N  N38  1  0.40534147  0.60952211  0.07439952  1  0  -0.284  0  3.213426  0  0  -0.221934  0  3.474156  0  0  -0.235407  0  3.490182  0  0  -0.296359  -0.212422  0  3.463525  0
N  N39  1  0.90536940  0.39047157  0.42561216  1  0  -0.283795  0  3.213391  0  0  -0.22182  0  3.474068  0  0  -0.235309  0  3.490097  0  0  -0.296306  -0.212308  0  3.463436  0
N  N40  1  0.90903123  0.09594926  0.59062672  1  0  -0.277151  0  3.221102  0  0  -0.211971  0  3.482362  0  0  -0.225474  0  3.497687  0  0  -0.296338  -0.202427  0  3.471889  0
N  N41  1  0.40897977  0.90405258  0.90936292  1  0  -0.277147  0  3.220915  0  0  -0.212001  0  3.482147  0  0  -0.225506  0  3.497462  0  0  -0.296322  -0.202455  0  3.471676  0
N  N42  1  0.09099630  0.90403826  0.40936778  1  0  -0.277129  0  3.220279  0  0  -0.211877  0  3.481615  0  0  -0.225382  0  3.496931  0  0  -0.296275  -0.20233  0  3.471155  0
N  N43  1  0.59096032  0.09594985  0.09060376  1  0  -0.277009  0  3.221065  0  0  -0.211782  0  3.482416  0  0  -0.225294  0  3.49776  0  0  -0.296391  -0.20224  0  3.471952  0
O  O44  1  0.40516812  0.31418350  0.70329133  1  0  -0.608292  0  2.023663  0  0  -0.54522  0  2.27555  0  0  -0.573878  0  2.263679  0  0  -0.310189  -0.525057  0  2.282915  0
O  O45  1  0.90516935  0.68582396  0.79671144  1  0  -0.608289  0  2.023593  0  0  -0.545176  0  2.275426  0  0  -0.573841  0  2.263563  0  0  -0.310212  -0.525014  0  2.282787  0
O  O46  1  0.59479565  0.68583209  0.29670883  1  0  -0.60827  0  2.023596  0  0  -0.545154  0  2.275442  0  0  -0.573816  0  2.263566  0  0  -0.310254  -0.524993  0  2.282807  0
O  O47  1  0.09485089  0.31416917  0.20329958  1  0  -0.608297  0  2.023592  0  0  -0.545142  0  2.275576  0  0  -0.573799  0  2.263701  0  0  -0.310213  -0.524983  0  2.282942  0
O  O48  1  0.04281186  0.39861082  0.77478001  1  0  -0.639057  0  2.007327  0  0  -0.581903  0  2.267136  0  0  -0.611459  0  2.25778  0  0  -0.327201  -0.560845  0  2.272563  0
O  O49  1  0.54283760  0.60138735  0.72522052  1  0  -0.638908  0  2.007119  0  0  -0.581902  0  2.267107  0  0  -0.611444  0  2.257725  0  0  -0.327185  -0.560847  0  2.272534  0
O  O50  1  0.95715556  0.60138923  0.22522162  1  0  -0.638769  0  2.007209  0  0  -0.581816  0  2.267252  0  0  -0.61136  0  2.25787  0  0  -0.327075  -0.560758  0  2.272676  0
O  O51  1  0.45723001  0.39862214  0.27480190  1  0  -0.638948  0  2.006686  0  0  -0.581704  0  2.26657  0  0  -0.611227  0  2.257148  0  0  -0.327005  -0.56065  0  2.272004  0
O  O52  1  0.51493772  0.04374653  0.71561207  1  0  -0.613298  0  2.060575  0  0  -0.554468  0  2.315452  0  0  -0.584024  0  2.30827  0  0  -0.311777  -0.533704  0  2.319604  0
O  O53  1  0.01493105  0.95626820  0.78436855  1  0  -0.613178  0  2.06066  0  0  -0.554428  0  2.315489  0  0  -0.583974  0  2.308312  0  0  -0.311724  -0.533652  0  2.319597  0
O  O54  1  0.48505884  0.95624010  0.28437546  1  0  -0.613286  0  2.060707  0  0  -0.554483  0  2.315451  0  0  -0.584035  0  2.308276  0  0  -0.311793  -0.533717  0  2.319602  0
O  O55  1  0.98506004  0.04374382  0.21560796  1  0  -0.613325  0  2.060838  0  0  -0.554523  0  2.315803  0  0  -0.584092  0  2.308615  0  0  -0.311745  -0.533747  0  2.319957  0
O  O56  1  0.51396143  0.83619441  0.60858319  1  0  -0.621229  0  1.984745  0  0  -0.556757  0  2.238464  0  0  -0.587677  0  2.229518  0  0  -0.321421  -0.534855  0  2.243717  0
O  O57  1  0.01391973  0.16379291  0.89141475  1  0  -0.621242  0  1.985324  0  0  -0.556768  0  2.238936  0  0  -0.587694  0  2.230036  0  0  -0.321443  -0.534871  0  2.24417  0
O  O58  1  0.48607157  0.16383070  0.39143186  1  0  -0.621157  0  1.985096  0  0  -0.556675  0  2.238605  0  0  -0.587586  0  2.229666  0  0  -0.321436  -0.534785  0  2.243875  0
O  O59  1  0.98604768  0.83616678  0.10855386  1  0  -0.621273  0  1.984974  0  0  -0.556732  0  2.238587  0  0  -0.587647  0  2.229625  0  0  -0.321481  -0.534863  0  2.243914  0
