# generated using pymatgen
data_CoH28C20(N2O3)2
_symmetry_space_group_name_H-M   'P 1'
_cell_length_a   8.73641467
_cell_length_b   9.66474910
_cell_length_c   12.35100000
_cell_angle_alpha   90.00000000
_cell_angle_beta   90.00000000
_cell_angle_gamma   96.18162034
_symmetry_Int_Tables_number   1
_chemical_formula_structural   CoH28C20(N2O3)2
_chemical_formula_sum   'Co2 H56 C40 N8 O12'
_cell_volume   1036.79619533
_cell_formula_units_Z   2
loop_
 _symmetry_equiv_pos_site_id
 _symmetry_equiv_pos_as_xyz
  1  'x, y, z'
loop_
 _atom_site_type_symbol
 _atom_site_label
 _atom_site_symmetry_multiplicity
 _atom_site_fract_x
 _atom_site_fract_y
 _atom_site_fract_z
 _atom_site_occupancy
 _atom_site_pbe_bader_charge
 _atom_site_pbe_bader_spin_density
 _atom_site_pbe_cm5_charge
 _atom_site_pbe_ddec_charge
 _atom_site_pbe_ddec_spin_density
 _atom_site_pbe_ddec_sum_bond_order
 _atom_site_pbe_magmom
Co  Co0  1  0.00000275  0.99999959  0.00000000  1  1.14741  -0.987482  0.643414  0.707795  -1.106619  2.85432  -0.975
Co  Co1  1  0.49999962  0.99999959  0.50000081  1  1.147431  0.987507  0.643491  0.708084  1.106634  2.853912  0.975
H  H2  1  0.10070298  0.11346452  0.22093434  1  0.637027  -0.000947  0.279904  0.368078  -0.000778  0.975795  -0.001
H  H3  1  0.39929639  0.88653298  0.72093353  1  0.637345  0.000947  0.279911  0.368096  0.000778  0.975772  0.001
H  H4  1  0.89929870  0.88654027  0.77906728  1  0.637058  -0.000947  0.279842  0.367895  -0.000778  0.976012  -0.001
H  H5  1  0.60070137  0.11346765  0.27906485  1  0.63721  0.000947  0.279917  0.368106  0.000778  0.975749  0.001
H  H6  1  0.92756172  0.11971104  0.17748199  1  0.650942  0.00029  0.276832  0.35848  2.8e-05  0.997848  0.0
H  H7  1  0.57244356  0.88030208  0.67748765  1  0.651143  -0.00029  0.276824  0.35847  -2.8e-05  0.997832  0.0
H  H8  1  0.07244074  0.88029063  0.82251640  1  0.650926  0.00029  0.276817  0.35845  2.8e-05  0.997877  0.0
H  H9  1  0.42755711  0.11970376  0.32251478  1  0.651196  -0.00029  0.276816  0.358473  -2.8e-05  0.997837  0.0
H  H10  1  0.84749608  0.72231576  0.98245324  1  0.122354  6.7e-05  0.11965  0.097054  0.000142  1.023037  0.0
H  H11  1  0.65251228  0.27768486  0.48245162  1  0.122288  -6.8e-05  0.119616  0.09706  -0.000142  1.022937  0.0
H  H12  1  0.15250625  0.27768486  0.01754676  1  0.122338  6.7e-05  0.119652  0.097057  0.000142  1.023012  0.0
H  H13  1  0.34748625  0.72231264  0.51754838  1  0.122285  -6.8e-05  0.119599  0.097002  -0.000142  1.022953  0.0
H  H14  1  0.84211347  0.50301742  0.09028743  1  0.102502  9.8e-05  0.106204  0.111364  1.4e-05  1.044456  0.0
H  H15  1  0.65789097  0.49697905  0.59028743  1  0.102266  -9.8e-05  0.106179  0.111279  -1.4e-05  1.044655  0.0
H  H16  1  0.15788608  0.49697905  0.90971095  1  0.102525  9.9e-05  0.106224  0.111387  1.4e-05  1.044505  0.0
H  H17  1  0.34210998  0.50301950  0.40971257  1  0.102253  -9.8e-05  0.106172  0.111293  -1.3e-05  1.044667  0.0
H  H18  1  0.19515495  0.71163778  0.29377621  1  0.105846  -2.7e-05  0.104987  0.113847  -7e-05  1.036334  0.0
H  H19  1  0.30486144  0.28836805  0.79377621  1  0.105859  2.7e-05  0.10498  0.11384  7e-05  1.036444  0.0
H  H20  1  0.80484383  0.28836181  0.70622622  1  0.10589  -2.7e-05  0.104987  0.113821  -7e-05  1.036322  0.0
H  H21  1  0.69514090  0.71163257  0.20622298  1  0.105865  2.7e-05  0.104992  0.11382  7e-05  1.036357  0.0
H  H22  1  0.19057859  0.92070670  0.17561979  1  0.111237  2.7e-05  0.120967  0.096496  9.5e-05  1.032934  0.0
H  H23  1  0.30943171  0.07929601  0.67562465  1  0.111233  -2.7e-05  0.120942  0.096551  -9.5e-05  1.03289  0.0
H  H24  1  0.80942032  0.07929393  0.82438264  1  0.111265  2.7e-05  0.120978  0.096487  9.5e-05  1.032942  0.0
H  H25  1  0.69056695  0.92070254  0.32437697  1  0.111322  -2.7e-05  0.12096  0.096556  -9.5e-05  1.032993  0.0
H  H26  1  0.90058582  0.39671318  0.25976439  1  0.037315  1.3e-05  0.096106  0.074655  -3.5e-05  0.974518  0.0
H  H27  1  0.59941986  0.60329369  0.75976358  1  0.037397  -1.2e-05  0.096106  0.074652  3.5e-05  0.974434  0.0
H  H28  1  0.09941525  0.60328641  0.74023480  1  0.037353  1.3e-05  0.096109  0.074659  -3.5e-05  0.974476  0.0
H  H29  1  0.40058211  0.39670381  0.24023561  1  0.037219  -1.2e-05  0.096105  0.07465  3.6e-05  0.97445  0.0
H  H30  1  0.10155084  0.39666427  0.24930856  1  0.073252  0.000423  0.10902  0.096303  0.000119  0.988475  0.0
H  H31  1  0.39845487  0.60333844  0.74930613  1  0.073296  -0.000423  0.108988  0.096198  -0.000119  0.988488  0.0
H  H32  1  0.89844921  0.60333636  0.75069225  1  0.073252  0.000423  0.109008  0.096277  0.000119  0.988486  0.0
H  H33  1  0.60154861  0.39666218  0.25069144  1  0.073284  -0.000423  0.109001  0.096227  -0.000119  0.988462  0.0
H  H34  1  0.79874377  0.50772988  0.42630313  1  0.015867  -3.9e-05  0.090212  0.057621  -2e-05  1.000512  0.0
H  H35  1  0.70125950  0.49227595  0.92630637  1  0.015477  4e-05  0.090221  0.05768  2e-05  1.000481  0.0
H  H36  1  0.20125477  0.49226762  0.57369687  1  0.015914  -3.9e-05  0.090231  0.057636  -2e-05  1.00052  0.0
H  H37  1  0.29874018  0.50772156  0.07369201  1  0.015448  3.9e-05  0.090204  0.057649  2e-05  1.000464  0.0
H  H38  1  0.89903941  0.66556945  0.37870537  1  0.033659  1.2e-05  0.097411  0.071271  3e-06  1.02985  0.0
H  H39  1  0.60096856  0.33443742  0.87870456  1  0.033425  -1.3e-05  0.097436  0.071286  -3e-06  1.029882  0.0
H  H40  1  0.10095683  0.33442805  0.62129463  1  0.033681  1.2e-05  0.097415  0.071259  3e-06  1.029843  0.0
H  H41  1  0.39902667  0.66556113  0.12129544  1  0.033375  -1.3e-05  0.097443  0.071273  -3e-06  1.029834  0.0
H  H42  1  0.15033372  0.32644975  0.42209457  1  0.052556  -1.6e-05  0.10445  0.086384  -1.6e-05  0.988175  0.0
H  H43  1  0.34966361  0.67354984  0.92209457  1  0.05253  1.7e-05  0.104412  0.086331  1.6e-05  0.987993  0.0
H  H44  1  0.84966277  0.67354984  0.57790543  1  0.052493  -1.6e-05  0.104416  0.086346  -1.6e-05  0.987923  0.0
H  H45  1  0.65033529  0.32645079  0.07790462  1  0.052546  1.7e-05  0.104409  0.086338  1.6e-05  0.987987  0.0
H  H46  1  0.95029322  0.30295401  0.45365315  1  0.026619  -3.2e-05  0.094505  0.068291  -2.2e-05  0.985265  0.0
H  H47  1  0.54970256  0.69704661  0.95365962  1  0.02656  3.2e-05  0.094498  0.068241  2.2e-05  0.985302  0.0
H  H48  1  0.04970328  0.69704557  0.54634766  1  0.02666  -3.2e-05  0.094493  0.068252  -2.2e-05  0.985303  0.0
H  H49  1  0.45029749  0.30295401  0.04634119  1  0.026645  3.2e-05  0.094506  0.068279  2.2e-05  0.985339  0.0
H  H50  1  0.52057956  0.11093345  0.91020241  1  0.045234  0.000284  0.099363  0.112409  0.00012  0.99563  0.0
H  H51  1  0.97941349  0.88908279  0.41019755  1  0.045427  -0.000284  0.099363  0.112439  -0.00012  0.995681  0.0
H  H52  1  0.47942404  0.88906822  0.08979273  1  0.045202  0.000284  0.099383  0.112407  0.00012  0.99569  0.0
H  H53  1  0.02058820  0.11092200  0.58980649  1  0.045428  -0.000284  0.099396  0.112449  -0.00012  0.995611  0.0
H  H54  1  0.54242285  0.93368576  0.89191159  1  0.063541  0.0002  0.101006  0.115234  0.000111  1.001845  0.0
H  H55  1  0.95759016  0.06633464  0.39192211  1  0.062938  -0.0002  0.101035  0.115231  -0.000111  1.001971  0.0
H  H56  1  0.45758280  0.06631383  0.10808194  1  0.063518  0.0002  0.101009  0.115289  0.000111  1.001884  0.0
H  H57  1  0.04240911  0.93366911  0.60808113  1  0.062984  -0.0002  0.100994  0.115219  -0.000111  1.001914  0.0
C  C58  1  0.92305073  0.71393365  0.05152538  1  0.428481  0.008977  0.043567  0.088892  0.004843  3.92027  0.006
C  C59  1  0.57695727  0.28606386  0.55152781  1  0.42874  -0.008976  0.043559  0.088847  -0.004843  3.920117  -0.006
C  C60  1  0.07695009  0.28606386  0.94847462  1  0.428487  0.008976  0.043583  0.088918  0.004843  3.920257  0.006
C  C61  1  0.42304495  0.71393573  0.44847300  1  0.428869  -0.008972  0.04356  0.088931  -0.00484  3.919995  -0.006
C  C62  1  0.92257126  0.59263236  0.11176828  1  0.002853  -0.001951  -0.088553  -0.191921  -0.000896  3.985284  -0.002
C  C63  1  0.57744307  0.40737035  0.61176342  1  0.003024  0.001953  -0.088545  -0.191799  0.000897  3.984999  0.002
C  C64  1  0.07743120  0.40736931  0.88823253  1  0.002837  -0.001951  -0.088583  -0.191965  -0.000897  3.985277  -0.002
C  C65  1  0.42255521  0.59262507  0.38823658  1  0.002967  0.001952  -0.088498  -0.191828  0.000897  3.984757  0.002
C  C66  1  0.01831667  0.58882429  0.20196664  1  -0.043951  0.010503  0.006335  0.131827  0.005604  3.953231  0.007
C  C67  1  0.48169006  0.41117738  0.70197312  1  -0.044052  -0.01051  0.006364  0.131727  -0.005607  3.952795  -0.007
C  C68  1  0.98168084  0.41117425  0.79803255  1  -0.043932  0.010503  0.006308  0.131757  0.005604  3.953233  0.007
C  C69  1  0.51831494  0.58882637  0.29802445  1  -0.043942  -0.010505  0.006246  0.131615  -0.005605  3.95293  -0.007
C  C70  1  0.11796048  0.70889647  0.22440369  1  -0.070095  -0.001825  -0.087992  -0.17907  -0.000879  3.95977  -0.002
C  C71  1  0.38204371  0.29110312  0.72440774  1  -0.070132  0.001826  -0.087998  -0.179065  0.000879  3.959845  0.002
C  C72  1  0.88203830  0.29110312  0.77559793  1  -0.070103  -0.001825  -0.087936  -0.178918  -0.000879  3.959736  -0.002
C  C73  1  0.61795228  0.70889231  0.27559388  1  -0.070166  0.001825  -0.087943  -0.178883  0.000879  3.959632  0.002
C  C74  1  0.11517460  0.82593385  0.15988503  1  0.479902  0.008069  0.039468  0.074216  0.004379  3.92688  0.005
C  C75  1  0.38483316  0.17406677  0.65988584  1  0.480056  -0.008073  0.039392  0.074048  -0.004381  3.926826  -0.005
C  C76  1  0.88482647  0.17406573  0.84011740  1  0.47991  0.008069  0.039412  0.074099  0.004379  3.927023  0.005
C  C77  1  0.61516955  0.82593698  0.34011335  1  0.479938  -0.008076  0.039434  0.074079  -0.004383  3.92668  -0.005
C  C78  1  0.01153004  0.46227455  0.27356813  1  0.308469  -0.000272  -0.058799  -0.106404  -0.000143  3.954901  -0.001
C  C79  1  0.48847568  0.53772816  0.77357299  1  0.308448  0.000272  -0.058738  -0.106252  0.000143  3.954769  0.001
C  C80  1  0.98846989  0.53772503  0.72643106  1  0.308449  -0.000272  -0.058791  -0.106389  -0.000143  3.9549  -0.001
C  C81  1  0.51152552  0.46227247  0.22642701  1  0.308587  0.000272  -0.058735  -0.106257  0.000143  3.954754  0.001
C  C82  1  0.91086480  0.57419046  0.42958708  1  0.306641  3.6e-05  -0.071106  -0.080821  2.7e-05  3.953866  0.0
C  C83  1  0.58913936  0.42581329  0.92958708  1  0.307344  -3.6e-05  -0.071151  -0.080947  -2.7e-05  3.953993  0.0
C  C84  1  0.08913043  0.42580809  0.57041211  1  0.306713  3.6e-05  -0.071096  -0.080788  2.7e-05  3.953823  0.0
C  C85  1  0.41085815  0.57418525  0.07041130  1  0.307406  -3.6e-05  -0.071138  -0.080866  -2.7e-05  3.953813  0.0
C  C86  1  0.05489366  0.37956388  0.45453647  1  0.283559  -1.5e-05  -0.067798  -0.080211  -3.6e-05  3.948273  0.0
C  C87  1  0.44511196  0.62042842  0.95453890  1  0.283716  1.5e-05  -0.067713  -0.080108  3.6e-05  3.948215  0.0
C  C88  1  0.94511214  0.62042738  0.54546272  1  0.283745  -1.5e-05  -0.067698  -0.080109  -3.6e-05  3.948156  0.0
C  C89  1  0.55488556  0.37957012  0.04546029  1  0.283623  1.5e-05  -0.067732  -0.08015  3.6e-05  3.948245  0.0
C  C90  1  0.30962864  0.97951367  0.91548943  1  1.559838  0.002939  0.216103  0.616553  0.001904  4.116438  0.002
C  C91  1  0.19036460  0.02049008  0.41549024  1  1.559374  -0.002941  0.216236  0.616639  -0.001905  4.116784  -0.002
C  C92  1  0.69037014  0.02048591  0.08450652  1  1.559618  0.00294  0.216241  0.616848  0.001904  4.116381  0.002
C  C93  1  0.80963504  0.97951680  0.58451785  1  1.559671  -0.002941  0.216209  0.616647  -0.001905  4.116935  -0.002
C  C94  1  0.48102755  0.00555026  0.93985102  1  -0.02376  0.001088  -0.165021  -0.278052  0.000693  3.935755  0.001
C  C95  1  0.01897445  0.99445973  0.43985588  1  -0.050086  -0.001088  -0.165033  -0.278113  -0.000693  3.936188  -0.001
C  C96  1  0.51897936  0.99445036  0.06014493  1  -0.051172  0.001089  -0.165075  -0.278181  0.000693  3.936153  0.001
C  C97  1  0.98102393  0.00554610  0.56014817  1  -0.023583  -0.001088  -0.165058  -0.278125  -0.000693  3.936143  -0.001
N  N98  1  0.01615605  0.83049125  0.07598899  1  -1.198703  0.01062  -0.349853  -0.192  0.005106  3.65253  0.007
N  N99  1  0.48385400  0.16950938  0.57599142  1  -1.198925  -0.010618  -0.349834  -0.192004  -0.005105  3.65241  -0.007
N  N100  1  0.98384490  0.16950730  0.92401182  1  -1.198745  0.01062  -0.349863  -0.191971  0.005106  3.652631  0.007
N  N101  1  0.51614212  0.83048709  0.42401020  1  -1.198974  -0.010618  -0.349845  -0.192086  -0.005105  3.652526  -0.007
N  N102  1  0.03490170  0.49996493  0.38692252  1  -1.050448  0.000233  -0.343876  -0.144181  0.000136  3.508496  0.0
N  N103  1  0.46510299  0.50003882  0.88692090  1  -1.05058  -0.000233  -0.343905  -0.144129  -0.000136  3.508662  0.0
N  N104  1  0.96509594  0.50003466  0.61307748  1  -1.05058  0.000233  -0.343902  -0.144176  0.000136  3.508661  0.0
N  N105  1  0.53489718  0.49996285  0.11307748  1  -1.05058  -0.000233  -0.343927  -0.144201  -0.000136  3.508633  0.0
O  O106  1  0.22155112  0.02492779  0.98734839  1  -1.130874  0.005386  -0.30052  -0.510416  0.002192  2.457068  0.004
O  O107  1  0.27845066  0.97507076  0.48736216  1  -1.130731  -0.005392  -0.300643  -0.510518  -0.002196  2.456796  -0.004
O  O108  1  0.77845314  0.97506972  0.01265080  1  -1.130667  0.005387  -0.300541  -0.51053  0.002192  2.457044  0.004
O  O109  1  0.72154710  0.02492987  0.51264027  1  -1.13035  -0.005393  -0.300643  -0.510545  -0.002196  2.456689  -0.004
O  O110  1  0.26593337  0.91770937  0.82829973  1  -1.19587  0.002013  -0.309347  -0.55662  0.001039  2.203189  0.001
O  O111  1  0.23407085  0.08228085  0.32830621  1  -1.195756  -0.002014  -0.309375  -0.556627  -0.001039  2.203583  -0.001
O  O112  1  0.73407036  0.08229334  0.17169622  1  -1.195717  0.002013  -0.309416  -0.556742  0.001039  2.203098  0.001
O  O113  1  0.76593195  0.91773331  0.67169784  1  -1.196081  -0.002014  -0.309327  -0.556541  -0.001039  2.203896  -0.001
O  O114  1  0.03875375  0.13731931  0.15775403  1  -1.29429  -0.050465  -0.584907  -0.773141  -0.027883  2.104234  -0.041
O  O115  1  0.46124980  0.86268444  0.65775646  1  -1.294658  0.050466  -0.584931  -0.773184  0.027884  2.10416  0.041
O  O116  1  0.96125076  0.86268028  0.84224597  1  -1.294287  -0.050465  -0.584827  -0.772915  -0.027884  2.104365  -0.041
O  O117  1  0.53875127  0.13731515  0.34224354  1  -1.294586  0.050463  -0.584918  -0.77317  0.027883  2.104194  0.041
