# generated using pymatgen
data_CdH9C10N2ClO3
_symmetry_space_group_name_H-M   'P 1'
_cell_length_a   8.97433245
_cell_length_b   10.83396275
_cell_length_c   12.85600000
_cell_angle_alpha   93.15186861
_cell_angle_beta   90.00000000
_cell_angle_gamma   114.46736699
_symmetry_Int_Tables_number   1
_chemical_formula_structural   CdH9C10N2ClO3
_chemical_formula_sum   'Cd4 H36 C40 N8 Cl4 O12'
_cell_volume   1135.63055990
_cell_formula_units_Z   4
loop_
 _symmetry_equiv_pos_site_id
 _symmetry_equiv_pos_as_xyz
  1  'x, y, z'
loop_
 _atom_site_type_symbol
 _atom_site_label
 _atom_site_symmetry_multiplicity
 _atom_site_fract_x
 _atom_site_fract_y
 _atom_site_fract_z
 _atom_site_occupancy
 _atom_site_hle17_bader_spin_density
 _atom_site_hle17_ddec_charge
 _atom_site_hle17_ddec_spin_density
 _atom_site_hle17_ddec_sum_bond_order
 _atom_site_hle17_magmom
 _atom_site_hse06_10hf_bader_spin_density
 _atom_site_hse06_10hf_ddec_charge
 _atom_site_hse06_10hf_ddec_spin_density
 _atom_site_hse06_10hf_ddec_sum_bond_order
 _atom_site_hse06_10hf_magmom
 _atom_site_hse06_bader_spin_density
 _atom_site_hse06_ddec_charge
 _atom_site_hse06_ddec_spin_density
 _atom_site_hse06_ddec_sum_bond_order
 _atom_site_hse06_magmom
 _atom_site_pbe_bader_charge
 _atom_site_pbe_bader_spin_density
 _atom_site_pbe_cm5_charge
 _atom_site_pbe_ddec_charge
 _atom_site_pbe_ddec_spin_density
 _atom_site_pbe_ddec_sum_bond_order
 _atom_site_pbe_magmom
Cd  Cd0  1  0.71728516  0.99984400  0.24997807  1  0  1.073928  0  1.766451  0  0  0.91146  0  2.215085  0  0  0.967816  0  2.16235  0  1.198164  0  0.653651  0.871403  0  2.251107  0
Cd  Cd1  1  0.28271490  0.00015544  0.75002198  1  0  1.073924  0  1.766437  0  0  0.911462  0  2.215065  0  0  0.967817  0  2.162331  0  1.198171  0  0.653652  0.871406  0  2.251085  0
Cd  Cd2  1  0.11940865  0.00001626  0.24998208  1  0  1.076009  0  1.770463  0  0  0.906813  0  2.202949  0  0  0.954075  0  2.159623  0  1.227035  0  0.714909  0.873869  0  2.232022  0
Cd  Cd3  1  0.88058918  0.99998318  0.75001719  1  0  1.075987  0  1.770472  0  0  0.906779  0  2.202996  0  0  0.954047  0  2.159657  0  1.227061  0  0.714895  0.873837  0  2.232066  0
H  H4  1  0.15442974  0.24727331  0.60967066  1  0  0.106615  0  0.949986  0  0  0.111823  0  1.020972  0  0  0.115009  0  1.016635  0  0.176366  0  0.133762  0.109302  0  1.024406  0
H  H5  1  0.90737917  0.75290290  0.89041303  1  0  0.107362  0  0.949479  0  0  0.111986  0  1.021099  0  0  0.115105  0  1.016812  0  0.186452  0  0.133628  0.109623  0  1.024228  0
H  H6  1  0.84556911  0.75272816  0.39033026  1  0  0.106614  0  0.949955  0  0  0.111811  0  1.02095  0  0  0.114994  0  1.016618  0  0.176324  0  0.133741  0.10929  0  1.024385  0
H  H7  1  0.09262078  0.24709857  0.10958478  1  0  0.107387  0  0.949453  0  0  0.111992  0  1.021096  0  0  0.115129  0  1.016783  0  0.18644  0  0.133614  0.109628  0  1.024231  0
H  H8  1  0.79559008  0.27497818  0.80889151  1  0  0.115707  0  0.950571  0  0  0.126037  0  1.008215  0  0  0.127893  0  1.008651  0  0.129404  0  0.119495  0.12458  0  1.008109  0
H  H9  1  0.52080243  0.72482315  0.69105658  1  0  0.115751  0  0.950398  0  0  0.126128  0  1.008138  0  0  0.128021  0  1.00849  0  0.135693  0  0.119578  0.124726  0  1.007998  0
H  H10  1  0.20440826  0.72502227  0.19110859  1  0  0.115681  0  0.950647  0  0  0.126045  0  1.008256  0  0  0.127904  0  1.00869  0  0.129415  0  0.119485  0.124571  0  1.00817  0
H  H11  1  0.47919833  0.27517324  0.30893944  1  0  0.115704  0  0.950435  0  0  0.126068  0  1.00819  0  0  0.127973  0  1.008528  0  0.135749  0  0.119574  0.124665  0  1.008045  0
H  H12  1  0.93755099  0.51540096  0.70735645  1  0  0.124808  0  0.945929  0  0  0.136747  0  1.000996  0  0  0.139513  0  0.999344  0  0.137796  0  0.128957  0.13461  0  1.00243  0
H  H13  1  0.42252173  0.48445624  0.79265412  1  0  0.124368  0  0.946795  0  0  0.136322  0  1.001812  0  0  0.139222  0  1.000003  0  0.146826  0  0.128855  0.134237  0  1.003202  0
H  H14  1  0.06244786  0.48460051  0.29264525  1  0  0.124829  0  0.945917  0  0  0.136749  0  1.001009  0  0  0.139509  0  0.999364  0  0.137804  0  0.128984  0.134613  0  1.002441  0
H  H15  1  0.57747944  0.51554320  0.20734438  1  0  0.124438  0  0.946833  0  0  0.136332  0  1.001914  0  0  0.139229  0  1.000109  0  0.146881  0  0.128865  0.134254  0  1.003301  0
H  H16  1  0.13138976  0.67538007  0.64203571  1  0  0.116109  0  0.980018  0  0  0.123582  0  1.046436  0  0  0.127204  0  1.044247  0  0.136511  0  0.102452  0.120892  0  1.048242  0
H  H17  1  0.45632310  0.32464782  0.85803178  1  0  0.116307  0  0.979451  0  0  0.123022  0  1.046733  0  0  0.126635  0  1.044568  0  0.110548  0  0.102587  0.120428  0  1.048344  0
H  H18  1  0.86861020  0.32462140  0.35796599  1  0  0.116106  0  0.980011  0  0  0.12358  0  1.046421  0  0  0.127203  0  1.044231  0  0.136546  0  0.10245  0.120891  0  1.048225  0
H  H19  1  0.54368020  0.67535365  0.14196915  1  0  0.116304  0  0.979413  0  0  0.123024  0  1.046687  0  0  0.126639  0  1.044519  0  0.110543  0  0.102578  0.12043  0  1.048298  0
H  H20  1  0.31108666  0.84500863  0.52678404  1  0  0.095994  0  0.97591  0  0  0.103776  0  1.044339  0  0  0.106747  0  1.042022  0  0.083555  0  0.099523  0.101525  0  1.046191  0
H  H21  1  0.46618344  0.15499690  0.97331431  1  0  0.095488  0  0.975489  0  0  0.102857  0  1.044318  0  0  0.105781  0  1.042081  0  0.123808  0  0.098823  0.100505  0  1.046303  0
H  H22  1  0.68891390  0.15499182  0.47321762  1  0  0.096066  0  0.975862  0  0  0.103752  0  1.044391  0  0  0.106724  0  1.042073  0  0.083571  0  0.099503  0.101501  0  1.046242  0
H  H23  1  0.53381986  0.84500457  0.02668506  1  0  0.095512  0  0.975461  0  0  0.10286  0  1.044326  0  0  0.105783  0  1.042092  0  0.12378  0  0.098801  0.100509  0  1.046313  0
H  H24  1  0.44341875  0.54391859  0.37284630  1  0  0.087369  0  0.991269  0  0  0.092911  0  1.062421  0  0  0.095616  0  1.061564  0  0.102452  0  0.096223  0.090916  0  1.063178  0
H  H25  1  0.89980671  0.45599144  0.12723596  1  0  0.087593  0  0.991972  0  0  0.093174  0  1.062988  0  0  0.095862  0  1.06213  0  0.100726  0  0.096357  0.091201  0  1.063697  0
H  H26  1  0.55658019  0.45608085  0.62715376  1  0  0.087366  0  0.991247  0  0  0.092918  0  1.062397  0  0  0.095625  0  1.061537  0  0.102442  0  0.096213  0.090923  0  1.063154  0
H  H27  1  0.10019052  0.54400901  0.87276414  1  0  0.087553  0  0.991917  0  0  0.093122  0  1.062964  0  0  0.09582  0  1.062097  0  0.10072  0  0.09634  0.091149  0  1.063672  0
H  H28  1  0.25575045  0.36880594  0.48252417  1  0  0.114209  0  0.944013  0  0  0.125603  0  1.00153  0  0  0.128653  0  1.000358  0  0.064051  0  0.108729  0.123394  0  1.002545  0
H  H29  1  0.88714235  0.63110815  0.01759950  1  0  0.114122  0  0.943958  0  0  0.125908  0  1.000925  0  0  0.128948  0  0.999773  0  0.08041  0  0.108925  0.123482  0  1.002403  0
H  H30  1  0.74424788  0.63119451  0.51747671  1  0  0.114194  0  0.944025  0  0  0.12559  0  1.001531  0  0  0.12864  0  1.000359  0  0.064043  0  0.108717  0.123383  0  1.002545  0
H  H31  1  0.11285882  0.36889128  0.98240289  1  0  0.114116  0  0.943999  0  0  0.125894  0  1.000972  0  0  0.128931  0  0.999826  0  0.080324  0  0.108932  0.123467  0  1.002449  0
H  H32  1  0.37008316  0.00217717  0.10219095  1  0  0.429244  0  0.872855  0  0  0.396836  0  0.939214  0  0  0.408396  0  0.922449  0  0.644407  0  0.28434  0.388629  0  0.951049  0
H  H33  1  0.36802550  0.99799599  0.39776036  1  0  0.429924  0  0.871584  0  0  0.396768  0  0.938949  0  0  0.408336  0  0.922196  0  0.649217  0  0.284615  0.388613  0  0.950731  0
H  H34  1  0.62991355  0.99782226  0.89780832  1  0  0.429129  0  0.87302  0  0  0.396798  0  0.939234  0  0  0.408358  0  0.922459  0  0.644387  0  0.284357  0.388604  0  0.951056  0
H  H35  1  0.63197344  0.00200345  0.60223969  1  0  0.429928  0  0.871579  0  0  0.396783  0  0.93892  0  0  0.40835  0  0.922168  0  0.649213  0  0.284612  0.388629  0  0.950701  0
H  H36  1  0.20701218  0.97774106  0.03902627  1  0  0.407922  0  0.878002  0  0  0.377594  0  0.952939  0  0  0.386922  0  0.939369  0  0.617401  0  0.272593  0.370875  0  0.962721  0
H  H37  1  0.22951258  0.02260278  0.46091195  1  0  0.40788  0  0.878451  0  0  0.377539  0  0.95329  0  0  0.386876  0  0.939678  0  0.626664  0  0.272711  0.370871  0  0.963005  0
H  H38  1  0.79298787  0.02225838  0.96097456  1  0  0.407891  0  0.878024  0  0  0.37756  0  0.952984  0  0  0.386886  0  0.939417  0  0.6174  0  0.27258  0.370842  0  0.962765  0
H  H39  1  0.77048738  0.97739868  0.53908664  1  0  0.407908  0  0.878408  0  0  0.377554  0  0.953278  0  0  0.38689  0  0.939668  0  0.626648  0  0.272702  0.370886  0  0.962994  0
C  C40  1  0.07413100  0.28606013  0.64857347  1  0  0.180581  0  3.625677  0  0  0.117146  0  3.893332  0  0  0.132087  0  3.904809  0  0.992676  0  0.147533  0.107593  0  3.885295  0
C  C41  1  0.78831730  0.71403176  0.85147675  1  0  0.179665  0  3.6272  0  0  0.11622  0  3.895224  0  0  0.131265  0  3.90667  0  0.956124  0  0.1476  0.106961  0  3.886791  0
C  C42  1  0.92586682  0.71393931  0.35142736  1  0  0.180537  0  3.625654  0  0  0.11711  0  3.89331  0  0  0.132053  0  3.90479  0  0.992656  0  0.147524  0.107556  0  3.885274  0
C  C43  1  0.21168326  0.28596869  0.14852023  1  0  0.179647  0  3.627301  0  0  0.116195  0  3.895334  0  0  0.131231  0  3.906768  0  0.956299  0  0.147628  0.106936  0  3.886898  0
C  C44  1  0.89086575  0.30584975  0.75165206  1  0  0.017534  0  3.713971  0  0  -0.014989  0  3.975687  0  0  -0.013038  0  3.995726  0  0.384279  0  0.003033  -0.016232  0  3.962122  0
C  C45  1  0.58517986  0.69402066  0.74834824  1  0  0.017935  0  3.71294  0  0  -0.014633  0  3.974553  0  0  -0.012704  0  3.994564  0  0.403546  0  0.003121  -0.016093  0  3.961031  0
C  C46  1  0.10913421  0.69415171  0.24834809  1  0  0.017566  0  3.713971  0  0  -0.014992  0  3.975687  0  0  -0.013041  0  3.995724  0  0.384271  0  0.003063  -0.01622  0  3.96213  0
C  C47  1  0.41481918  0.30597675  0.25165017  1  0  0.018092  0  3.712901  0  0  -0.014468  0  3.974507  0  0  -0.012547  0  3.994507  0  0.403128  0  0.003137  -0.015925  0  3.960986  0
C  C48  1  0.96077405  0.42501218  0.70271482  1  0  -0.050786  0  3.655088  0  0  -0.09038  0  3.914586  0  0  -0.088262  0  3.931962  0  0.315688  0  0.007459  -0.091741  0  3.902854  0
C  C49  1  0.53606414  0.57489379  0.79733691  1  0  -0.049755  0  3.65464  0  0  -0.089482  0  3.913913  0  0  -0.087457  0  3.931292  0  0.292001  0  0.007559  -0.090802  0  3.902384  0
C  C50  1  0.03922429  0.57498827  0.29728606  1  0  -0.050819  0  3.65511  0  0  -0.09041  0  3.914632  0  0  -0.088288  0  3.932003  0  0.315391  0  0.007419  -0.091769  0  3.902894  0
C  C51  1  0.46394037  0.42510565  0.20266159  1  0  -0.049831  0  3.65471  0  0  -0.089518  0  3.914006  0  0  -0.087493  0  3.931384  0  0.292273  0  0.00755  -0.090849  0  3.902488  0
C  C52  1  0.18138003  0.51048480  0.57062275  1  0  0.193616  0  3.768904  0  0  0.183299  0  4.017698  0  0  0.191072  0  4.039607  0  0.286988  0  0.099592  0.178229  0  4.002706  0
C  C53  1  0.67116302  0.48951058  0.92948368  1  0  0.19397  0  3.767171  0  0  0.182544  0  4.017275  0  0  0.19029  0  4.039244  0  0.27257  0  0.099574  0.177814  0  4.002166  0
C  C54  1  0.81861942  0.48951566  0.42937813  1  0  0.193746  0  3.768906  0  0  0.183357  0  4.017787  0  0  0.19113  0  4.039696  0  0.286999  0  0.099665  0.178288  0  4.002795  0
C  C55  1  0.32883805  0.51049089  0.07051569  1  0  0.194018  0  3.767215  0  0  0.18252  0  4.017408  0  0  0.190267  0  4.039377  0  0.272499  0  0.099579  0.177791  0  4.002298  0
C  C56  1  0.19637351  0.64447090  0.58193132  1  0  -0.161718  0  3.722396  0  0  -0.184399  0  3.981949  0  0  -0.190208  0  4.001857  0  -0.034848  0  -0.095345  -0.180527  0  3.968439  0
C  C57  1  0.55220159  0.35550822  0.91814713  1  0  -0.161212  0  3.719928  0  0  -0.182863  0  3.979731  0  0  -0.188623  0  3.999595  0  -0.019796  0  -0.09523  -0.178774  0  3.965737  0
C  C58  1  0.80362543  0.35552853  0.41807029  1  0  -0.161763  0  3.722462  0  0  -0.184412  0  3.982008  0  0  -0.190221  0  4.001918  0  -0.034918  0  -0.095357  -0.18054  0  3.968498  0
C  C59  1  0.44780060  0.64449325  0.08185302  1  0  -0.161205  0  3.719896  0  0  -0.182823  0  3.979715  0  0  -0.188581  0  3.999577  0  -0.019868  0  -0.095181  -0.178732  0  3.965719  0
C  C60  1  0.29909456  0.74090457  0.51710040  1  0  -0.035993  0  3.723639  0  0  -0.061616  0  3.974156  0  0  -0.059238  0  3.993683  0  -0.039345  0  -0.080723  -0.063054  0  3.961039  0
C  C61  1  0.55842366  0.25907049  0.98301053  1  0  -0.036674  0  3.724145  0  0  -0.062046  0  3.975097  0  0  -0.059615  0  3.994552  0  -0.028749  0  -0.080107  -0.062873  0  3.961388  0
C  C62  1  0.70090489  0.25909588  0.48289970  1  0  -0.036066  0  3.723744  0  0  -0.061609  0  3.974263  0  0  -0.059233  0  3.993791  0  -0.03931  0  -0.08072  -0.063048  0  3.961146  0
C  C63  1  0.44157914  0.74092997  0.01698801  1  0  -0.036684  0  3.724095  0  0  -0.062058  0  3.975072  0  0  -0.059628  0  3.994526  0  -0.028693  0  -0.08009  -0.062887  0  3.961363  0
C  C64  1  0.38909059  0.70563598  0.44153889  1  0  -0.079675  0  3.785185  0  0  -0.05516  0  4.014898  0  0  -0.065334  0  4.038801  0  0.042757  0  -0.02229  -0.04865  0  3.998905  0
C  C65  1  0.68367463  0.29427406  0.05855736  1  0  -0.07895  0  3.785867  0  0  -0.05451  0  4.016108  0  0  -0.064675  0  4.040006  0  -0.041703  0  -0.022247  -0.048412  0  3.999965  0
C  C66  1  0.61090723  0.29436346  0.55846039  1  0  -0.079659  0  3.785212  0  0  -0.055169  0  4.014932  0  0  -0.06534  0  4.038837  0  0.042734  0  -0.022303  -0.048658  0  3.998938  0
C  C67  1  0.31632532  0.70572741  0.94144356  1  0  -0.078915  0  3.785855  0  0  -0.054476  0  4.016101  0  0  -0.064642  0  4.040001  0  -0.041709  0  -0.022241  -0.048379  0  3.999958  0
C  C68  1  0.49918861  0.80671252  0.37081000  1  0  0.636605  0  3.915863  0  0  0.585509  0  4.204701  0  0  0.620768  0  4.198586  0  1.515776  0  0.194773  0.561671  0  4.207896  0
C  C69  1  0.69254870  0.19309389  0.12925501  1  0  0.638469  0  3.913763  0  0  0.586846  0  4.203635  0  0  0.622131  0  4.197447  0  1.525606  0  0.194952  0.563192  0  4.206446  0
C  C70  1  0.50081034  0.19328692  0.62919083  1  0  0.636611  0  3.915832  0  0  0.58554  0  4.204643  0  0  0.620794  0  4.198534  0  1.515815  0  0.194793  0.561701  0  4.207839  0
C  C71  1  0.30745125  0.80690758  0.87074670  1  0  0.638434  0  3.913743  0  0  0.586821  0  4.203624  0  0  0.622102  0  4.197438  0  1.525441  0  0.194909  0.563168  0  4.206435  0
C  C72  1  0.37399937  0.57151678  0.43183741  1  0  -0.050857  0  3.757798  0  0  -0.073685  0  4.003006  0  0  -0.071854  0  4.023478  0  -0.085748  0  -0.083731  -0.074518  0  3.989041  0
C  C73  1  0.80268054  0.42841662  0.06831749  1  0  -0.052622  0  3.759958  0  0  -0.07531  0  4.005224  0  0  -0.073475  0  4.025744  0  0.044319  0  -0.084604  -0.07633  0  3.991579  0
C  C74  1  0.62599957  0.42848265  0.56816265  1  0  -0.050862  0  3.757734  0  0  -0.073697  0  4.002936  0  0  -0.071865  0  4.023402  0  -0.085742  0  -0.083728  -0.074529  0  3.98897  0
C  C75  1  0.19732388  0.57158485  0.93168110  1  0  -0.052561  0  3.75984  0  0  -0.07524  0  4.005128  0  0  -0.073412  0  4.025642  0  0.0446  0  -0.084591  -0.07626  0  3.991482  0
C  C76  1  0.26921758  0.47326152  0.49435617  1  0  -0.159587  0  3.731808  0  0  -0.177785  0  3.984813  0  0  -0.183771  0  4.005444  0  0.024586  0  -0.09153  -0.174004  0  3.971049  0
C  C77  1  0.79611424  0.52665968  0.00578572  1  0  -0.15816  0  3.731887  0  0  -0.176287  0  3.985162  0  0  -0.18226  0  4.005823  0  -0.050078  0  -0.091403  -0.172913  0  3.972017  0
C  C78  1  0.73078349  0.52673994  0.50564398  1  0  -0.1596  0  3.731792  0  0  -0.177766  0  3.9848  0  0  -0.183755  0  4.00544  0  0.024581  0  -0.091503  -0.173981  0  3.971025  0
C  C79  1  0.20388804  0.47333975  0.99421356  1  0  -0.15817  0  3.731897  0  0  -0.176272  0  3.985194  0  0  -0.182248  0  4.005862  0  -0.050119  0  -0.091389  -0.172897  0  3.972048  0
N  N80  1  0.96278096  0.22072256  0.71698897  1  0  -0.377564  0  3.284487  0  0  -0.297706  0  3.562358  0  0  -0.319511  0  3.580949  0  -1.220853  0  -0.358808  -0.283018  0  3.549282  0
N  N81  1  0.74220256  0.77925148  0.78301457  1  0  -0.378066  0  3.2872  0  0  -0.298093  0  3.564821  0  0  -0.319848  0  3.58331  0  -1.215707  0  -0.359047  -0.283081  0  3.551277  0
N  N82  1  0.03721737  0.77927789  0.28301268  1  0  -0.377515  0  3.284436  0  0  -0.297659  0  3.562314  0  0  -0.319462  0  3.580903  0  -1.220808  0  -0.358773  -0.28297  0  3.549232  0
N  N83  1  0.25779810  0.22074694  0.21698232  1  0  -0.378153  0  3.287248  0  0  -0.298148  0  3.564846  0  0  -0.319904  0  3.583339  0  -1.215879  0  -0.359072  -0.283136  0  3.551298  0
N  N84  1  0.07738950  0.41196234  0.63717938  1  0  -0.088309  0  3.578959  0  0  0.002124  0  3.789522  0  0  -0.013455  0  3.81469  0  -1.259458  0  -0.219851  0.012526  0  3.772138  0
N  N85  1  0.66573935  0.58807773  0.86292289  1  0  -0.089591  0  3.57894  0  0  0.001608  0  3.789417  0  0  -0.013973  0  3.814621  0  -1.250447  0  -0.219788  0.011716  0  3.772039  0
N  N86  1  0.92260995  0.58803811  0.36282227  1  0  -0.088353  0  3.579014  0  0  0.002106  0  3.789585  0  0  -0.013471  0  3.814751  0  -1.259151  0  -0.219903  0.012508  0  3.772202  0
N  N87  1  0.33426122  0.41192272  0.13707643  1  0  -0.089691  0  3.579006  0  0  0.001551  0  3.789479  0  0  -0.014032  0  3.814684  0  -1.250364  0  -0.219841  0.011659  0  3.772103  0
Cl  Cl88  1  0.93722773  0.06887509  0.39511104  1  0  -0.589774  0  0.958062  0  0  -0.522379  0  1.235439  0  0  -0.541877  0  1.212175  0  -0.644416  0  -0.290423  -0.508385  0  1.251391  0
Cl  Cl89  1  0.86818722  0.93071898  0.10487723  1  0  -0.589841  0  0.957541  0  0  -0.522247  0  1.234137  0  0  -0.541768  0  1.210925  0  -0.643792  0  -0.29046  -0.508646  0  1.250459  0
Cl  Cl90  1  0.06277232  0.93112434  0.60488979  1  0  -0.589759  0  0.958052  0  0  -0.522362  0  1.235416  0  0  -0.541861  0  1.212148  0  -0.644366  0  -0.290415  -0.508373  0  1.251373  0
Cl  Cl91  1  0.13181010  0.06927944  0.89512356  1  0  -0.58984  0  0.957523  0  0  -0.522245  0  1.234117  0  0  -0.541765  0  1.210899  0  -0.643812  0  -0.290455  -0.508645  0  1.250438  0
O  O92  1  0.59368807  0.77414838  0.31280845  1  0  -0.634843  0  1.974222  0  0  -0.575625  0  2.2159  0  0  -0.604626  0  2.207889  0  -1.160511  0  -0.327406  -0.555331  0  2.220645  0
O  O93  1  0.81954441  0.22562044  0.18728981  1  0  -0.635181  0  1.974318  0  0  -0.575809  0  2.216301  0  0  -0.604807  0  2.208255  0  -1.16899  0  -0.32685  -0.555553  0  2.220941  0
O  O94  1  0.40631239  0.22585411  0.68719252  1  0  -0.634865  0  1.974192  0  0  -0.575667  0  2.215874  0  0  -0.604669  0  2.207866  0  -1.160544  0  -0.327445  -0.555373  0  2.220618  0
O  O95  1  0.18045625  0.77437798  0.81271097  1  0  -0.635203  0  1.974326  0  0  -0.575835  0  2.216306  0  0  -0.604834  0  2.20826  0  -1.16887  0  -0.326843  -0.55558  0  2.220945  0
O  O96  1  0.24859711  0.94949977  0.09988247  1  0  -0.819341  0  1.855829  0  0  -0.760799  0  2.045966  0  0  -0.78195  0  2.015321  0  -1.25188  0  -0.589233  -0.74575  0  2.067015  0
O  O97  1  0.29939726  0.05083188  0.40008086  1  0  -0.820013  0  1.85393  0  0  -0.761064  0  2.04443  0  0  -0.782188  0  2.013712  0  -1.264874  0  -0.58954  -0.74599  0  2.065646  0
O  O98  1  0.75140082  0.05049763  0.90011827  1  0  -0.819234  0  1.855941  0  0  -0.76073  0  2.046075  0  0  -0.781874  0  2.015446  0  -1.251858  0  -0.589255  -0.745695  0  2.067083  0
O  O99  1  0.70060219  0.94916857  0.59991846  1  0  -0.82006  0  1.853848  0  0  -0.761103  0  2.044359  0  0  -0.782228  0  2.013637  0  -1.26486  0  -0.589527  -0.746029  0  2.065577  0
O  O100  1  0.49825378  0.92519528  0.36930859  1  0  -0.652664  0  2.016074  0  0  -0.577048  0  2.251421  0  0  -0.607222  0  2.240316  0  -1.170574  0  -0.323456  -0.555904  0  2.258262  0
O  O101  1  0.57307638  0.07459691  0.13060329  1  0  -0.653912  0  2.015154  0  0  -0.578248  0  2.25031  0  0  -0.608495  0  2.23938  0  -1.182657  0  -0.323828  -0.556782  0  2.256901  0
O  O102  1  0.50174516  0.07480416  0.63069302  1  0  -0.652652  0  2.016078  0  0  -0.577047  0  2.251424  0  0  -0.607217  0  2.240312  0  -1.170565  0  -0.323447  -0.555904  0  2.258265  0
O  O103  1  0.42692530  0.92540355  0.86939680  1  0  -0.653822  0  2.015152  0  0  -0.578185  0  2.250244  0  0  -0.608428  0  2.239313  0  -1.182688  0  -0.323797  -0.556723  0  2.25684  0
