# generated using pymatgen
data_SmAgH8C18(NO2)4
_symmetry_space_group_name_H-M   'P 1'
_cell_length_a   8.62439706
_cell_length_b   17.66249420
_cell_length_c   24.95820081
_cell_angle_alpha   90.00016437
_cell_angle_beta   90.00002715
_cell_angle_gamma   89.99996769
_symmetry_Int_Tables_number   1
_chemical_formula_structural   SmAgH8C18(NO2)4
_chemical_formula_sum   'Sm8 Ag8 H64 C144 N32 O64'
_cell_volume   3801.84187348
_cell_formula_units_Z   8
loop_
 _symmetry_equiv_pos_site_id
 _symmetry_equiv_pos_as_xyz
  1  'x, y, z'
loop_
 _atom_site_type_symbol
 _atom_site_label
 _atom_site_symmetry_multiplicity
 _atom_site_fract_x
 _atom_site_fract_y
 _atom_site_fract_z
 _atom_site_occupancy
 _atom_site_pbe_bader_charge
 _atom_site_pbe_bader_spin_density
 _atom_site_pbe_cm5_charge
 _atom_site_pbe_ddec_charge
 _atom_site_pbe_ddec_spin_density
 _atom_site_pbe_ddec_sum_bond_order
 _atom_site_pbe_magmom
Sm  Sm0  1  0.33796783  0.28442529  0.02559912  1  2.218393  0  1.518671  2.121767  0  2.157383  0
Sm  Sm1  1  0.83796405  0.21557504  0.97439905  1  2.218216  0  1.518678  2.121848  0  2.157236  0
Sm  Sm2  1  0.83796577  0.71557599  0.52560038  1  2.218265  0  1.518676  2.121876  0  2.157172  0
Sm  Sm3  1  0.33796669  0.78442354  0.47440040  1  2.218441  0  1.518677  2.121826  0  2.15724  0
Sm  Sm4  1  0.16203468  0.28442396  0.47439988  1  2.218249  0  1.518679  2.121817  0  2.157189  0
Sm  Sm5  1  0.66203376  0.21557585  0.52559986  1  2.218334  0  1.518719  2.121948  0  2.157113  0
Sm  Sm6  1  0.66203146  0.71557410  0.97439954  1  2.21826  0  1.518703  2.121806  0  2.157378  0
Sm  Sm7  1  0.16203408  0.78442435  0.02559961  1  2.218345  0  1.518705  2.121809  0  2.157257  0
Ag  Ag8  1  0.03876932  0.45337458  0.72643504  1  0.507482  0  0.484165  0.310818  0  1.909811  0
Ag  Ag9  1  0.53878449  0.04662527  0.27356148  1  0.507184  0  0.484151  0.310833  0  1.909877  0
Ag  Ag10  1  0.53877837  0.54662364  0.22643559  1  0.506974  0  0.484172  0.310838  0  1.909878  0
Ag  Ag11  1  0.03877254  0.95337371  0.77356394  1  0.507463  0  0.484174  0.310823  0  1.909871  0
Ag  Ag12  1  0.46122787  0.45337349  0.77356547  1  0.507044  0  0.484158  0.310865  0  1.909854  0
Ag  Ag13  1  0.96121863  0.04662398  0.22643592  1  0.507303  0  0.484176  0.310825  0  1.909896  0
Ag  Ag14  1  0.96122765  0.54662877  0.27356402  1  0.507396  0  0.484157  0.310834  0  1.909902  0
Ag  Ag15  1  0.46122407  0.95337865  0.72643558  1  0.507063  0  0.48416  0.31082  0  1.909896  0
H  H16  1  0.54701456  0.98612137  0.95626268  1  0.107748  0  0.111833  0.126841  0  1.029819  0
H  H17  1  0.23878665  0.81147822  0.83599740  1  0.185799  0  0.150564  0.123814  0  0.95685  0
H  H18  1  0.08904212  0.08479212  0.85388176  1  0.108153  0  0.107982  0.121207  0  1.00809  0
H  H19  1  0.61343918  0.50300835  0.93686216  1  0.139224  0  0.12356  0.145805  0  0.979718  0
H  H20  1  0.95485650  0.61354506  0.79163308  1  0.162369  0  0.141448  0.114048  0  0.986888  0
H  H21  1  0.83054073  0.33555716  0.79122331  1  0.094899  0  0.108277  0.126713  0  0.997379  0
H  H22  1  0.43390409  0.84473186  0.91032613  1  0.531608  0  0.33403  0.295495  0  0.951082  0
H  H23  1  0.78206882  0.62214086  0.86936344  1  0.580696  0  0.31224  0.294186  0  0.997112  0
H  H24  1  0.04701403  0.51387824  0.04373765  1  0.107754  0  0.111821  0.126823  0  1.029858  0
H  H25  1  0.73878759  0.68852077  0.16400216  1  0.185775  0  0.150571  0.1238  0  0.95689  0
H  H26  1  0.58904510  0.41520488  0.14611677  1  0.108129  0  0.108011  0.121236  0  1.008053  0
H  H27  1  0.11343928  0.99699181  0.06313818  1  0.139239  0  0.123555  0.145784  0  0.979734  0
H  H28  1  0.45486737  0.88645727  0.20836491  1  0.162381  0  0.141428  0.114014  0  0.986953  0
H  H29  1  0.33054026  0.16444488  0.20877486  1  0.094922  0  0.108257  0.126707  0  0.997396  0
H  H30  1  0.93390497  0.65526595  0.08967267  1  0.531586  0  0.334027  0.295464  0  0.95107  0
H  H31  1  0.28207263  0.87786095  0.13063613  1  0.580658  0  0.312232  0.294197  0  0.997104  0
H  H32  1  0.04701461  0.01388005  0.45626127  1  0.107963  0  0.11182  0.126841  0  1.029828  0
H  H33  1  0.73878684  0.18852095  0.33599643  1  0.185789  0  0.150554  0.123754  0  0.956887  0
H  H34  1  0.58904147  0.91520773  0.35388306  1  0.108106  0  0.107998  0.12122  0  1.008063  0
H  H35  1  0.11344099  0.49699127  0.43686173  1  0.139011  0  0.123566  0.145793  0  0.979732  0
H  H36  1  0.45486540  0.38645727  0.29163403  1  0.162367  0  0.14139  0.113946  0  0.986968  0
H  H37  1  0.33053654  0.66444464  0.29122362  1  0.094626  0  0.108236  0.126669  0  0.997426  0
H  H38  1  0.93390432  0.15526813  0.41032589  1  0.531614  0  0.334015  0.295446  0  0.951109  0
H  H39  1  0.28207077  0.37786071  0.36936317  1  0.580727  0  0.312238  0.29422  0  0.997073  0
H  H40  1  0.54701572  0.48612037  0.54373885  1  0.107915  0  0.11182  0.126843  0  1.029818  0
H  H41  1  0.23878219  0.31147827  0.66400172  1  0.18576  0  0.15058  0.123828  0  0.956847  0
H  H42  1  0.08904169  0.58479300  0.64611849  1  0.108149  0  0.107976  0.121182  0  1.008089  0
H  H43  1  0.61343573  0.00300800  0.56313880  1  0.139248  0  0.123576  0.1458  0  0.979734  0
H  H44  1  0.95486021  0.11354303  0.70836696  1  0.162361  0  0.14141  0.11398  0  0.986974  0
H  H45  1  0.83053922  0.83555659  0.70877596  1  0.094637  0  0.108251  0.126676  0  0.997438  0
H  H46  1  0.43390300  0.34473218  0.58967350  1  0.531621  0  0.334039  0.295507  0  0.951087  0
H  H47  1  0.78206779  0.12214077  0.63063779  1  0.580713  0  0.312257  0.29422  0  0.997044  0
H  H48  1  0.95298468  0.98612048  0.54373739  1  0.107799  0  0.111828  0.126817  0  1.029866  0
H  H49  1  0.26121361  0.81148127  0.66400303  1  0.185841  0  0.150555  0.123811  0  0.956841  0
H  H50  1  0.41095318  0.08479562  0.64611761  1  0.108159  0  0.107999  0.121238  0  1.008039  0
H  H51  1  0.88656294  0.50300586  0.56313973  1  0.139299  0  0.123592  0.14585  0  0.979751  0
H  H52  1  0.54513969  0.61354268  0.70836743  1  0.162377  0  0.141401  0.113937  0  0.986931  0
H  H53  1  0.66945811  0.33555645  0.70877745  1  0.094588  0  0.108244  0.12666  0  0.997371  0
H  H54  1  0.06609729  0.84473296  0.58967358  1  0.531631  0  0.334037  0.29551  0  0.951035  0
H  H55  1  0.71793200  0.62213981  0.63063789  1  0.580731  0  0.31228  0.294256  0  0.997005  0
H  H56  1  0.45298357  0.51388015  0.45626141  1  0.107761  0  0.111817  0.126845  0  1.029808  0
H  H57  1  0.76121362  0.68852281  0.33599774  1  0.185748  0  0.150573  0.123815  0  0.956871  0
H  H58  1  0.91095876  0.41520809  0.35388137  1  0.108121  0  0.107992  0.121234  0  1.008031  0
H  H59  1  0.38656008  0.99699139  0.43686066  1  0.139031  0  0.123569  0.145805  0  0.979754  0
H  H60  1  0.04513791  0.88645636  0.29163290  1  0.162343  0  0.14141  0.114001  0  0.986929  0
H  H61  1  0.16945659  0.16444450  0.29122430  1  0.094624  0  0.108246  0.126672  0  0.997418  0
H  H62  1  0.56609397  0.65526834  0.41032636  1  0.5316  0  0.334024  0.295446  0  0.951104  0
H  H63  1  0.21792802  0.87786088  0.36936287  1  0.58073  0  0.312224  0.294198  0  0.997106  0
H  H64  1  0.45298705  0.01387689  0.04373718  1  0.107902  0  0.111789  0.126732  0  1.029913  0
H  H65  1  0.76121264  0.18852004  0.16400246  1  0.185775  0  0.150572  0.123791  0  0.956886  0
H  H66  1  0.91095716  0.91520670  0.14611730  1  0.108139  0  0.107996  0.121205  0  1.008069  0
H  H67  1  0.38656127  0.49699330  0.06313810  1  0.139248  0  0.123582  0.145818  0  0.97972  0
H  H68  1  0.04514047  0.38645886  0.20836798  1  0.162408  0  0.141403  0.113952  0  0.986897  0
H  H69  1  0.16946436  0.66444789  0.20877575  1  0.095039  0  0.108268  0.12668  0  0.997361  0
H  H70  1  0.56609404  0.15526696  0.08967333  1  0.531594  0  0.334041  0.295489  0  0.951076  0
H  H71  1  0.21793047  0.37786306  0.13063722  1  0.58069  0  0.312268  0.294287  0  0.997024  0
H  H72  1  0.95298294  0.48612115  0.95626181  1  0.107939  0  0.111823  0.126811  0  1.029838  0
H  H73  1  0.26121170  0.31147805  0.83599810  1  0.185787  0  0.150567  0.123778  0  0.956845  0
H  H74  1  0.41095651  0.58479168  0.85388349  1  0.108147  0  0.108016  0.12125  0  1.008045  0
H  H75  1  0.88656233  0.00300589  0.93686288  1  0.139229  0  0.123569  0.145807  0  0.979742  0
H  H76  1  0.54513888  0.11354382  0.79163495  1  0.162403  0  0.141428  0.114024  0  0.986894  0
H  H77  1  0.66945787  0.83555565  0.79122420  1  0.094894  0  0.108238  0.126663  0  0.997429  0
H  H78  1  0.06609200  0.34473175  0.91032679  1  0.531561  0  0.334028  0.29542  0  0.951113  0
H  H79  1  0.71793129  0.12213900  0.86936453  1  0.58071  0  0.312213  0.294179  0  0.997125  0
C  C80  1  0.49023661  0.12596375  0.98120150  1  1.572606  0  0.24106  0.656988  0  4.149587  0
C  C81  1  0.39489429  0.08081151  0.94195022  1  0.01234  0  -0.001601  -0.037235  0  3.885879  0
C  C82  1  0.44428213  0.00608195  0.93550898  1  0.033354  0  -0.08298  -0.172016  0  3.942633  0
C  C83  1  0.35984435  0.95938214  0.90155317  1  0.353134  0  0.109173  0.175494  0  3.982339  0
C  C84  1  0.26142705  0.86783949  0.85143647  1  1.007118  0  0.177385  0.199126  0  3.885266  0
C  C85  1  0.23814769  0.98821833  0.86980010  1  0.310735  0  0.082488  0.121731  0  4.068008  0
C  C86  1  0.18742004  0.06249066  0.87629361  1  0.063147  0  -0.080584  -0.162692  0  3.954158  0
C  C87  1  0.26231803  0.10838175  0.91393019  1  -0.001478  0  -0.007203  -0.049898  0  3.90322  0
C  C88  1  0.19549245  0.18572760  0.92320057  1  1.585182  0  0.229694  0.650657  0  4.168798  0
C  C89  1  0.55194164  0.35618202  0.95205501  1  1.54547  0  0.209974  0.615058  0  4.171551  0
C  C90  1  0.63634053  0.38950336  0.90552365  1  -0.010252  0  -0.011922  -0.053369  0  3.943859  0
C  C91  1  0.66046159  0.46794132  0.90480052  1  0.061227  0  -0.072532  -0.155682  0  3.910079  0
C  C92  1  0.75001563  0.49728872  0.86310325  1  0.304458  0  0.090152  0.122854  0  4.038838  0
C  C93  1  0.89659160  0.56398585  0.80779445  1  1.030643  0  0.164247  0.184008  0  3.910808  0
C  C94  1  0.81575472  0.44927163  0.82354546  1  0.394624  0  0.076464  0.124262  0  4.106205  0
C  C95  1  0.78432416  0.37183240  0.82280735  1  -0.0257  0  -0.098167  -0.207837  0  4.010806  0
C  C96  1  0.69355497  0.34198394  0.86389841  1  -0.023989  0  -0.007738  -0.049854  0  3.947216  0
C  C97  1  0.65485202  0.25852573  0.85880461  1  1.614859  0  0.217589  0.628674  0  4.17871  0
C  C98  1  0.99023945  0.37403654  0.01879829  1  1.572346  0  0.240994  0.656868  0  4.149726  0
C  C99  1  0.89489830  0.41918768  0.05804835  1  0.012368  0  -0.001525  -0.037064  0  3.885581  0
C  C100  1  0.94428490  0.49391779  0.06449160  1  0.033378  0  -0.082959  -0.17208  0  3.942541  0
C  C101  1  0.85984537  0.54061795  0.09844642  1  0.35308  0  0.109251  0.175744  0  3.982017  0
C  C102  1  0.76142804  0.63215893  0.14856309  1  1.007211  0  0.177293  0.199045  0  3.885506  0
C  C103  1  0.73814994  0.51178009  0.13019746  1  0.310716  0  0.082469  0.121719  0  4.068032  0
C  C104  1  0.68742180  0.43750745  0.12370533  1  0.063223  0  -0.080577  -0.162678  0  3.954253  0
C  C105  1  0.76231747  0.39161747  0.08606756  1  -0.001608  0  -0.007269  -0.050072  0  3.903202  0
C  C106  1  0.69549892  0.31426994  0.07679878  1  1.585048  0  0.229677  0.650665  0  4.168779  0
C  C107  1  0.05193865  0.14381840  0.04794431  1  1.545559  0  0.209953  0.615072  0  4.171538  0
C  C108  1  0.13633765  0.11049702  0.09447608  1  -0.010256  0  -0.011892  -0.053358  0  3.943871  0
C  C109  1  0.16046228  0.03205963  0.09519881  1  0.061218  0  -0.07251  -0.155621  0  3.91011  0
C  C110  1  0.25001525  0.00271220  0.13689691  1  0.304484  0  0.090192  0.12288  0  4.038798  0
C  C111  1  0.39660007  0.93601650  0.19220394  1  1.030817  0  0.164272  0.184074  0  3.910845  0
C  C112  1  0.31575550  0.05073098  0.17645310  1  0.394255  0  0.076436  0.124327  0  4.10593  0
C  C113  1  0.28432137  0.12816908  0.17719161  1  -0.025499  0  -0.098138  -0.207869  0  4.010751  0
C  C114  1  0.19355556  0.15801870  0.13610013  1  -0.023935  0  -0.007711  -0.04977  0  3.947178  0
C  C115  1  0.15485136  0.24147749  0.14119353  1  1.614744  0  0.217579  0.628559  0  4.178542  0
C  C116  1  0.99024064  0.87403595  0.48119952  1  1.572296  0  0.241021  0.656962  0  4.149621  0
C  C117  1  0.89489711  0.91918975  0.44195073  1  0.012271  0  -0.001589  -0.037245  0  3.885582  0
C  C118  1  0.94428371  0.99391984  0.43550724  1  0.033219  0  -0.08291  -0.171916  0  3.942489  0
C  C119  1  0.85984471  0.04061954  0.40155229  1  0.353287  0  0.10916  0.175439  0  3.982397  0
C  C120  1  0.76142963  0.13215975  0.35143498  1  1.007122  0  0.177446  0.199282  0  3.88522  0
C  C121  1  0.73814924  0.01178154  0.36980077  1  0.310743  0  0.082514  0.121774  0  4.068019  0
C  C122  1  0.68742052  0.93750869  0.37629496  1  0.063256  0  -0.080603  -0.162701  0  3.954044  0
C  C123  1  0.76232204  0.89161716  0.41393104  1  -0.001557  0  -0.007254  -0.049959  0  3.903115  0
C  C124  1  0.69549308  0.81427251  0.42320206  1  1.585096  0  0.229603  0.650589  0  4.16894  0
C  C125  1  0.05193748  0.64381768  0.45205488  1  1.545553  0  0.209945  0.615037  0  4.171479  0
C  C126  1  0.13633641  0.61049612  0.40552305  1  -0.010253  0  -0.011946  -0.053426  0  3.943904  0
C  C127  1  0.16046568  0.53205929  0.40480137  1  0.061463  0  -0.072503  -0.15562  0  3.910017  0
C  C128  1  0.25001512  0.50271226  0.36310202  1  0.304494  0  0.090201  0.122978  0  4.038656  0
C  C129  1  0.39659812  0.43601657  0.30779470  1  1.030806  0  0.164272  0.184095  0  3.910844  0
C  C130  1  0.31575415  0.55073031  0.32354514  1  0.39434  0  0.076424  0.124202  0  4.106145  0
C  C131  1  0.28432234  0.62816954  0.32280758  1  -0.025448  0  -0.098128  -0.207821  0  4.010812  0
C  C132  1  0.19354963  0.65801706  0.36389791  1  -0.023998  0  -0.007722  -0.049781  0  3.947246  0
C  C133  1  0.15484658  0.74147583  0.35880668  1  1.614768  0  0.217551  0.628584  0  4.178699  0
C  C134  1  0.49024296  0.62596411  0.51880129  1  1.571813  0  0.241032  0.656848  0  4.149684  0
C  C135  1  0.39490070  0.58081146  0.55805086  1  0.012613  0  -0.001534  -0.03701  0  3.885637  0
C  C136  1  0.44428623  0.50608193  0.56449316  1  0.033307  0  -0.082959  -0.172034  0  3.942621  0
C  C137  1  0.35984443  0.45938136  0.59844708  1  0.353267  0  0.10918  0.175494  0  3.982292  0
C  C138  1  0.26142372  0.36783948  0.64856317  1  1.007233  0  0.177356  0.199111  0  3.885188  0
C  C139  1  0.23814781  0.48821825  0.63019979  1  0.310747  0  0.082498  0.121761  0  4.067957  0
C  C140  1  0.18742074  0.56249145  0.62370660  1  0.063161  0  -0.080561  -0.16261  0  3.954049  0
C  C141  1  0.26231984  0.60838125  0.58606933  1  -0.001628  0  -0.007259  -0.05006  0  3.903197  0
C  C142  1  0.19549656  0.68572819  0.57679990  1  1.585188  0  0.229608  0.650574  0  4.168924  0
C  C143  1  0.55193412  0.85618193  0.54794666  1  1.545252  0  0.209964  0.615042  0  4.171607  0
C  C144  1  0.63633307  0.88950403  0.59447810  1  -0.010281  0  -0.01193  -0.053389  0  3.943905  0
C  C145  1  0.66046225  0.96794085  0.59519939  1  0.061239  0  -0.07248  -0.155597  0  3.910042  0
C  C146  1  0.75001403  0.99728786  0.63689834  1  0.304499  0  0.090177  0.122918  0  4.038789  0
C  C147  1  0.89659413  0.06398432  0.69220588  1  1.030654  0  0.164242  0.18405  0  3.910865  0
C  C148  1  0.81575665  0.94927036  0.67645484  1  0.394328  0  0.076414  0.124184  0  4.106158  0
C  C149  1  0.78432261  0.87183114  0.67719239  1  -0.025436  0  -0.098153  -0.207828  0  4.010889  0
C  C150  1  0.69355104  0.84198364  0.63610245  1  -0.023999  0  -0.007741  -0.049823  0  3.947232  0
C  C151  1  0.65484694  0.75852432  0.64119368  1  1.614785  0  0.217584  0.628633  0  4.178833  0
C  C152  1  0.00975981  0.12596288  0.51879874  1  1.572374  0  0.240961  0.656744  0  4.149821  0
C  C153  1  0.10510334  0.08081134  0.55804833  1  0.01226  0  -0.001508  -0.037018  0  3.885646  0
C  C154  1  0.05571558  0.00608182  0.56449182  1  0.033197  0  -0.082968  -0.172059  0  3.94257  0
C  C155  1  0.14015342  0.95938212  0.59844757  1  0.353269  0  0.109215  0.175632  0  3.982058  0
C  C156  1  0.23857314  0.86784247  0.64856448  1  1.007161  0  0.177294  0.199003  0  3.885395  0
C  C157  1  0.26184773  0.98822068  0.63019950  1  0.310698  0  0.082402  0.121672  0  4.067955  0
C  C158  1  0.31257761  0.06249353  0.62370570  1  0.063188  0  -0.080508  -0.162644  0  3.954014  0
C  C159  1  0.23768072  0.10838336  0.58606802  1  -0.001521  0  -0.007299  -0.050079  0  3.903063  0
C  C160  1  0.30450389  0.18572914  0.57679820  1  1.585056  0  0.229663  0.650637  0  4.168859  0
C  C161  1  0.94806297  0.35618114  0.54794739  1  1.54583  0  0.209914  0.614925  0  4.171654  0
C  C162  1  0.86366172  0.38950214  0.59447721  1  -0.01027  0  -0.011932  -0.053434  0  3.943911  0
C  C163  1  0.83953593  0.46793897  0.59519970  1  0.061249  0  -0.072563  -0.155703  0  3.910166  0
C  C164  1  0.74998649  0.49728769  0.63689824  1  0.304492  0  0.0902  0.122991  0  4.038735  0
C  C165  1  0.60340697  0.56398339  0.69220637  1  1.030672  0  0.164266  0.184179  0  3.91078  0
C  C166  1  0.68424630  0.44926965  0.67645512  1  0.394316  0  0.076389  0.124123  0  4.106134  0
C  C167  1  0.71567695  0.37182985  0.67719348  1  -0.025336  0  -0.09812  -0.207755  0  4.010653  0
C  C168  1  0.80644618  0.34198233  0.63610276  1  -0.024098  0  -0.007711  -0.049759  0  3.947149  0
C  C169  1  0.84515039  0.25852300  0.64119439  1  1.614804  0  0.217599  0.628657  0  4.178642  0
C  C170  1  0.50975981  0.37403698  0.48120057  1  1.572357  0  0.240993  0.65692  0  4.149687  0
C  C171  1  0.60510323  0.41918906  0.44195020  1  0.012441  0  -0.001544  -0.037034  0  3.885741  0
C  C172  1  0.55571538  0.49391803  0.43550750  1  0.033309  0  -0.082987  -0.17208  0  3.942633  0
C  C173  1  0.64015370  0.54061803  0.40155238  1  0.353281  0  0.109223  0.175518  0  3.982166  0
C  C174  1  0.73857209  0.63216105  0.35143629  1  1.007134  0  0.177391  0.199095  0  3.885405  0
C  C175  1  0.76185148  0.51178171  0.36979927  1  0.310755  0  0.082486  0.121771  0  4.067918  0
C  C176  1  0.81257855  0.43750908  0.37629406  1  0.063209  0  -0.080587  -0.16268  0  3.954087  0
C  C177  1  0.73767713  0.39161700  0.41392933  1  -0.00176  0  -0.007212  -0.050079  0  3.903331  0
C  C178  1  0.80450852  0.31427290  0.42320036  1  1.585167  0  0.229572  0.650559  0  4.168948  0
C  C179  1  0.44806517  0.14381577  0.45205440  1  1.545306  0  0.210044  0.615126  0  4.171572  0
C  C180  1  0.36366158  0.11049593  0.40552296  1  -0.010267  0  -0.011934  -0.053425  0  3.943881  0
C  C181  1  0.33953472  0.03205910  0.40480047  1  0.06147  0  -0.072512  -0.155614  0  3.910077  0
C  C182  1  0.24998526  0.00271210  0.36310152  1  0.304485  0  0.090212  0.122978  0  4.038663  0
C  C183  1  0.10340284  0.93601507  0.30779438  1  1.030633  0  0.164254  0.184045  0  3.910761  0
C  C184  1  0.18424496  0.05072959  0.32354502  1  0.394534  0  0.076407  0.124165  0  4.10608  0
C  C185  1  0.21567783  0.12816882  0.32280707  1  -0.025638  0  -0.098091  -0.207748  0  4.010732  0
C  C186  1  0.30644941  0.15801632  0.36389741  1  -0.023995  0  -0.007769  -0.049866  0  3.947289  0
C  C187  1  0.34515351  0.24147394  0.35880659  1  1.614777  0  0.217625  0.62873  0  4.178602  0
C  C188  1  0.50975804  0.87403394  0.01879956  1  1.572059  0  0.241076  0.656959  0  4.149661  0
C  C189  1  0.60510384  0.91918618  0.05804924  1  0.012448  0  -0.001483  -0.03699  0  3.885659  0
C  C190  1  0.55571600  0.99391630  0.06449168  1  0.0334  0  -0.082993  -0.171994  0  3.942578  0
C  C191  1  0.64015610  0.04061669  0.09844709  1  0.353073  0  0.109245  0.175602  0  3.982043  0
C  C192  1  0.73857108  0.13215877  0.14856339  1  1.00721  0  0.177347  0.199126  0  3.885443  0
C  C193  1  0.76185044  0.01177992  0.13019936  1  0.310749  0  0.082479  0.121772  0  4.067979  0
C  C194  1  0.81257808  0.93750760  0.12370585  1  0.063198  0  -0.080567  -0.162631  0  3.954124  0
C  C195  1  0.73768357  0.89161763  0.08606726  1  -0.001636  0  -0.007285  -0.050119  0  3.903264  0
C  C196  1  0.80450568  0.81427066  0.07679970  1  1.585181  0  0.229694  0.65065  0  4.168841  0
C  C197  1  0.44806461  0.64381964  0.04794485  1  1.545126  0  0.209952  0.615056  0  4.171429  0
C  C198  1  0.36366571  0.61049829  0.09447621  1  -0.010297  0  -0.011913  -0.053432  0  3.943898  0
C  C199  1  0.33954117  0.53206147  0.09519894  1  0.061223  0  -0.072545  -0.155649  0  3.910124  0
C  C200  1  0.24998945  0.50271294  0.13689742  1  0.304508  0  0.090186  0.122889  0  4.038776  0
C  C201  1  0.10341001  0.43601750  0.19220701  1  1.03021  0  0.164284  0.184162  0  3.910742  0
C  C202  1  0.18424457  0.55073172  0.17645360  1  0.393945  0  0.076387  0.124259  0  4.105987  0
C  C203  1  0.21568324  0.62816982  0.17719211  1  -0.025238  0  -0.098122  -0.207819  0  4.010785  0
C  C204  1  0.30645244  0.65801942  0.13610145  1  -0.023991  0  -0.007709  -0.049738  0  3.947293  0
C  C205  1  0.34515539  0.74147762  0.14119325  1  1.61478  0  0.217505  0.628418  0  4.178931  0
C  C206  1  0.00976099  0.62596398  0.98120037  1  1.572338  0  0.241038  0.656953  0  4.149648  0
C  C207  1  0.10510215  0.58081058  0.94195151  1  0.012287  0  -0.001565  -0.03721  0  3.885574  0
C  C208  1  0.05571439  0.50608104  0.93550786  1  0.033212  0  -0.082938  -0.1719  0  3.942459  0
C  C209  1  0.14015508  0.45938030  0.90155344  1  0.353288  0  0.109153  0.175361  0  3.9823  0
C  C210  1  0.23857125  0.36783932  0.85143757  1  1.007138  0  0.177375  0.199203  0  3.885337  0
C  C211  1  0.26185166  0.48821760  0.86980200  1  0.310751  0  0.082535  0.121888  0  4.068054  0
C  C212  1  0.31257981  0.56249024  0.87629573  1  0.063236  0  -0.080606  -0.162717  0  3.954155  0
C  C213  1  0.23768182  0.60838136  0.91393190  1  -0.001558  0  -0.007265  -0.050012  0  3.903099  0
C  C214  1  0.30450268  0.68572888  0.92320188  1  1.585108  0  0.229693  0.650648  0  4.168772  0
C  C215  1  0.94805832  0.85617873  0.95205555  1  1.544892  0  0.209906  0.614922  0  4.171624  0
C  C216  1  0.86365584  0.88950180  0.90552498  1  -0.010232  0  -0.011869  -0.053347  0  3.943862  0
C  C217  1  0.83953585  0.96793863  0.90480185  1  0.061212  0  -0.072551  -0.155705  0  3.910098  0
C  C218  1  0.74998288  0.99728718  0.86310415  1  0.304509  0  0.090168  0.122888  0  4.038797  0
C  C219  1  0.60340502  0.06398459  0.80779592  1  1.030659  0  0.164264  0.184105  0  3.910694  0
C  C220  1  0.68424263  0.94927011  0.82354636  1  0.394553  0  0.076469  0.124302  0  4.106105  0
C  C221  1  0.71567560  0.87183087  0.82280785  1  -0.025676  0  -0.098166  -0.207865  0  4.01084  0
C  C222  1  0.80644257  0.84198182  0.86389933  1  -0.023951  0  -0.00772  -0.049738  0  3.947173  0
C  C223  1  0.84514909  0.75852304  0.85880754  1  1.614744  0  0.217553  0.628597  0  4.178494  0
N  N224  1  0.36976740  0.88334019  0.88915717  1  -1.246547  0  -0.359005  -0.242657  0  3.601767  0
N  N225  1  0.18223423  0.92977353  0.83770237  1  -1.177611  0  -0.385903  -0.313985  0  3.682799  0
N  N226  1  0.90782488  0.49266916  0.78989806  1  -1.187174  0  -0.394109  -0.308261  0  3.659877  0
N  N227  1  0.80316365  0.56933061  0.85086125  1  -1.300038  0  -0.360893  -0.246286  0  3.601295  0
N  N228  1  0.86976719  0.61665877  0.11084202  1  -1.24653  0  -0.359057  -0.242709  0  3.601925  0
N  N229  1  0.68223646  0.57022378  0.16229679  1  -1.177336  0  -0.385848  -0.313995  0  3.682915  0
N  N230  1  0.40783155  0.00733399  0.21010012  1  -1.187093  0  -0.394161  -0.308436  0  3.659921  0
N  N231  1  0.30316858  0.93067063  0.14913832  1  -1.300109  0  -0.360867  -0.24626  0  3.601217  0
N  N232  1  0.86976767  0.11666030  0.38915645  1  -1.246584  0  -0.359021  -0.242647  0  3.601834  0
N  N233  1  0.68223571  0.07022567  0.33770195  1  -1.177646  0  -0.385919  -0.314053  0  3.682798  0
N  N234  1  0.40782783  0.50733318  0.28989845  1  -1.187237  0  -0.394122  -0.308324  0  3.660113  0
N  N235  1  0.30316785  0.43067031  0.35086069  1  -1.300126  0  -0.360864  -0.246317  0  3.60113  0
N  N236  1  0.36976402  0.38333946  0.61084293  1  -1.246629  0  -0.359055  -0.242708  0  3.601673  0
N  N237  1  0.18223092  0.42977358  0.66229699  1  -1.177646  0  -0.385868  -0.313997  0  3.682786  0
N  N238  1  0.90782569  0.99266803  0.71010275  1  -1.187612  0  -0.394125  -0.308296  0  3.659974  0
N  N239  1  0.80316380  0.06933003  0.64913948  1  -1.299993  0  -0.360891  -0.246302  0  3.601212  0
N  N240  1  0.13023278  0.88334136  0.61084342  1  -1.246526  0  -0.358996  -0.242663  0  3.601832  0
N  N241  1  0.31776358  0.92977712  0.66229791  1  -1.17757  0  -0.385848  -0.313959  0  3.682878  0
N  N242  1  0.59217377  0.49266677  0.71010262  1  -1.187623  0  -0.394104  -0.308331  0  3.660003  0
N  N243  1  0.69683608  0.56932965  0.64913997  1  -1.299979  0  -0.360889  -0.24638  0  3.601201  0
N  N244  1  0.63023063  0.61666050  0.38915653  1  -1.246554  0  -0.35901  -0.242545  0  3.60174  0
N  N245  1  0.81776489  0.57022751  0.33770167  1  -1.177551  0  -0.385943  -0.314087  0  3.682878  0
N  N246  1  0.09217012  0.00733193  0.28989832  1  -1.1876  0  -0.394142  -0.308313  0  3.659962  0
N  N247  1  0.19683201  0.93066992  0.35086079  1  -1.299993  0  -0.360867  -0.24633  0  3.601184  0
N  N248  1  0.63023189  0.11665863  0.11084229  1  -1.246508  0  -0.359019  -0.242642  0  3.601781  0
N  N249  1  0.81776390  0.07022473  0.16229749  1  -1.177401  0  -0.38593  -0.314102  0  3.682958  0
N  N250  1  0.09217557  0.50733476  0.21010261  1  -1.187015  0  -0.394133  -0.308376  0  3.659985  0
N  N251  1  0.19683680  0.43067218  0.14913941  1  -1.299906  0  -0.360862  -0.246348  0  3.601242  0
N  N252  1  0.13022978  0.38333949  0.88915784  1  -1.246607  0  -0.359007  -0.242481  0  3.601747  0
N  N253  1  0.31776631  0.42977278  0.83770387  1  -1.177448  0  -0.385931  -0.314223  0  3.682982  0
N  N254  1  0.59217122  0.99266767  0.78989974  1  -1.187124  0  -0.394108  -0.308364  0  3.659914  0
N  N255  1  0.69683534  0.06932933  0.85086234  1  -1.300057  0  -0.360864  -0.24629  0  3.601321  0
O  O256  1  0.42422552  0.15788539  0.02121687  1  -1.21167  0  -0.407701  -0.695393  0  2.328126  0
O  O257  1  0.63570185  0.12443562  0.97459567  1  -1.164545  0  -0.387915  -0.643279  0  2.2846  0
O  O258  1  0.28320175  0.23952523  0.93809112  1  -1.212452  0  -0.402497  -0.670754  0  2.320578  0
O  O259  1  0.04990198  0.19340432  0.91547444  1  -1.201957  0  -0.408833  -0.686712  0  2.274796  0
O  O260  1  0.44256008  0.39235364  0.97467806  1  -1.177047  0  -0.371613  -0.607976  0  2.146592  0
O  O261  1  0.59066324  0.28978032  0.96888148  1  -1.205094  0  -0.408725  -0.738471  0  2.412732  0
O  O262  1  0.74544390  0.21247282  0.88465179  1  -1.213146  0  -0.41363  -0.676508  0  2.325165  0
O  O263  1  0.54910548  0.23932454  0.82776028  1  -1.165983  0  -0.327452  -0.540709  0  2.024236  0
O  O264  1  0.92422276  0.34211492  0.97878251  1  -1.211652  0  -0.407694  -0.695394  0  2.328055  0
O  O265  1  0.13570784  0.37556477  0.02540286  1  -1.164415  0  -0.387884  -0.643221  0  2.284602  0
O  O266  1  0.78320943  0.26047342  0.06190864  1  -1.212501  0  -0.40254  -0.670797  0  2.320552  0
O  O267  1  0.54990615  0.30659326  0.08452448  1  -1.201801  0  -0.408766  -0.686643  0  2.27476  0
O  O268  1  0.94255976  0.10764497  0.02532092  1  -1.176875  0  -0.371623  -0.608007  0  2.146522  0
O  O269  1  0.09066247  0.21021894  0.03111825  1  -1.205381  0  -0.408721  -0.738516  0  2.412751  0
O  O270  1  0.24544664  0.28752867  0.11534597  1  -1.213251  0  -0.413678  -0.67655  0  2.324948  0
O  O271  1  0.04910253  0.26067870  0.17223584  1  -1.165927  0  -0.327441  -0.540616  0  2.024184  0
O  O272  1  0.92422796  0.84211472  0.52121598  1  -1.211575  0  -0.40767  -0.695392  0  2.327993  0
O  O273  1  0.13570670  0.87556528  0.47459360  1  -1.164396  0  -0.387891  -0.643254  0  2.284628  0
O  O274  1  0.78320360  0.76047548  0.43809131  1  -1.212372  0  -0.402514  -0.670784  0  2.320584  0
O  O275  1  0.54990261  0.80659749  0.41547713  1  -1.201934  0  -0.408752  -0.686644  0  2.274803  0
O  O276  1  0.94255862  0.60764548  0.47467914  1  -1.176877  0  -0.371614  -0.607983  0  2.146441  0
O  O277  1  0.09066016  0.71021887  0.46888068  1  -1.205354  0  -0.408696  -0.738461  0  2.412738  0
O  O278  1  0.24544885  0.78752599  0.38465274  1  -1.213255  0  -0.413618  -0.676481  0  2.325055  0
O  O279  1  0.04908843  0.76067748  0.32776799  1  -1.165949  0  -0.327429  -0.540653  0  2.02423  0
O  O280  1  0.42422786  0.65788478  0.47878521  1  -1.211524  0  -0.407677  -0.695383  0  2.32806  0
O  O281  1  0.63571053  0.62443317  0.52540635  1  -1.164237  0  -0.387916  -0.64326  0  2.284672  0
O  O282  1  0.28320468  0.73952519  0.56191027  1  -1.212503  0  -0.402502  -0.670781  0  2.320644  0
O  O283  1  0.04990262  0.69340495  0.58452441  1  -1.201902  0  -0.408786  -0.68666  0  2.274792  0
O  O284  1  0.44255136  0.89235289  0.52532366  1  -1.176483  0  -0.371644  -0.608013  0  2.146587  0
O  O285  1  0.59066033  0.78978186  0.53112046  1  -1.205371  0  -0.408685  -0.738436  0  2.412722  0
O  O286  1  0.74544922  0.71247413  0.61534842  1  -1.213135  0  -0.413658  -0.676564  0  2.32516  0
O  O287  1  0.54909001  0.73932213  0.67223274  1  -1.165965  0  -0.327433  -0.540642  0  2.024324  0
O  O288  1  0.07577365  0.15788410  0.47878227  1  -1.21162  0  -0.407684  -0.695304  0  2.328017  0
O  O289  1  0.86429375  0.12443524  0.52540466  1  -1.164426  0  -0.387871  -0.64321  0  2.284658  0
O  O290  1  0.21679221  0.23952447  0.56190815  1  -1.212459  0  -0.402514  -0.67076  0  2.320607  0
O  O291  1  0.45009552  0.19340642  0.58452434  1  -1.201892  0  -0.408777  -0.68668  0  2.27482  0
O  O292  1  0.05744531  0.39235165  0.52532433  1  -1.177025  0  -0.371565  -0.607927  0  2.146596  0
O  O293  1  0.90933333  0.28978166  0.53111918  1  -1.205425  0  -0.408725  -0.738405  0  2.412707  0
O  O294  1  0.75454928  0.21247284  0.61534832  1  -1.213223  0  -0.413643  -0.676546  0  2.325063  0
O  O295  1  0.95090622  0.23932134  0.67223427  1  -1.165975  0  -0.327458  -0.540703  0  2.024247  0
O  O296  1  0.57577258  0.34211517  0.52121505  1  -1.211573  0  -0.407657  -0.695394  0  2.328039  0
O  O297  1  0.36429688  0.37556452  0.47459351  1  -1.164316  0  -0.387893  -0.643251  0  2.284684  0
O  O298  1  0.71680040  0.26047646  0.43809160  1  -1.212409  0  -0.402446  -0.67072  0  2.320616  0
O  O299  1  0.95009899  0.30659784  0.41547505  1  -1.201964  0  -0.408809  -0.686663  0  2.274784  0
O  O300  1  0.55745257  0.10764593  0.47467540  1  -1.176562  0  -0.3717  -0.608086  0  2.146592  0
O  O301  1  0.40934012  0.21021752  0.46888060  1  -1.205375  0  -0.408706  -0.738473  0  2.4127  0
O  O302  1  0.25455239  0.28752582  0.38465184  1  -1.213173  0  -0.413649  -0.676563  0  2.325107  0
O  O303  1  0.45091623  0.26067613  0.32776952  1  -1.165949  0  -0.327451  -0.540693  0  2.024143  0
O  O304  1  0.57577145  0.84211174  0.97878420  1  -1.211336  0  -0.407726  -0.695439  0  2.328119  0
O  O305  1  0.36429280  0.87556490  0.02540499  1  -1.164443  0  -0.387908  -0.643284  0  2.284703  0
O  O306  1  0.71679754  0.76047360  0.06190834  1  -1.21251  0  -0.40252  -0.670778  0  2.320642  0
O  O307  1  0.95009731  0.80659564  0.08452462  1  -1.201932  0  -0.408804  -0.686662  0  2.274747  0
O  O308  1  0.55743805  0.60764519  0.02531979  1  -1.176869  0  -0.371612  -0.607963  0  2.146432  0
O  O309  1  0.40933837  0.71022020  0.03111838  1  -1.205008  0  -0.408718  -0.738458  0  2.412725  0
O  O310  1  0.25455655  0.78752884  0.11534727  1  -1.213192  0  -0.413611  -0.676429  0  2.325057  0
O  O311  1  0.45091236  0.76068051  0.17223277  1  -1.166027  0  -0.327435  -0.5406  0  2.024376  0
O  O312  1  0.07577305  0.65788447  0.02121695  1  -1.211624  0  -0.407727  -0.695411  0  2.327998  0
O  O313  1  0.86429261  0.62443462  0.97459620  1  -1.16442  0  -0.387887  -0.643258  0  2.284636  0
O  O314  1  0.21679102  0.73952370  0.93809082  1  -1.212491  0  -0.402532  -0.670763  0  2.320671  0
O  O315  1  0.45009430  0.69340783  0.91547378  1  -1.201816  0  -0.408818  -0.686707  0  2.274753  0
O  O316  1  0.05743721  0.89235159  0.97467854  1  -1.176965  0  -0.371577  -0.607912  0  2.146524  0
O  O317  1  0.90933218  0.78977931  0.96888081  1  -1.204616  0  -0.408752  -0.738403  0  2.412789  0
O  O318  1  0.75454917  0.71247128  0.88465269  1  -1.213241  0  -0.413681  -0.676538  0  2.324996  0
O  O319  1  0.95090719  0.73932295  0.82776843  1  -1.165881  0  -0.327392  -0.540646  0  2.024179  0
