# generated using pymatgen
data_NiH22C14(SN4)2
_symmetry_space_group_name_H-M   'P 1'
_cell_length_a   9.19265049
_cell_length_b   9.97264323
_cell_length_c   11.03157548
_cell_angle_alpha   89.99997308
_cell_angle_beta   89.99958542
_cell_angle_gamma   114.10734280
_symmetry_Int_Tables_number   1
_chemical_formula_structural   NiH22C14(SN4)2
_chemical_formula_sum   'Ni2 H44 C28 S4 N16'
_cell_volume   923.11447846
_cell_formula_units_Z   2
loop_
 _symmetry_equiv_pos_site_id
 _symmetry_equiv_pos_as_xyz
  1  'x, y, z'
loop_
 _atom_site_type_symbol
 _atom_site_label
 _atom_site_symmetry_multiplicity
 _atom_site_fract_x
 _atom_site_fract_y
 _atom_site_fract_z
 _atom_site_occupancy
 _atom_site_hle17_ddec_charge
 _atom_site_hle17_ddec_spin_density
 _atom_site_hle17_ddec_sum_bond_order
 _atom_site_hle17_magmom
 _atom_site_hse06_10hf_ddec_charge
 _atom_site_hse06_10hf_ddec_spin_density
 _atom_site_hse06_10hf_ddec_sum_bond_order
 _atom_site_hse06_10hf_magmom
 _atom_site_hse06_ddec_charge
 _atom_site_hse06_ddec_spin_density
 _atom_site_hse06_ddec_sum_bond_order
 _atom_site_hse06_magmom
 _atom_site_pbe_cm5_charge
 _atom_site_pbe_ddec_charge
 _atom_site_pbe_ddec_spin_density
 _atom_site_pbe_ddec_sum_bond_order
 _atom_site_pbe_magmom
Ni  Ni0  1  0.00000012  0.49999949  0.99999941  1  0.756863  -1.757031  2.268682  -1.497  0.745137  -1.800873  2.675428  -1.596  0.823959  -1.857661  2.610518  -1.681  0.678698  0.691737  -1.752218  2.719492  -1.525
Ni  Ni1  1  0.50000087  0.00000244  0.50000050  1  0.756776  -1.757029  2.26873  -1.497  0.745119  -1.800886  2.675466  -1.596  0.823958  -1.857674  2.610525  -1.681  0.678691  0.691702  -1.752218  2.719536  -1.525
H  H2  1  0.64932710  0.45579959  0.09307350  1  0.053445  -0.000126  0.938071  -0.001  0.07005  -9.6e-05  1.001255  0.0  0.069569  -2.7e-05  1.002426  0.0  0.098641  0.070176  -0.000145  1.000648  0.0
H  H3  1  0.85066768  0.04419385  0.59306773  1  0.053428  -0.000123  0.938097  -0.001  0.070049  -9.6e-05  1.001273  0.0  0.069566  -2.7e-05  1.002446  0.0  0.098656  0.070176  -0.000145  1.000666  0.0
H  H4  1  0.35067028  0.54419903  0.90693094  1  0.053432  -0.000123  0.938098  -0.001  0.070054  -9.6e-05  1.001264  0.0  0.069572  -2.7e-05  1.002438  0.0  0.098677  0.070183  -0.000145  1.000655  0.0
H  H5  1  0.14933572  0.95580365  0.40692674  1  0.053421  -0.000124  0.938098  -0.001  0.070039  -9.6e-05  1.001277  0.0  0.069557  -2.7e-05  1.002448  0.0  0.09864  0.070163  -0.000145  1.00067  0.0
H  H6  1  0.65563003  0.28210427  0.09560624  1  0.061549  3.2e-05  0.928161  0.0  0.078105  3.7e-05  0.989089  0.0  0.077399  5.8e-05  0.990953  0.0  0.103119  0.078524  -2.5e-05  0.987953  0.0
H  H7  1  0.84436797  0.21788914  0.59560136  1  0.061506  3.2e-05  0.9282  0.0  0.078069  3.7e-05  0.989141  0.0  0.077362  5.8e-05  0.991004  0.0  0.103106  0.078499  -2.5e-05  0.987997  0.0
H  H8  1  0.34436685  0.71789325  0.90439820  1  0.061514  3.4e-05  0.928135  0.0  0.078078  3.7e-05  0.98906  0.0  0.077368  5.8e-05  0.990932  0.0  0.103121  0.078499  -2.5e-05  0.987928  0.0
H  H9  1  0.15563700  0.78210945  0.40439493  1  0.061544  3e-05  0.928179  0.0  0.078102  3.6e-05  0.989106  0.0  0.077399  5.8e-05  0.990978  0.0  0.103129  0.078529  -2.5e-05  0.987962  0.0
H  H10  1  0.44615972  0.19747663  0.92791412  1  0.069172  0.000326  0.967995  0.0  0.083394  9.1e-05  1.038338  0.0  0.083907  7.3e-05  1.039355  0.0  0.086137  0.082985  6.2e-05  1.037617  0.0
H  H11  1  0.05384077  0.30251794  0.42790693  1  0.06922  0.000326  0.967974  0.0  0.083433  9e-05  1.0383  0.0  0.083947  7.4e-05  1.039314  0.0  0.08613  0.083023  6.2e-05  1.037578  0.0
H  H12  1  0.55383657  0.80252200  0.07209032  1  0.069199  0.000324  0.967943  0.0  0.083409  9.1e-05  1.038275  0.0  0.083922  7.4e-05  1.03929  0.0  0.086135  0.083001  6.2e-05  1.037551  0.0
H  H13  1  0.94616519  0.69748285  0.57208845  1  0.069205  0.00033  0.968014  0.0  0.083401  9e-05  1.03834  0.0  0.083915  7.3e-05  1.039355  0.0  0.086126  0.082994  6.2e-05  1.03762  0.0
H  H14  1  0.43781496  0.37025429  0.93132523  1  0.075421  0.000282  0.947677  0.0  0.093441  6.4e-05  1.009572  0.0  0.094141  6e-05  1.010067  0.0  0.090076  0.092976  4.5e-05  1.008995  0.0
H  H15  1  0.06218659  0.12974025  0.43132077  1  0.075502  0.000281  0.947677  0.0  0.093482  6.4e-05  1.009564  0.0  0.094178  6.1e-05  1.010059  0.0  0.090062  0.093018  4.5e-05  1.008986  0.0
H  H16  1  0.56218399  0.62974542  0.06867740  1  0.075464  0.000272  0.947624  0.0  0.09344  6.4e-05  1.009545  0.0  0.094138  6.1e-05  1.010039  0.0  0.090063  0.092975  4.5e-05  1.008967  0.0
H  H17  1  0.93782046  0.87026054  0.56867552  1  0.075455  0.000281  0.947675  0.0  0.093425  6.4e-05  1.00959  0.0  0.094125  6e-05  1.010085  0.0  0.090048  0.092959  4.5e-05  1.009014  0.0
H  H18  1  0.34623543  0.32916053  0.14812914  1  0.073968  0.000149  0.937788  0.0  0.094151  2.9e-05  0.996476  0.0  0.094707  3.7e-05  0.996138  0.0  0.103566  0.093775  -2.1e-05  0.996594  0.0
H  H19  1  0.15375817  0.17083756  0.64812270  1  0.074011  0.000143  0.93778  0.0  0.094211  2.9e-05  0.996461  0.0  0.094767  3.7e-05  0.996123  0.0  0.103588  0.093821  -2.1e-05  0.996591  0.0
H  H20  1  0.65375701  0.67083921  0.85187440  1  0.074018  0.00014  0.937812  0.0  0.094209  2.9e-05  0.996486  0.0  0.094767  3.7e-05  0.99615  0.0  0.103584  0.093819  -2.1e-05  0.996618  0.0
H  H21  1  0.84624404  0.82916214  0.35187359  1  0.073977  0.000143  0.937821  0.0  0.094171  2.9e-05  0.996517  0.0  0.094725  3.7e-05  0.99618  0.0  0.103562  0.093792  -2.1e-05  0.996636  0.0
H  H22  1  0.21858006  0.18605923  0.05199006  1  0.078342  -0.000215  0.963215  0.0  0.086512  -0.000172  1.037833  0.0  0.08625  -8.6e-05  1.039286  0.0  0.100203  0.086677  -0.000214  1.036708  0.0
H  H23  1  0.28141685  0.31393710  0.55198552  1  0.078362  -0.000216  0.963246  0.0  0.086561  -0.000172  1.037815  0.0  0.086293  -8.6e-05  1.039285  0.0  0.100222  0.086729  -0.000214  1.036677  0.0
H  H24  1  0.78141465  0.81393830  0.94800894  1  0.078322  -0.000217  0.963351  0.0  0.086543  -0.000172  1.037897  0.0  0.08628  -8.6e-05  1.039367  0.0  0.100206  0.086704  -0.000214  1.036771  0.0
H  H25  1  0.71858852  0.68606480  0.44801258  1  0.078324  -0.000217  0.963332  0.0  0.08655  -0.000172  1.037893  0.0  0.086291  -8.6e-05  1.039338  0.0  0.100203  0.08672  -0.000214  1.036752  0.0
H  H26  1  0.32018971  0.95633804  0.03812577  1  0.115091  -0.000296  0.976333  -0.001  0.123065  -0.000292  1.040278  0.0  0.125216  -0.000209  1.040044  0.0  0.11663  0.121456  -0.000407  1.040845  -0.001
H  H27  1  0.17978946  0.54365105  0.53811379  1  0.11505  -0.000294  0.976328  -0.001  0.122973  -0.000292  1.04032  0.0  0.125123  -0.000209  1.040087  0.0  0.116605  0.121368  -0.000407  1.040882  -0.001
H  H28  1  0.67979690  0.04365842  0.96187777  1  0.115118  -0.000296  0.976305  -0.001  0.123043  -0.000292  1.040299  0.0  0.12519  -0.000209  1.040068  0.0  0.116642  0.121437  -0.000407  1.040856  -0.001
H  H29  1  0.82021117  0.45634755  0.46188431  1  0.11506  -0.000296  0.976355  -0.001  0.12301  -0.000292  1.040325  0.0  0.125158  -0.000209  1.040094  0.0  0.116612  0.121404  -0.000407  1.040885  -0.001
H  H30  1  0.41775858  0.83548836  0.23558052  1  0.096979  -8.7e-05  0.995641  0.0  0.104885  -0.000325  1.059472  -0.001  0.106955  -0.000209  1.058232  0.0  0.11154  0.102894  -0.000437  1.061255  -0.001
H  H31  1  0.08222914  0.66450418  0.73557362  1  0.097013  -8.7e-05  0.995717  0.0  0.104885  -0.000325  1.059588  -0.001  0.106954  -0.000209  1.058348  0.0  0.111549  0.102897  -0.000437  1.061361  -0.001
H  H32  1  0.58223908  0.16451576  0.76442030  1  0.096941  -8.6e-05  0.99569  0.0  0.104862  -0.000325  1.059506  -0.001  0.106936  -0.000209  1.058268  0.0  0.11151  0.102873  -0.000437  1.061274  -0.001
H  H33  1  0.91777307  0.33549552  0.26442629  1  0.096991  -8.6e-05  0.995763  0.0  0.104865  -0.000325  1.059633  -0.001  0.106933  -0.000209  1.058394  0.0  0.111547  0.102883  -0.000437  1.061388  -0.001
H  H34  1  0.43654551  0.24944090  0.33581376  1  0.10084  4.2e-05  0.958525  0.0  0.105305  -6e-05  1.031242  0.0  0.107508  -1.1e-05  1.028592  0.0  0.126713  0.102826  -4.6e-05  1.034935  0.0
H  H35  1  0.06345891  0.25056067  0.83581057  1  0.100852  4.4e-05  0.958592  0.0  0.105339  -6e-05  1.031269  0.0  0.107525  -1.1e-05  1.028641  0.0  0.126705  0.102858  -4.6e-05  1.034958  0.0
H  H36  1  0.56345768  0.75056100  0.66418615  1  0.100869  4.4e-05  0.958535  0.0  0.10533  -6e-05  1.031251  0.0  0.107527  -1.1e-05  1.028613  0.0  0.12671  0.10285  -4.6e-05  1.034944  0.0
H  H37  1  0.93654123  0.74943684  0.16418663  1  0.100858  4.4e-05  0.958561  0.0  0.10534  -6e-05  1.03125  0.0  0.107527  -1.1e-05  1.028624  0.0  0.126704  0.10286  -4.6e-05  1.034938  0.0
H  H38  1  0.73895367  0.47372685  0.87997443  1  0.272903  0.001466  0.92457  0.001  0.265585  0.000135  0.98767  0.0  0.270917  0.000322  0.985123  0.0  0.277939  0.261555  -5.1e-05  0.989886  0.0
H  H39  1  0.76104070  0.02626635  0.37997152  1  0.272925  0.001467  0.924481  0.001  0.265607  0.000135  0.9876  0.0  0.270939  0.000323  0.985052  0.0  0.277947  0.261576  -5.1e-05  0.989811  0.0
H  H40  1  0.26104213  0.52627067  0.12002820  1  0.272946  0.001472  0.924511  0.001  0.265627  0.000134  0.987625  0.0  0.27096  0.000322  0.985077  0.0  0.277976  0.261597  -5.1e-05  0.989836  0.0
H  H41  1  0.23895667  0.97373227  0.62002568  1  0.272938  0.001468  0.924477  0.001  0.265624  0.000136  0.987575  0.0  0.270958  0.000322  0.985027  0.0  0.277952  0.261595  -5.1e-05  0.98979  0.0
H  H42  1  0.75368404  0.31756429  0.89490066  1  0.276011  0.00231  0.910088  0.002  0.271563  0.000638  0.966934  0.001  0.275577  0.000767  0.966539  0.001  0.291962  0.268659  0.000496  0.967348  0.001
H  H43  1  0.74631974  0.18243322  0.39489506  1  0.276035  0.002312  0.910064  0.002  0.27156  0.000637  0.966981  0.001  0.275572  0.000767  0.966588  0.001  0.291945  0.268654  0.000495  0.967393  0.001
H  H44  1  0.24631442  0.68243433  0.10510288  1  0.276012  0.002304  0.910065  0.002  0.271529  0.000636  0.966979  0.001  0.275542  0.000767  0.966586  0.001  0.291948  0.268625  0.000495  0.96739  0.001
H  H45  1  0.25368405  0.81756758  0.60510032  1  0.275984  0.002309  0.910117  0.002  0.271526  0.000637  0.967006  0.001  0.275538  0.000767  0.966612  0.001  0.291944  0.268622  0.000495  0.967421  0.001
C  C46  1  0.63298511  0.36007423  0.03626754  1  0.079925  0.00231  3.649738  0.003  0.029203  0.000154  3.92036  0.001  0.034785  0.000682  3.934042  0.001  -0.076936  0.025626  -0.000375  3.910471  0.001
C  C47  1  0.86701283  0.13992276  0.53626254  1  0.080062  0.002285  3.649789  0.003  0.02931  0.000153  3.920431  0.001  0.034898  0.000681  3.934102  0.001  -0.076894  0.025726  -0.000375  3.910541  0.001
C  C48  1  0.36701009  0.63992440  0.96373691  1  0.079978  0.002268  3.649752  0.003  0.029231  0.000155  3.920379  0.001  0.034814  0.000682  3.934054  0.001  -0.076968  0.025654  -0.000375  3.910487  0.001
C  C49  1  0.13298889  0.86007584  0.46373374  1  0.079961  0.002313  3.649857  0.003  0.029208  0.000153  3.920478  0.001  0.034786  0.000683  3.934164  0.001  -0.076943  0.025628  -0.000376  3.910588  0.001
C  C50  1  0.46278746  0.29102973  0.98759637  1  -0.169795  -0.003877  3.693486  -0.005  -0.21124  -0.002467  3.951172  -0.003  -0.21363  -0.001724  3.964406  -0.002  -0.171022  -0.208944  -0.003214  3.941111  -0.004
C  C51  1  0.03721191  0.20896346  0.48758932  1  -0.169975  -0.003867  3.693635  -0.005  -0.211325  -0.002466  3.951291  -0.003  -0.213706  -0.001725  3.964514  -0.002  -0.170999  -0.209029  -0.003214  3.941224  -0.004
C  C52  1  0.53720725  0.70896780  0.01240898  1  -0.169816  -0.00385  3.69345  -0.005  -0.211201  -0.002467  3.951102  -0.003  -0.213581  -0.001725  3.964327  -0.002  -0.170983  -0.208905  -0.003214  3.941026  -0.004
C  C53  1  0.96278932  0.79103405  0.51240607  1  -0.169845  -0.003879  3.693635  -0.005  -0.211181  -0.002466  3.951255  -0.003  -0.213573  -0.001725  3.964488  -0.002  -0.17097  -0.208886  -0.003214  3.941195  -0.004
C  C54  1  0.33948982  0.23800589  0.08925726  1  0.003392  -0.001621  3.62087  -0.002  -0.058411  -0.001305  3.875031  -0.002  -0.05414  -0.000925  3.886926  -0.001  -0.055081  -0.060783  -0.001747  3.865756  -0.002
C  C55  1  0.16050816  0.26199355  0.58925165  1  0.003228  -0.001616  3.621021  -0.002  -0.05864  -0.001304  3.875229  -0.002  -0.054373  -0.000924  3.887118  -0.001  -0.05516  -0.060991  -0.001746  3.865946  -0.002
C  C56  1  0.66050636  0.76199493  0.91074628  1  0.003209  -0.001611  3.621091  -0.002  -0.058632  -0.001304  3.875192  -0.002  -0.054375  -0.000925  3.887093  -0.001  -0.055129  -0.060983  -0.001747  3.865901  -0.002
C  C57  1  0.83949465  0.73800505  0.41074373  1  0.003284  -0.001611  3.621028  -0.002  -0.058612  -0.001304  3.875163  -0.002  -0.054337  -0.000924  3.887056  -0.001  -0.05513  -0.06098  -0.001746  3.86589  -0.002
C  C58  1  0.35885810  0.99664365  0.12895946  1  -0.072825  -0.002956  3.678195  -0.004  -0.110733  -0.001323  3.933642  -0.002  -0.109348  -0.001223  3.952558  -0.001  -0.004669  -0.112279  -0.001574  3.922845  -0.002
C  C59  1  0.14113145  0.50334608  0.62894500  1  -0.072795  -0.002908  3.6781  -0.003  -0.110629  -0.001325  3.933538  -0.002  -0.109244  -0.001223  3.952462  -0.001  -0.004611  -0.112176  -0.001575  3.922746  -0.002
C  C60  1  0.64113651  0.00335608  0.87104136  1  -0.072953  -0.002923  3.67827  -0.003  -0.110825  -0.001324  3.933747  -0.002  -0.109438  -0.001222  3.952666  -0.001  -0.004732  -0.112369  -0.001574  3.92295  -0.002
C  C61  1  0.85886918  0.49665253  0.37105310  1  -0.072807  -0.002914  3.678099  -0.003  -0.110693  -0.001325  3.933524  -0.002  -0.109311  -0.001223  3.952454  -0.001  -0.004615  -0.11224  -0.001575  3.922731  -0.002
C  C62  1  0.40655585  0.93889923  0.22665525  1  -0.022819  0.003637  3.772147  0.002  -0.053831  0.001059  4.045553  0.0  -0.050691  0.001749  4.065294  0.001  -0.011275  -0.055996  0.000582  4.033894  0.0
C  C63  1  0.09343491  0.56109995  0.72664922  1  -0.022868  0.003553  3.772159  0.002  -0.053873  0.001062  4.045584  0.0  -0.050731  0.001749  4.065322  0.001  -0.011285  -0.056035  0.000583  4.033937  0.0
C  C64  1  0.59343925  0.06110160  0.77334738  1  -0.022643  0.003577  3.772179  0.002  -0.053667  0.00106  4.045549  0.0  -0.050533  0.001746  4.065292  0.001  -0.011145  -0.055829  0.000582  4.033901  0.0
C  C65  1  0.90656621  0.43889976  0.27334888  1  -0.02285  0.00356  3.772049  0.002  -0.053856  0.001061  4.045482  0.0  -0.050715  0.00175  4.065219  0.001  -0.011278  -0.056014  0.000583  4.033832  0.0
C  C66  1  0.41803913  0.15170564  0.28340247  1  0.142426  0.011376  3.643469  0.006  0.087248  0.00389  3.912695  0.002  0.102034  0.00464  3.925052  0.002  0.137204  0.077719  0.003747  3.904518  0.001
C  C67  1  0.08195944  0.34829400  0.78340003  1  0.142296  0.011305  3.643612  0.006  0.087109  0.003892  3.912825  0.002  0.101904  0.004638  3.925191  0.002  0.13714  0.077588  0.003747  3.904641  0.001
C  C68  1  0.58195923  0.84829518  0.71659926  1  0.142264  0.011344  3.643546  0.006  0.08709  0.003891  3.912755  0.002  0.101874  0.004637  3.925112  0.002  0.137138  0.077562  0.003747  3.90458  0.001
C  C69  1  0.91803912  0.65170241  0.21659807  1  0.14225  0.011356  3.643597  0.006  0.087052  0.003891  3.912811  0.002  0.10184  0.004638  3.92518  0.002  0.137101  0.07753  0.003746  3.904626  0.001
C  C70  1  0.06286746  0.82249098  0.90415972  1  0.268845  0.015702  4.057299  0.005  0.263867  0.003894  4.360061  -0.003  0.288752  0.005223  4.369814  -0.001  0.132689  0.246435  0.00311  4.353373  -0.004
C  C71  1  0.43714659  0.67750287  0.40416113  1  0.268945  0.015692  4.057526  0.005  0.263998  0.003894  4.360244  -0.003  0.288882  0.005223  4.370006  -0.001  0.132707  0.246561  0.003108  4.353558  -0.004
C  C72  1  0.93713349  0.17750102  0.09584382  1  0.269  0.015691  4.057246  0.005  0.264043  0.003898  4.359987  -0.003  0.288934  0.005223  4.369744  -0.001  0.132771  0.246604  0.003109  4.353299  -0.004
C  C73  1  0.56286378  0.32250780  0.59584060  1  0.269104  0.015705  4.057446  0.005  0.264171  0.003894  4.360135  -0.003  0.289058  0.005224  4.369896  -0.001  0.132807  0.246733  0.003109  4.353453  -0.004
S  S74  1  0.11365957  0.98117779  0.83852975  1  -0.39491  0.00334  1.99703  -0.002  -0.381034  0.002862  2.289988  -0.001  -0.392676  0.003974  2.281872  0.0  -0.184665  -0.372088  0.001743  2.297372  -0.002
S  S75  1  0.38634036  0.51881973  0.33853424  1  -0.39493  0.003322  1.997245  -0.002  -0.381024  0.002863  2.29019  -0.001  -0.392668  0.003975  2.28208  0.0  -0.184662  -0.372077  0.001744  2.297572  -0.002
S  S76  1  0.88633917  0.01882633  0.16146835  1  -0.394828  0.003324  1.997375  -0.002  -0.380937  0.002866  2.290331  -0.001  -0.392575  0.00398  2.282214  0.0  -0.184607  -0.371997  0.001747  2.297718  -0.002
S  S77  1  0.61366262  0.48118658  0.66146930  1  -0.39495  0.003336  1.997236  -0.002  -0.381053  0.002864  2.290187  -0.001  -0.392691  0.003977  2.282068  0.0  -0.184661  -0.372103  0.001745  2.29756  -0.002
N  N78  1  0.75776778  0.40670325  0.94285479  1  -0.575464  -0.060679  3.177321  -0.095  -0.567006  -0.040598  3.445462  -0.065  -0.595034  -0.030824  3.450022  -0.053  -0.622395  -0.54667  -0.048842  3.441518  -0.074
N  N79  1  0.74223006  0.09329405  0.44285107  1  -0.575484  -0.060675  3.177171  -0.095  -0.567035  -0.040598  3.44537  -0.065  -0.595063  -0.030824  3.44992  -0.053  -0.622421  -0.54672  -0.048843  3.441481  -0.074
N  N80  1  0.24222851  0.59329537  0.05714965  1  -0.575467  -0.060677  3.177183  -0.095  -0.567001  -0.040599  3.445391  -0.065  -0.595027  -0.030826  3.449946  -0.053  -0.622411  -0.546684  -0.048844  3.44149  -0.074
N  N81  1  0.25777155  0.90670676  0.55714522  1  -0.575453  -0.060679  3.177311  -0.095  -0.567006  -0.040597  3.445495  -0.065  -0.595036  -0.030824  3.450053  -0.053  -0.622396  -0.54667  -0.04884  3.441561  -0.074
N  N82  1  0.36658844  0.13136139  0.16660063  1  -0.060356  2.6e-05  3.582598  -0.001  0.036059  -0.00013  3.795486  -0.001  0.021342  6.4e-05  3.821862  -0.001  -0.246254  0.045572  -0.000294  3.777437  -0.001
N  N83  1  0.13340349  0.36863332  0.66659425  1  -0.060177  2.6e-05  3.582599  -0.001  0.036227  -0.000132  3.7955  -0.001  0.021513  6.5e-05  3.821874  -0.001  -0.246184  0.045734  -0.000295  3.777451  -0.001
N  N84  1  0.63340400  0.86863835  0.83340381  1  -0.060174  1.9e-05  3.582514  -0.001  0.036241  -0.00013  3.795377  -0.001  0.02153  6.5e-05  3.821755  -0.001  -0.246221  0.04575  -0.000294  3.777325  -0.001
N  N85  1  0.86659882  0.63136418  0.33340294  1  -0.060249  1.1e-05  3.582743  -0.001  0.036195  -0.000132  3.79561  -0.001  0.021479  6.6e-05  3.821987  -0.001  -0.246202  0.045707  -0.000294  3.777564  -0.001
N  N86  1  0.44221258  0.03590255  0.32253826  1  -0.330294  -0.049552  3.312098  -0.079  -0.289335  -0.03496  3.608988  -0.057  -0.316615  -0.02773  3.629718  -0.048  -0.348861  -0.27107  -0.041116  3.594968  -0.064
N  N87  1  0.05779139  0.46410019  0.82253411  1  -0.330253  -0.049523  3.312243  -0.079  -0.289268  -0.034963  3.609114  -0.057  -0.316543  -0.027731  3.629845  -0.048  -0.348847  -0.271008  -0.041116  3.595092  -0.064
N  N88  1  0.55779317  0.96410264  0.67746256  1  -0.33029  -0.049536  3.312222  -0.079  -0.289321  -0.034961  3.609106  -0.057  -0.316599  -0.02773  3.62984  -0.048  -0.348853  -0.271057  -0.041116  3.595088  -0.064
N  N89  1  0.94221141  0.53589841  0.17746490  1  -0.330129  -0.04954  3.312098  -0.079  -0.289149  -0.034964  3.608964  -0.057  -0.31642  -0.027732  3.629697  -0.048  -0.348779  -0.27089  -0.041117  3.594942  -0.064
N  N90  1  0.02538136  0.70673165  0.95261894  1  -0.520279  -0.043017  2.991357  -0.065  -0.493411  -0.03068  3.281004  -0.046  -0.518898  -0.025846  3.284785  -0.04  -0.394635  -0.475892  -0.035163  3.278234  -0.051
N  N91  1  0.47462752  0.79326860  0.45262189  1  -0.520312  -0.043005  2.991349  -0.065  -0.493529  -0.030682  3.280999  -0.046  -0.519025  -0.025849  3.284788  -0.04  -0.394626  -0.476003  -0.035166  3.278229  -0.051
N  N92  1  0.97462478  0.29327684  0.04737735  1  -0.520549  -0.043008  2.991092  -0.065  -0.493729  -0.030689  3.280748  -0.046  -0.519224  -0.025853  3.284534  -0.04  -0.394782  -0.476206  -0.03517  3.277978  -0.051
N  N93  1  0.52537606  0.20673660  0.54738256  1  -0.520489  -0.043018  2.991344  -0.065  -0.493727  -0.030683  3.281007  -0.046  -0.519222  -0.025849  3.284792  -0.04  -0.394733  -0.476199  -0.035167  3.278238  -0.051
