# generated using pymatgen
data_CuH16C12NO6
_symmetry_space_group_name_H-M   'P 1'
_cell_length_a   9.87302172
_cell_length_b   11.31315885
_cell_length_c   12.72316628
_cell_angle_alpha   107.28757810
_cell_angle_beta   98.49978565
_cell_angle_gamma   90.75455195
_symmetry_Int_Tables_number   1
_chemical_formula_structural   CuH16C12NO6
_chemical_formula_sum   'Cu4 H64 C48 N4 O24'
_cell_volume   1339.55771274
_cell_formula_units_Z   4
loop_
 _symmetry_equiv_pos_site_id
 _symmetry_equiv_pos_as_xyz
  1  'x, y, z'
loop_
 _atom_site_type_symbol
 _atom_site_label
 _atom_site_symmetry_multiplicity
 _atom_site_fract_x
 _atom_site_fract_y
 _atom_site_fract_z
 _atom_site_occupancy
 _atom_site_pbe_bader_charge
 _atom_site_pbe_bader_spin_density
 _atom_site_pbe_cm5_charge
 _atom_site_pbe_ddec_charge
 _atom_site_pbe_ddec_spin_density
 _atom_site_pbe_ddec_sum_bond_order
 _atom_site_pbe_magmom
Cu  Cu0  1  0.13191880  0.51193665  0.50392260  1  1.07078  0.535893  0.67276  0.753651  0.689828  2.364562  0.534
Cu  Cu1  1  0.86808911  0.48806528  0.49607225  1  1.069483  -0.535898  0.672805  0.753853  -0.689862  2.364563  -0.533
Cu  Cu2  1  0.36789079  0.00323457  0.49927654  1  1.064324  0.536001  0.679224  0.751753  0.689667  2.3862  0.533
Cu  Cu3  1  0.63210272  0.99676551  0.50072331  1  1.063711  -0.536004  0.67921  0.751734  -0.689636  2.385934  -0.534
H  H4  1  0.35567559  0.31928988  0.48828865  1  0.142557  -6.1e-05  0.124323  0.108841  -5.6e-05  1.001205  0.0
H  H5  1  0.64433876  0.68071578  0.51171418  1  0.142412  6e-05  0.124287  0.108864  5.5e-05  1.001163  0.0
H  H6  1  0.38839229  0.69318582  0.51490075  1  0.12875  -0.0001  0.124845  0.10889  -8.1e-05  0.998964  0.0
H  H7  1  0.61162169  0.30681427  0.48509978  1  0.128676  0.0001  0.124877  0.108912  8.1e-05  0.998965  0.0
H  H8  1  0.98266608  0.12490875  0.22569954  1  0.109798  -8.5e-05  0.103571  0.125587  -3.4e-05  1.009975  0.0
H  H9  1  0.01734878  0.87508858  0.77430508  1  0.109933  8.5e-05  0.103521  0.125507  3.4e-05  1.010006  0.0
H  H10  1  0.86351457  0.21043247  0.16486840  1  0.06478  0.001829  0.100476  0.113494  0.000871  0.998475  0.001
H  H11  1  0.13649271  0.78955835  0.83513603  1  0.064964  -0.001828  0.100569  0.113621  -0.000871  0.998453  -0.001
H  H12  1  0.13654227  0.35315517  0.78635430  1  0.065168  -0.001178  0.104616  0.120439  -0.000598  0.996374  -0.001
H  H13  1  0.86346136  0.64684306  0.21364696  1  0.065201  0.001178  0.104649  0.120487  0.000598  0.996448  0.001
H  H14  1  0.10917335  0.21195041  0.67980114  1  0.090378  -0.000541  0.10361  0.121112  -0.000267  1.00643  0.0
H  H15  1  0.89083211  0.78804504  0.32019566  1  0.090411  0.000541  0.103585  0.121081  0.000266  1.006499  0.0
H  H16  1  0.07390163  0.15699915  0.06627719  1  0.038341  -0.000832  0.102753  0.115361  -0.000428  0.986815  -0.001
H  H17  1  0.92610590  0.84299630  0.93372141  1  0.038424  0.000832  0.102781  0.115389  0.000428  0.986805  0.001
H  H18  1  0.17832681  0.24812860  0.18856882  1  0.087252  0.000244  0.111835  0.137998  0.000186  0.970503  0.0
H  H19  1  0.82167708  0.75187335  0.81143502  1  0.087325  -0.000244  0.111824  0.137963  -0.000186  0.970548  0.0
H  H20  1  0.90320175  0.34845047  0.82475303  1  0.057821  2e-05  0.102134  0.119604  1.2e-05  0.980677  0.0
H  H21  1  0.09680338  0.65153941  0.17524542  1  0.057676  -2e-05  0.102119  0.119656  -1.2e-05  0.980657  0.0
H  H22  1  0.84211717  0.24172913  0.69525977  1  0.149696  -0.000331  0.110057  0.145733  -0.000395  1.009261  0.0
H  H23  1  0.15788447  0.75827003  0.30474073  1  0.149702  0.000331  0.110078  0.145778  0.000395  1.009217  0.0
H  H24  1  0.11683447  0.45533604  0.00051975  1  0.077541  -2e-06  0.095505  0.146239  -4e-06  1.040768  0.0
H  H25  1  0.88315695  0.54466403  0.99947516  1  0.077532  2e-06  0.095486  0.146269  4e-06  1.040813  0.0
H  H26  1  0.16499143  0.29728655  0.96544451  1  0.036762  -5.4e-05  0.099346  0.152938  -4.1e-05  1.014965  0.0
H  H27  1  0.83500495  0.70271074  0.03455257  1  0.036799  5.4e-05  0.099358  0.152978  4.1e-05  1.014939  0.0
H  H28  1  0.25212746  0.40571308  0.08699451  1  0.113151  -2.1e-05  0.103272  0.166425  -1.7e-05  1.038801  0.0
H  H29  1  0.74787209  0.59428606  0.91300026  1  0.1131  2.1e-05  0.103266  0.166438  1.7e-05  1.038728  0.0
H  H30  1  0.85937396  0.06471909  0.90922183  1  0.029837  0.000138  0.093825  0.140357  7e-05  1.015898  0.0
H  H31  1  0.14061863  0.93528283  0.09077683  1  0.02986  -0.000138  0.093854  0.140375  -7e-05  1.015854  0.0
H  H32  1  0.73624770  0.11044765  0.81334597  1  0.119516  -4e-06  0.107445  0.175953  2e-06  1.009272  0.0
H  H33  1  0.26375205  0.88955428  0.18665191  1  0.119543  4e-06  0.107365  0.175833  -2e-06  1.009277  0.0
H  H34  1  0.81603404  0.22382765  0.93535593  1  0.048159  3.6e-05  0.098913  0.151917  2.6e-05  1.003812  0.0
H  H35  1  0.18396989  0.77617613  0.06463897  1  0.049292  -3.5e-05  0.098899  0.151862  -2.6e-05  1.003897  0.0
H  H36  1  0.11580539  0.14006439  0.42474561  1  0.11956  -7.4e-05  0.124526  0.107193  -4.8e-05  0.991083  0.0
H  H37  1  0.88419951  0.85993756  0.57525677  1  0.119516  7.4e-05  0.124563  0.107254  4.8e-05  0.991029  0.0
H  H38  1  0.14102609  0.85848898  0.57293001  1  0.1555  -3.1e-05  0.12434  0.107912  -1.7e-05  0.997223  0.0
H  H39  1  0.85897978  0.14151204  0.42707223  1  0.155531  3.1e-05  0.124345  0.10794  1.7e-05  0.997203  0.0
H  H40  1  0.37257261  0.68390864  0.18772257  1  0.066129  -0.000899  0.10534  0.121627  -0.000465  0.985464  0.0
H  H41  1  0.62742509  0.31609329  0.81227587  1  0.066165  0.000898  0.105337  0.121604  0.000464  0.985464  0.0
H  H42  1  0.38399647  0.60447149  0.28763480  1  0.102606  -0.000704  0.105301  0.119846  -0.000352  1.001827  0.0
H  H43  1  0.61599702  0.39552858  0.71236191  1  0.102533  0.000703  0.105313  0.119785  0.000352  1.001818  0.0
H  H44  1  0.61017116  0.64995442  0.16006849  1  0.052194  2e-05  0.100985  0.117826  1.1e-05  0.972977  0.0
H  H45  1  0.38982655  0.35004752  0.83993074  1  0.052323  -2e-05  0.100988  0.117802  -1.1e-05  0.973005  0.0
H  H46  1  0.65256622  0.61303127  0.28489299  1  0.122445  -0.000269  0.110646  0.141965  -0.000344  0.998507  0.0
H  H47  1  0.34743460  0.38697067  0.71511130  1  0.122297  0.000269  0.110653  0.141931  0.000344  0.998523  0.0
H  H48  1  0.59353673  0.31172955  0.02609343  1  0.065338  0.000144  0.094581  0.146034  7.4e-05  1.037184  0.0
H  H49  1  0.40645991  0.68827146  0.97390701  1  0.065331  -0.000144  0.094569  0.146015  -7.4e-05  1.037179  0.0
H  H50  1  0.64990839  0.46163657  0.02058201  1  0.051509  1e-05  0.096165  0.148195  8e-06  1.010409  0.0
H  H51  1  0.35009023  0.53836351  0.97941761  1  0.05154  -1e-05  0.09616  0.148193  -8e-06  1.010454  0.0
H  H52  1  0.73679290  0.40156692  0.12225198  1  0.134896  1e-06  0.108075  0.177874  5e-06  1.013907  0.0
H  H53  1  0.26320367  0.59843315  0.87774742  1  0.13486  -0.0  0.108078  0.177887  -5e-06  1.013865  0.0
H  H54  1  0.35746969  0.11261767  0.19183873  1  0.044248  -0.001566  0.101189  0.112034  -0.00073  1.011016  -0.001
H  H55  1  0.64252187  0.88738334  0.80816508  1  0.044172  0.001565  0.101163  0.112018  0.00073  1.011038  0.001
H  H56  1  0.45659279  0.24827949  0.27302662  1  0.12163  -0.00013  0.105245  0.127368  -7.3e-05  1.003883  0.0
H  H57  1  0.54339779  0.75172244  0.72697654  1  0.121678  0.000129  0.105265  0.127389  7.3e-05  1.003901  0.0
H  H58  1  0.67380094  0.14309268  0.22686410  1  0.109923  -0.000356  0.109168  0.136401  -0.000329  0.975213  0.0
H  H59  1  0.32619482  0.85691018  0.77313988  1  0.109907  0.000356  0.109121  0.136422  0.000329  0.975279  0.0
H  H60  1  0.56631742  0.15847370  0.10966380  1  0.059676  0.000795  0.104905  0.117785  0.000425  1.005199  0.001
H  H61  1  0.43367233  0.84153101  0.89034079  1  0.060168  -0.000795  0.104867  0.117754  -0.000425  1.005252  -0.001
H  H62  1  0.66233680  0.83711463  0.99399651  1  0.06595  7e-05  0.098552  0.150723  4.5e-05  1.019744  0.0
H  H63  1  0.33765175  0.16288822  0.00600195  1  0.065946  -6.9e-05  0.098559  0.150784  -4.5e-05  1.019678  0.0
H  H64  1  0.70821267  0.99546251  0.00451868  1  0.055796  9e-05  0.095458  0.144688  7.5e-05  1.024748  0.0
H  H65  1  0.29177799  0.00454127  0.99548026  1  0.055793  -9e-05  0.095484  0.144778  -7.5e-05  1.024677  0.0
H  H66  1  0.78176062  0.93147466  0.10943716  1  0.130398  3e-06  0.105075  0.174179  7e-06  1.037795  0.0
H  H67  1  0.21823089  0.06852634  0.89056114  1  0.130241  -3e-06  0.105087  0.174208  -7e-06  1.037919  0.0
C  C68  1  0.97733077  0.31487998  0.32176048  1  1.548226  0.000379  0.212844  0.62281  0.000314  4.129635  0.001
C  C69  1  0.02267194  0.68512010  0.67823881  1  1.548215  -0.000377  0.212768  0.622748  -0.000314  4.129857  -0.001
C  C70  1  0.03354111  0.36776381  0.63338012  1  1.539541  0.000635  0.215628  0.624998  0.000448  4.118128  0.0
C  C71  1  0.96646457  0.63223442  0.36662058  1  1.538903  -0.000636  0.215585  0.624956  -0.000449  4.118214  0.0
C  C72  1  0.42035968  0.40025062  0.49344585  1  0.500749  -0.00084  0.058376  0.060045  -0.00056  3.878991  -0.001
C  C73  1  0.57965138  0.59975225  0.50655117  1  0.49988  0.00084  0.058359  0.059879  0.00056  3.878995  0.001
C  C74  1  0.43883891  0.60674279  0.50855961  1  0.483211  -0.000834  0.057416  0.053203  -0.000553  3.892282  -0.001
C  C75  1  0.56117110  0.39325915  0.49144177  1  0.482828  0.000834  0.057439  0.053191  0.000554  3.892333  0.001
C  C76  1  0.96807810  0.21489836  0.20985238  1  -0.054072  0.00032  -0.164009  -0.279042  0.000184  3.927785  0.0
C  C77  1  0.03192936  0.78509525  0.79015201  1  -0.054352  -0.00032  -0.164022  -0.279121  -0.000184  3.92789  0.0
C  C78  1  0.05927113  0.29692819  0.71804897  1  -0.029535  -0.001055  -0.163017  -0.274911  -0.000552  3.931325  -0.001
C  C79  1  0.94072912  0.70306540  0.28194992  1  -0.029542  0.001054  -0.163023  -0.274871  0.000552  3.931403  0.001
C  C80  1  0.07384262  0.23729922  0.14096618  1  -0.046711  -0.001683  -0.162032  -0.267155  -0.001044  3.923385  -0.001
C  C81  1  0.92616185  0.76269623  0.85903287  1  -0.047005  0.001684  -0.162056  -0.267143  0.001044  3.923493  0.001
C  C82  1  0.93245017  0.26681839  0.76195070  1  -0.095833  0.001292  -0.170527  -0.279521  0.000756  3.923865  0.001
C  C83  1  0.06755309  0.73317428  0.23804749  1  -0.095761  -0.001292  -0.170579  -0.279685  -0.000756  3.924036  -0.001
C  C84  1  0.05203310  0.35155966  0.10311749  1  0.941537  4.9e-05  0.172715  0.531951  3e-05  3.8739  0.0
C  C85  1  0.94796846  0.64843857  0.89688119  1  0.941729  -4.9e-05  0.172765  0.532138  -3e-05  3.873672  0.0
C  C86  1  0.94451207  0.15900026  0.80845616  1  0.922331  0.000851  0.168741  0.52825  0.000605  3.888227  0.001
C  C87  1  0.05548706  0.84099240  0.19153843  1  0.922256  -0.000851  0.168742  0.528173  -0.000605  3.888268  -0.001
C  C88  1  0.15104283  0.37999185  0.03383544  1  -0.121294  -7.8e-05  -0.252546  -0.533918  -8.4e-05  3.895254  0.0
C  C89  1  0.84895668  0.62000638  0.96616144  1  -0.121235  7.8e-05  -0.252561  -0.534084  8.4e-05  3.895127  0.0
C  C90  1  0.83361814  0.13837138  0.87128561  1  -0.103058  0.000339  -0.247333  -0.518091  0.000254  3.890995  0.0
C  C91  1  0.16638046  0.86162869  0.12871087  1  -0.104217  -0.000339  -0.247281  -0.517923  -0.000254  3.89088  0.0
C  C92  1  0.06332939  0.07724236  0.45816102  1  0.488083  -0.000724  0.058567  0.058174  -0.000489  3.893485  0.0
C  C93  1  0.93667645  0.92275865  0.54183886  1  0.488151  0.000723  0.058513  0.058119  0.000488  3.893537  0.0
C  C94  1  0.07772576  0.92193250  0.54047999  1  0.509406  -0.000697  0.0614  0.06721  -0.000464  3.879874  0.0
C  C95  1  0.92227799  0.07806759  0.45952099  1  0.509597  0.000696  0.061481  0.067282  0.000464  3.879737  0.0
C  C96  1  0.47130904  0.78927662  0.34778540  1  1.544506  0.001072  0.215741  0.620903  0.000854  4.121005  0.001
C  C97  1  0.52868255  0.21072531  0.65221630  1  1.544255  -0.001076  0.215785  0.620965  -0.000857  4.121129  -0.001
C  C98  1  0.44280636  0.66635011  0.25627413  1  -0.064561  -0.000946  -0.160312  -0.273888  -0.000478  3.934434  -0.001
C  C99  1  0.55719154  0.33365461  0.74372664  1  -0.064642  0.000943  -0.160334  -0.273727  0.000476  3.934176  0.001
C  C100  1  0.56848697  0.60434252  0.21457759  1  -0.075842  0.001681  -0.166802  -0.276084  0.001033  3.918641  0.001
C  C101  1  0.43151196  0.39566220  0.78542408  1  -0.075731  -0.001682  -0.166859  -0.27615  -0.001034  3.918715  -0.001
C  C102  1  0.54172823  0.46656754  0.15665943  1  0.945691  0.0009  0.171677  0.532831  0.000637  3.8751  0.001
C  C103  1  0.45826951  0.53343439  0.84334294  1  0.94613  -0.0009  0.17172  0.532962  -0.000637  3.875071  -0.001
C  C104  1  0.63438751  0.40557819  0.07553086  1  -0.141161  0.000512  -0.249834  -0.5273  0.000391  3.888148  0.0
C  C105  1  0.36561009  0.59442189  0.92446945  1  -0.141207  -0.000511  -0.249858  -0.527371  -0.000391  3.888194  0.0
C  C106  1  0.47152430  0.09733794  0.34158287  1  1.53843  -0.000291  0.214272  0.61848  -0.000253  4.132971  -0.001
C  C107  1  0.52846535  0.90266493  0.65842357  1  1.537633  0.000287  0.214198  0.618322  0.000251  4.132949  0.001
C  C108  1  0.45806405  0.14665343  0.24231244  1  -0.038715  -0.000298  -0.162506  -0.281677  -8.6e-05  3.949265  0.0
C  C109  1  0.54192737  0.85334573  0.75768930  1  -0.037952  0.000297  -0.162478  -0.281592  8.5e-05  3.949319  0.0
C  C110  1  0.57327916  0.11118588  0.17429342  1  -0.072334  0.001835  -0.165534  -0.271814  0.001126  3.921723  0.001
C  C111  1  0.42671256  0.88881791  0.82570957  1  -0.072761  -0.001837  -0.165489  -0.271871  -0.001127  3.921944  -0.001
C  C112  1  0.57394935  0.97333843  0.11724640  1  0.942452  5e-06  0.169528  0.535694  -1.2e-05  3.871795  0.0
C  C113  1  0.42604435  0.02666443  0.88275577  1  0.942576  -5e-06  0.169569  0.535727  1.2e-05  3.871893  0.0
C  C114  1  0.68749246  0.93115231  0.05084659  1  -0.151909  0.000171  -0.253066  -0.539838  0.000179  3.900224  0.0
C  C115  1  0.31249801  0.06884869  0.94915002  1  -0.152053  -0.00017  -0.253102  -0.539968  -0.000179  3.900265  0.0
N  N116  1  0.35909576  0.50717443  0.50221639  1  -1.188594  -0.001141  -0.304827  -0.19393  -0.000492  3.451714  0.0
N  N117  1  0.64091738  0.49282845  0.49778558  1  -1.187554  0.001139  -0.304922  -0.194046  0.000491  3.451832  0.0
N  N118  1  0.14105621  0.99919301  0.49846358  1  -1.201267  -0.001091  -0.309043  -0.20127  -0.000453  3.455116  0.0
N  N119  1  0.85894867  0.00080892  0.50153566  1  -1.201385  0.001094  -0.309042  -0.201352  0.000455  3.455025  0.0
O  O120  1  0.09674472  0.36312398  0.36812481  1  -1.127819  0.078698  -0.316027  -0.528839  0.051423  2.354432  0.071
O  O121  1  0.90326357  0.63686776  0.63186976  1  -1.127725  -0.078694  -0.316021  -0.528857  -0.051422  2.354459  -0.071
O  O122  1  0.14089327  0.40569033  0.60500663  1  -1.118945  0.083649  -0.317124  -0.534874  0.054543  2.371126  0.076
O  O123  1  0.85911756  0.59430791  0.39499857  1  -1.118824  -0.083648  -0.317066  -0.534842  -0.054542  2.371346  -0.076
O  O124  1  0.13426943  0.65975549  0.63928959  1  -1.113416  0.085228  -0.318515  -0.527898  0.055627  2.315867  0.077
O  O125  1  0.86573384  0.34025295  0.36071353  1  -1.113326  -0.085233  -0.318582  -0.527991  -0.055632  2.31573  -0.077
O  O126  1  0.09008927  0.61681592  0.40309362  1  -1.10451  0.083907  -0.31109  -0.5124  0.054809  2.341843  0.076
O  O127  1  0.90992174  0.38318694  0.59689868  1  -1.104939  -0.083904  -0.311126  -0.51245  -0.054807  2.341819  -0.076
O  O128  1  0.95814232  0.41934922  0.12973141  1  -1.13072  4e-06  -0.254103  -0.42423  -2e-06  2.143225  0.0
O  O129  1  0.04185926  0.58064901  0.87026963  1  -1.130796  -3e-06  -0.254125  -0.424299  2e-06  2.143067  0.0
O  O130  1  0.03772573  0.08711084  0.79196517  1  -1.135098  -0.00111  -0.269156  -0.450816  -0.000757  2.155115  -0.001
O  O131  1  0.96227101  0.91287717  0.20802322  1  -1.135005  0.00111  -0.26917  -0.45082  0.000757  2.155113  0.001
O  O132  1  0.59483974  0.83101333  0.38409112  1  -1.104727  -0.08304  -0.306427  -0.502318  -0.054193  2.33414  -0.075
O  O133  1  0.40515340  0.16898118  0.61590723  1  -1.104619  0.083044  -0.306466  -0.502404  0.054195  2.334292  0.076
O  O134  1  0.36465022  0.84013264  0.38209537  1  -1.122092  0.081303  -0.316938  -0.540681  0.053108  2.40537  0.074
O  O135  1  0.63534260  0.15987208  0.61790956  1  -1.121893  -0.081305  -0.316947  -0.540702  -0.053109  2.405459  -0.074
O  O136  1  0.45038105  0.40593647  0.17813598  1  -1.142968  -0.000811  -0.269951  -0.441479  -0.000562  2.119432  -0.001
O  O137  1  0.54961854  0.59406268  0.82186430  1  -1.143368  0.000811  -0.269913  -0.441469  0.000563  2.119385  0.001
O  O138  1  0.59205254  0.07661767  0.38104019  1  -1.116504  -0.079239  -0.313027  -0.523835  -0.051737  2.380107  -0.072
O  O139  1  0.40793506  0.92338611  0.61895998  1  -1.116676  0.079253  -0.312935  -0.523749  0.051746  2.379829  0.072
O  O140  1  0.36128822  0.08330102  0.37881164  1  -1.117096  0.086345  -0.317325  -0.526183  0.05628  2.348316  0.078
O  O141  1  0.63870110  0.91669721  0.62119119  1  -1.116847  -0.086342  -0.317341  -0.526154  -0.056278  2.348272  -0.078
O  O142  1  0.48582494  0.89917099  0.12455697  1  -1.13632  8.3e-05  -0.263777  -0.430312  5e-05  2.097392  0.0
O  O143  1  0.51416867  0.10083094  0.87544102  1  -1.136263  -8.4e-05  -0.263824  -0.430366  -5e-05  2.097401  0.0
