# generated using pymatgen
data_Al2H17C24(NO4)3
_symmetry_space_group_name_H-M   'P 1'
_cell_length_a   6.79938130
_cell_length_b   11.20600566
_cell_length_c   16.77371833
_cell_angle_alpha   71.94588642
_cell_angle_beta   84.18070986
_cell_angle_gamma   71.25059364
_symmetry_Int_Tables_number   1
_chemical_formula_structural   Al2H17C24(NO4)3
_chemical_formula_sum   'Al2 H17 C24 N3 O12'
_cell_volume   1150.64415597
_cell_formula_units_Z   1
loop_
 _symmetry_equiv_pos_site_id
 _symmetry_equiv_pos_as_xyz
  1  'x, y, z'
loop_
 _atom_site_type_symbol
 _atom_site_label
 _atom_site_symmetry_multiplicity
 _atom_site_fract_x
 _atom_site_fract_y
 _atom_site_fract_z
 _atom_site_occupancy
 _atom_site_pbe_bader_charge
 _atom_site_pbe_bader_spin_density
 _atom_site_pbe_cm5_charge
 _atom_site_pbe_ddec_charge
 _atom_site_pbe_ddec_spin_density
 _atom_site_pbe_ddec_sum_bond_order
 _atom_site_pbe_magmom
Al  Al0  1  0.49655238  0.50355003  0.50091944  1  2.506247  0  0.403864  1.63441  0  2.564206  0
Al  Al1  1  0.99370156  0.50609596  0.50125364  1  2.506593  0  0.40139  1.647563  0  2.561471  0
H  H2  1  0.21278794  0.61766856  0.40051242  1  0.631179  0  0.347234  0.422983  0  0.864537  0
H  H3  1  0.81375004  0.34119672  0.56611937  1  0.620981  0  0.336764  0.415624  0  0.891252  0
H  H4  1  0.93339531  0.41274994  0.75091151  1  0.094615  0  0.109955  0.111199  0  1.010705  0
H  H5  1  0.85908084  0.41831741  0.89949320  1  0.103912  0  0.106887  0.11032  0  1.017663  0
H  H6  1  0.37771012  0.56243978  0.88971802  1  0.083219  0  0.106456  0.111922  0  1.007253  0
H  H7  1  0.63130817  0.42567544  0.11597594  1  0.074977  0  0.106737  0.11272  0  1.004676  0
H  H8  1  0.13722845  0.58254318  0.10159012  1  0.114441  0  0.107333  0.111588  0  1.014645  0
H  H9  1  0.05806967  0.59544963  0.24834149  1  0.067631  0  0.104222  0.101708  0  1.016517  0
H  H10  1  0.86183013  0.88844782  0.47828558  1  0.09447  0  0.114049  0.119961  0  0.99363  0
H  H11  1  0.22757776  0.88758000  0.51227062  1  0.134552  0  0.121611  0.136171  0  0.985954  0
H  H12  1  0.74613374  0.12622612  0.47960190  1  0.143556  0  0.109631  0.10121  0  1.112618  0
H  H13  1  0.57952452  0.60348922  0.77215980  1  0.031648  0  0.089996  0.127033  0  1.007862  0
H  H14  1  0.44875616  0.65862553  0.67445805  1  0.053507  0  0.094936  0.135871  0  0.999402  0
H  H15  1  0.61729952  0.49768000  0.70738158  1  0.067791  0  0.101043  0.148394  0  1.005012  0
H  H16  1  0.38077035  0.49459330  0.29288541  1  0.070668  0  0.094798  0.133842  0  1.019862  0
H  H17  1  0.56112350  0.33874944  0.33265877  1  0.065688  0  0.096604  0.14298  0  0.999378  0
H  H18  1  0.43806584  0.37898184  0.23459138  1  0.03484  0  0.090737  0.128202  0  0.999554  0
C  C19  1  0.62153800  0.73281888  0.49621514  1  1.617661  0  0.274287  0.639057  0  4.099432  0
C  C20  1  0.77526669  0.52459594  0.35300092  1  1.558081  0  0.268327  0.655396  0  4.072197  0
C  C21  1  0.36725350  0.27593362  0.50496871  1  1.604776  0  0.274046  0.650122  0  4.087512  0
C  C22  1  0.21610799  0.48496618  0.64749204  1  1.568678  0  0.272337  0.654569  0  4.069423  0
C  C23  1  0.19424276  0.48556690  0.73675018  1  -0.026653  0  -0.010239  -0.106195  0  3.90327  0
C  C24  1  0.02932875  0.44544216  0.78247254  1  -0.028458  0  -0.079791  -0.074675  0  4.00215  0
C  C25  1  0.98751048  0.44838716  0.86435694  1  -0.034385  0  -0.088163  -0.155675  0  3.971049  0
C  C26  1  0.11392344  0.49305427  0.90224319  1  0.329597  0  0.088445  0.181057  0  4.064882  0
C  C27  1  0.28191917  0.52957589  0.85788059  1  -0.051024  0  -0.080886  -0.20645  0  3.90015  0
C  C28  1  0.32578133  0.52761995  0.77485705  1  0.028331  0  0.006568  0.179274  0  3.93049  0
C  C29  1  0.72340490  0.46283704  0.14647336  1  -0.015438  0  -0.081062  -0.207387  0  3.898922  0
C  C30  1  0.88858742  0.50154102  0.10109249  1  0.299025  0  0.088457  0.181964  0  4.063911  0
C  C31  1  0.01054997  0.55116951  0.13741286  1  -0.058286  0  -0.088417  -0.156853  0  3.972365  0
C  C32  1  0.96583408  0.55803349  0.21843021  1  0.053677  0  -0.080861  -0.071364  0  4.008564  0
C  C33  1  0.80269817  0.51690892  0.26513451  1  -0.064816  0  -0.011992  -0.103903  0  3.893318  0
C  C34  1  0.67734368  0.46819654  0.22877612  1  0.03595  0  0.006843  0.180313  0  3.921249  0
C  C35  1  0.42952018  0.13739012  0.49999724  1  -0.004723  0  0.000406  -0.075954  0  3.923577  0
C  C36  1  0.55296711  0.87329271  0.49723069  1  -0.027274  0  0.000839  -0.011723  0  3.95077  0
C  C37  1  0.28587678  0.06897124  0.50690352  1  0.15678  0  0.090799  0.063643  0  3.961889  0
C  C38  1  0.69960868  0.94048114  0.48724199  1  0.045501  0  -0.071455  -0.080569  0  3.928594  0
C  C39  1  0.34260893  0.93865661  0.50654226  1  0.026138  0  -0.070505  -0.149625  0  3.936188  0
C  C40  1  0.63741745  0.07056169  0.48871891  1  -0.023492  0  -0.076763  -0.072618  0  3.959855  0
C  C41  1  0.50281494  0.57402930  0.73032801  1  -0.054076  0  -0.238222  -0.41336  0  3.948705  0
C  C42  1  0.50493164  0.41746164  0.27433181  1  -0.081743  0  -0.238791  -0.409956  0  3.944184  0
N  N43  1  0.08507172  0.50524388  0.98428546  1  -0.469532  0  -0.148216  -0.135456  0  3.274949  0
N  N44  1  0.91827177  0.48772505  0.01943597  1  -0.481635  0  -0.148429  -0.135452  0  3.272245  0
N  N45  1  0.06325119  0.13943534  0.50826976  1  0.38653  0  0.059477  0.517862  0  4.219118  0
O  O46  1  0.48145730  0.67809617  0.50145504  1  -1.257042  0  -0.228651  -0.578903  0  2.34674  0
O  O47  1  0.93617119  0.52160849  0.38800979  1  -1.262027  0  -0.241785  -0.6129  0  2.356033  0
O  O48  1  0.17434875  0.32938721  0.51476763  1  -1.256908  0  -0.231296  -0.600244  0  2.412936  0
O  O49  1  0.39427663  0.47291194  0.61279388  1  -1.263128  0  -0.230581  -0.583968  0  2.360033  0
O  O50  1  0.51082260  0.32741914  0.50023544  1  -1.240967  0  -0.226747  -0.581626  0  2.375971  0
O  O51  1  0.05133766  0.49571361  0.61193829  1  -1.258041  0  -0.23433  -0.590213  0  2.3457  0
O  O52  1  0.81588067  0.68062783  0.48962613  1  -1.25197  0  -0.22773  -0.581737  0  2.363745  0
O  O53  1  0.59579025  0.53556167  0.38682436  1  -1.267751  0  -0.237237  -0.603978  0  2.359508  0
O  O54  1  0.22193030  0.57027424  0.45980604  1  -1.437713  0  -0.450408  -0.983414  0  2.15845  0
O  O55  1  0.77113542  0.43637668  0.54063363  1  -1.424719  0  -0.449534  -0.980577  0  2.14945  0
O  O56  1  0.98153003  0.20048289  0.43863858  1  -0.431973  0  -0.094498  -0.283669  0  1.944776  0
O  O57  1  0.97247910  0.12930129  0.57674887  1  -0.437464  0  -0.10849  -0.308515  0  1.90536  0
