# generated using pymatgen
data_ZnH12C15S(NO)4
_symmetry_space_group_name_H-M   'P 1'
_cell_length_a   8.75521101
_cell_length_b   10.27124185
_cell_length_c   10.27127199
_cell_angle_alpha   76.75285095
_cell_angle_beta   72.15286525
_cell_angle_gamma   72.15336877
_symmetry_Int_Tables_number   1
_chemical_formula_structural   ZnH12C15S(NO)4
_chemical_formula_sum   'Zn2 H24 C30 S2 N8 O8'
_cell_volume   827.53412059
_cell_formula_units_Z   2
loop_
 _symmetry_equiv_pos_site_id
 _symmetry_equiv_pos_as_xyz
  1  'x, y, z'
loop_
 _atom_site_type_symbol
 _atom_site_label
 _atom_site_symmetry_multiplicity
 _atom_site_fract_x
 _atom_site_fract_y
 _atom_site_fract_z
 _atom_site_occupancy
 _atom_site_hle17_bader_spin_density
 _atom_site_hle17_ddec_charge
 _atom_site_hle17_ddec_spin_density
 _atom_site_hle17_ddec_sum_bond_order
 _atom_site_hle17_magmom
 _atom_site_hse06_10hf_bader_spin_density
 _atom_site_hse06_10hf_ddec_charge
 _atom_site_hse06_10hf_ddec_spin_density
 _atom_site_hse06_10hf_ddec_sum_bond_order
 _atom_site_hse06_10hf_magmom
 _atom_site_hse06_bader_spin_density
 _atom_site_hse06_ddec_charge
 _atom_site_hse06_ddec_spin_density
 _atom_site_hse06_ddec_sum_bond_order
 _atom_site_hse06_magmom
 _atom_site_pbe_bader_spin_density
 _atom_site_pbe_cm5_charge
 _atom_site_pbe_ddec_charge
 _atom_site_pbe_ddec_spin_density
 _atom_site_pbe_ddec_sum_bond_order
 _atom_site_pbe_magmom
Zn  Zn0  1  0.50000510  0.32759881  0.67240187  1  0  1.068337  0  1.851864  0  0  0.882623  0  2.33581  0  0  0.924504  0  2.281733  0  0  0.721542  0.85323  0  2.373155  0
Zn  Zn1  1  0.49999719  0.67240178  0.32759728  1  0  1.068364  0  1.85184  0  0  0.882648  0  2.335798  0  0  0.924533  0  2.281718  0  0  0.72155  0.853255  0  2.373153  0
H  H2  1  0.45668312  0.22838465  0.00329557  1  0  0.102749  0  0.913859  0  0  0.116585  0  0.969716  0  0  0.119103  0  0.966252  0  0  0.146865  0.114487  0  0.972602  0
H  H3  1  0.54332849  0.99669464  0.77161356  1  0  0.102827  0  0.913765  0  0  0.116645  0  0.969652  0  0  0.119162  0  0.96619  0  0  0.146878  0.114546  0  0.972535  0
H  H4  1  0.54332106  0.77160949  0.99669897  1  0  0.102761  0  0.913837  0  0  0.116627  0  0.969677  0  0  0.119146  0  0.966211  0  0  0.1469  0.114527  0  0.972562  0
H  H5  1  0.45666859  0.00329958  0.22838686  1  0  0.102768  0  0.913777  0  0  0.116593  0  0.969654  0  0  0.11911  0  0.966194  0  0  0.146889  0.114495  0  0.972539  0
H  H6  1  0.12306946  0.44239656  0.65580321  1  0  0.119679  0  0.944576  0  0  0.132231  0  0.999576  0  0  0.134856  0  0.998354  0  0  0.110011  0.130212  0  1.00061  0
H  H7  1  0.87692202  0.34420311  0.55759992  1  0  0.119691  0  0.94459  0  0  0.132239  0  0.999593  0  0  0.134869  0  0.998372  0  0  0.110018  0.130219  0  1.000623  0
H  H8  1  0.87692966  0.55759868  0.34419538  1  0  0.119744  0  0.944578  0  0  0.132292  0  0.999585  0  0  0.134916  0  0.998363  0  0  0.110039  0.130268  0  1.000622  0
H  H9  1  0.12306907  0.65579813  0.44239636  1  0  0.119794  0  0.944563  0  0  0.132294  0  0.999624  0  0  0.134921  0  0.998404  0  0  0.110038  0.130279  0  1.000658  0
H  H10  1  0.81019761  0.49019281  0.73574273  1  0  0.100665  0  0.981544  0  0  0.110355  0  1.04288  0  0  0.113081  0  1.041593  0  0  0.098792  0.108333  0  1.043839  0
H  H11  1  0.18979712  0.26427556  0.50980688  1  0  0.100596  0  0.981652  0  0  0.110319  0  1.042958  0  0  0.113045  0  1.041672  0  0  0.098809  0.108297  0  1.043909  0
H  H12  1  0.18980111  0.50980779  0.26425840  1  0  0.100665  0  0.981573  0  0  0.110362  0  1.042894  0  0  0.113089  0  1.041605  0  0  0.098798  0.108336  0  1.043853  0
H  H13  1  0.81019799  0.73572940  0.49019991  1  0  0.10062  0  0.981683  0  0  0.110352  0  1.042974  0  0  0.113079  0  1.041685  0  0  0.098809  0.10833  0  1.043932  0
H  H14  1  0.67084185  0.43061015  0.97935810  1  0  0.090787  0  0.943088  0  0  0.103373  0  1.000371  0  0  0.105862  0  0.999402  0  0  0.100395  0.101466  0  1.00128  0
H  H15  1  0.32916223  0.02066540  0.56938317  1  0  0.090775  0  0.942986  0  0  0.103319  0  1.000327  0  0  0.105807  0  0.999361  0  0  0.100373  0.101423  0  1.001221  0
H  H16  1  0.32915930  0.56939056  0.02064426  1  0  0.090769  0  0.943095  0  0  0.10336  0  1.000376  0  0  0.105851  0  0.999404  0  0  0.100386  0.101442  0  1.0013  0
H  H17  1  0.67083139  0.97934067  0.43062569  1  0  0.090766  0  0.942966  0  0  0.103313  0  1.000323  0  0  0.105803  0  0.999352  0  0  0.100347  0.101421  0  1.001214  0
H  H18  1  0.82815018  0.32519987  0.15706011  1  0  0.120381  0  0.996797  0  0  0.127368  0  1.0629  0  0  0.130736  0  1.060542  0  0  0.103365  0.12492  0  1.064623  0
H  H19  1  0.17186572  0.84294919  0.67478395  1  0  0.120309  0  0.996759  0  0  0.12732  0  1.062854  0  0  0.130687  0  1.060497  0  0  0.103369  0.124872  0  1.064573  0
H  H20  1  0.17185582  0.67479658  0.84293816  1  0  0.120368  0  0.996718  0  0  0.127362  0  1.06283  0  0  0.130728  0  1.060473  0  0  0.10337  0.124909  0  1.064565  0
H  H21  1  0.82813258  0.15705223  0.32521220  1  0  0.120344  0  0.996804  0  0  0.127307  0  1.06294  0  0  0.130674  0  1.060586  0  0  0.10336  0.124863  0  1.064653  0
H  H22  1  0.26664814  0.24882082  0.24882157  1  0  0.108121  0  0.950555  0  0  0.115726  0  1.021339  0  0  0.117196  0  1.01999  0  0  0.133217  0.114526  0  1.022253  0
H  H23  1  0.73336112  0.75117225  0.75116987  1  0  0.108034  0  0.950561  0  0  0.115612  0  1.021398  0  0  0.117082  0  1.020052  0  0  0.133163  0.114414  0  1.02231  0
H  H24  1  0.04873443  0.27381227  0.27380783  1  0  0.109055  0  0.904572  0  0  0.122022  0  0.96482  0  0  0.122938  0  0.964626  0  0  0.141679  0.121414  0  0.964785  0
H  H25  1  0.95127348  0.72618938  0.72618846  1  0  0.108958  0  0.904634  0  0  0.121971  0  0.964785  0  0  0.12289  0  0.96459  0  0  0.141646  0.12136  0  0.964753  0
C  C26  1  0.33889134  0.26203229  0.97561449  1  0  0.198481  0  3.66877  0  0  0.130619  0  3.947464  0  0  0.148132  0  3.957106  0  0  0.161186  0.119423  0  3.940661  0
C  C27  1  0.66111736  0.02438236  0.73796526  1  0  0.198412  0  3.668901  0  0  0.130542  0  3.947584  0  0  0.148055  0  3.957226  0  0  0.161197  0.119356  0  3.940768  0
C  C28  1  0.66111188  0.73796504  0.02438139  1  0  0.198547  0  3.668915  0  0  0.130638  0  3.947621  0  0  0.148151  0  3.957261  0  0  0.161172  0.119449  0  3.94081  0
C  C29  1  0.33887715  0.97561590  0.26203283  1  0  0.198516  0  3.668717  0  0  0.130654  0  3.947386  0  0  0.148166  0  3.957027  0  0  0.161224  0.119467  0  3.940573  0
C  C30  1  0.06594562  0.31709339  0.00217061  1  0  0.102316  0  3.769195  0  0  0.093432  0  4.011889  0  0  0.096856  0  4.034809  0  0  0.092483  0.091005  0  3.996923  0
C  C31  1  0.93406065  0.99783243  0.68289654  1  0  0.102432  0  3.769238  0  0  0.09352  0  4.012022  0  0  0.096946  0  4.034937  0  0  0.092422  0.091083  0  3.99707  0
C  C32  1  0.93405588  0.68290184  0.99782634  1  0  0.102382  0  3.769256  0  0  0.09341  0  4.01204  0  0  0.096833  0  4.034961  0  0  0.09241  0.090986  0  3.997069  0
C  C33  1  0.06593715  0.00216699  0.31710224  1  0  0.102344  0  3.769248  0  0  0.093435  0  4.011985  0  0  0.09686  0  4.034902  0  0  0.092385  0.091003  0  3.99703  0
C  C34  1  0.14819546  0.34976440  0.86185292  1  0  0.154849  0  3.808772  0  0  0.153882  0  4.048688  0  0  0.156553  0  4.073043  0  0  0.088955  0.152048  0  4.032474  0
C  C35  1  0.85181058  0.13814566  0.65023076  1  0  0.154688  0  3.808911  0  0  0.153663  0  4.048906  0  0  0.156335  0  4.073258  0  0  0.088948  0.151831  0  4.032694  0
C  C36  1  0.85180633  0.65022971  0.13814230  1  0  0.154724  0  3.808975  0  0  0.153858  0  4.048766  0  0  0.15653  0  4.073118  0  0  0.088991  0.152024  0  4.032549  0
C  C37  1  0.14818484  0.86185373  0.34976871  1  0  0.154691  0  3.808912  0  0  0.153664  0  4.048907  0  0  0.156338  0  4.073256  0  0  0.088974  0.151834  0  4.032696  0
C  C38  1  0.05852198  0.41515725  0.76301985  1  0  -0.13386  0  3.72563  0  0  -0.151396  0  3.974015  0  0  -0.154204  0  3.995022  0  0  -0.089162  -0.149194  0  3.959248  0
C  C39  1  0.94147754  0.23698790  0.58483578  1  0  -0.133901  0  3.725629  0  0  -0.151405  0  3.974009  0  0  -0.15422  0  3.995018  0  0  -0.089191  -0.149197  0  3.959234  0
C  C40  1  0.94147691  0.58483479  0.23697774  1  0  -0.133965  0  3.72559  0  0  -0.151543  0  3.973971  0  0  -0.154347  0  3.994969  0  0  -0.089243  -0.149337  0  3.959198  0
C  C41  1  0.05851903  0.76301142  0.41516143  1  0  -0.133982  0  3.725688  0  0  -0.151465  0  3.974114  0  0  -0.154277  0  3.995118  0  0  -0.089244  -0.14927  0  3.959355  0
C  C42  1  0.88662568  0.44219942  0.80848219  1  0  -0.080644  0  3.777187  0  0  -0.099603  0  4.037356  0  0  -0.102187  0  4.060674  0  0  -0.099462  -0.097798  0  4.021081  0
C  C43  1  0.11337095  0.19153335  0.55779475  1  0  -0.080553  0  3.777245  0  0  -0.099539  0  4.037364  0  0  -0.102122  0  4.060684  0  0  -0.099482  -0.097732  0  4.02108  0
C  C44  1  0.11337587  0.55779594  0.19151763  1  0  -0.080603  0  3.777035  0  0  -0.099554  0  4.037183  0  0  -0.102135  0  4.060495  0  0  -0.099454  -0.097735  0  4.020887  0
C  C45  1  0.88662197  0.80847025  0.44220621  1  0  -0.080643  0  3.777244  0  0  -0.099641  0  4.037393  0  0  -0.102222  0  4.060707  0  0  -0.099457  -0.097834  0  4.021121  0
C  C46  1  0.80595462  0.40702083  0.94822862  1  0  -0.057324  0  3.755619  0  0  -0.075541  0  4.014519  0  0  -0.077682  0  4.037246  0  0  -0.095231  -0.073931  0  3.99925  0
C  C47  1  0.19404684  0.05178660  0.59296727  1  0  -0.057229  0  3.755526  0  0  -0.075399  0  4.01444  0  0  -0.07754  0  4.037164  0  0  -0.095125  -0.073804  0  3.999169  0
C  C48  1  0.19404712  0.59297765  0.05177028  1  0  -0.057299  0  3.75565  0  0  -0.075518  0  4.01455  0  0  -0.077659  0  4.037273  0  0  -0.095186  -0.073905  0  3.999285  0
C  C49  1  0.80594542  0.94821907  0.40703332  1  0  -0.057215  0  3.755504  0  0  -0.075411  0  4.014413  0  0  -0.077553  0  4.037136  0  0  -0.095139  -0.073808  0  3.999137  0
C  C50  1  0.89347838  0.34506944  0.04863199  1  0  -0.150255  0  3.748154  0  0  -0.171681  0  4.003087  0  0  -0.174624  0  4.023683  0  0  -0.097683  -0.169828  0  3.989601  0
C  C51  1  0.10653092  0.95138161  0.65491388  1  0  -0.15027  0  3.748237  0  0  -0.171713  0  4.003169  0  0  -0.174662  0  4.02378  0  0  -0.097743  -0.169858  0  3.989697  0
C  C52  1  0.10652494  0.65492815  0.95136964  1  0  -0.150243  0  3.748092  0  0  -0.17166  0  4.003031  0  0  -0.17461  0  4.023646  0  0  -0.097712  -0.169808  0  3.989553  0
C  C53  1  0.89346011  0.04862395  0.34508513  1  0  -0.150232  0  3.748328  0  0  -0.171594  0  4.003203  0  0  -0.174547  0  4.023819  0  0  -0.097673  -0.169747  0  3.989726  0
C  C54  1  0.17243684  0.21942246  0.21942455  1  0  0.090986  0  3.603587  0  0  0.01312  0  3.854032  0  0  0.022259  0  3.862788  0  0  0.063291  0.007429  0  3.847365  0
C  C55  1  0.82756759  0.78057492  0.78057195  1  0  0.091326  0  3.603427  0  0  0.013547  0  3.853747  0  0  0.022682  0  3.862507  0  0  0.063505  0.007857  0  3.847081  0
S  S56  1  0.50033698  0.63068074  0.63067788  1  0  1.55331  0  5.846523  0  0  1.440471  0  6.373803  0  0  1.495411  0  6.339321  0  0  0.551962  1.402348  0  6.396424  0
S  S57  1  0.49966603  0.36931792  0.36932451  1  0  1.553463  0  5.846379  0  0  1.440656  0  6.373616  0  0  1.495607  0  6.33912  0  0  0.552014  1.402539  0  6.396216  0
N  N58  1  0.31883983  0.31171612  0.84897696  1  0  -0.42763  0  3.249998  0  0  -0.354337  0  3.552125  0  0  -0.374912  0  3.562441  0  0  -0.347702  -0.340505  0  3.545063  0
N  N59  1  0.68116550  0.15102069  0.68828331  1  0  -0.427643  0  3.250258  0  0  -0.354324  0  3.552403  0  0  -0.3749  0  3.56272  0  0  -0.34772  -0.340493  0  3.545331  0
N  N60  1  0.68116253  0.68828015  0.15101945  1  0  -0.427617  0  3.25025  0  0  -0.354309  0  3.552329  0  0  -0.374884  0  3.562645  0  0  -0.347702  -0.34048  0  3.545265  0
N  N61  1  0.31882851  0.84897553  0.31171646  1  0  -0.427605  0  3.250084  0  0  -0.354294  0  3.552246  0  0  -0.374869  0  3.562559  0  0  -0.347734  -0.340463  0  3.545176  0
N  N62  1  0.19152928  0.26168040  0.07136596  1  0  -0.132353  0  3.5184  0  0  -0.051183  0  3.752276  0  0  -0.067795  0  3.77578  0  0  -0.238314  -0.040201  0  3.736077  0
N  N63  1  0.80848449  0.92863287  0.73831096  1  0  -0.132343  0  3.518384  0  0  -0.051149  0  3.752248  0  0  -0.067761  0  3.775754  0  0  -0.238296  -0.040172  0  3.736052  0
N  N64  1  0.80847581  0.73831492  0.92863092  1  0  -0.132492  0  3.518659  0  0  -0.051352  0  3.752622  0  0  -0.067961  0  3.776128  0  0  -0.238326  -0.040376  0  3.736426  0
N  N65  1  0.19151634  0.07136442  0.26168561  1  0  -0.132288  0  3.518374  0  0  -0.051068  0  3.752195  0  0  -0.067679  0  3.775697  0  0  -0.238238  -0.040089  0  3.735997  0
O  O66  1  0.52172742  0.71654279  0.71654099  1  0  -0.706049  0  1.852516  0  0  -0.664052  0  2.088024  0  0  -0.684784  0  2.07225  0  0  -0.375732  -0.649519  0  2.098901  0
O  O67  1  0.47827762  0.28345684  0.28345862  1  0  -0.7061  0  1.852494  0  0  -0.664139  0  2.088021  0  0  -0.684873  0  2.07224  0  0  -0.375744  -0.649606  0  2.098896  0
O  O68  1  0.32678415  0.63924966  0.63925954  1  0  -0.722582  0  1.927835  0  0  -0.675032  0  2.177317  0  0  -0.69495  0  2.160509  0  0  -0.358195  -0.660796  0  2.188311  0
O  O69  1  0.67321739  0.36075015  0.36074588  1  0  -0.722606  0  1.927747  0  0  -0.675077  0  2.177231  0  0  -0.694997  0  2.160414  0  0  -0.358239  -0.660894  0  2.188325  0
O  O70  1  0.58967615  0.48068290  0.67188344  1  0  -0.758456  0  2.037254  0  0  -0.681558  0  2.331575  0  0  -0.705073  0  2.307195  0  0  -0.373359  -0.664758  0  2.347847  0
O  O71  1  0.41034232  0.32809294  0.51932251  1  0  -0.758429  0  2.037086  0  0  -0.681578  0  2.331471  0  0  -0.705077  0  2.307038  0  0  -0.373419  -0.664777  0  2.347734  0
O  O72  1  0.41032651  0.51931675  0.32811781  1  0  -0.758529  0  2.037233  0  0  -0.681615  0  2.331509  0  0  -0.705154  0  2.307166  0  0  -0.373393  -0.664817  0  2.347781  0
O  O73  1  0.58966164  0.67190248  0.48067758  1  0  -0.758448  0  2.037212  0  0  -0.6816  0  2.331563  0  0  -0.705124  0  2.307208  0  0  -0.37343  -0.664795  0  2.347828  0
