# generated using pymatgen
data_LaH20C20N2(Cl2O3)3
_symmetry_space_group_name_H-M   'P 1'
_cell_length_a   10.08142906
_cell_length_b   13.05172922
_cell_length_c   13.66960000
_cell_angle_alpha   97.09452332
_cell_angle_beta   109.89565858
_cell_angle_gamma   95.58029731
_symmetry_Int_Tables_number   1
_chemical_formula_structural   LaH20C20N2(Cl2O3)3
_chemical_formula_sum   'La2 H40 C40 N4 Cl12 O18'
_cell_volume   1659.54463672
_cell_formula_units_Z   2
loop_
 _symmetry_equiv_pos_site_id
 _symmetry_equiv_pos_as_xyz
  1  'x, y, z'
loop_
 _atom_site_type_symbol
 _atom_site_label
 _atom_site_symmetry_multiplicity
 _atom_site_fract_x
 _atom_site_fract_y
 _atom_site_fract_z
 _atom_site_occupancy
 _atom_site_hle17_bader_spin_density
 _atom_site_hle17_ddec_charge
 _atom_site_hle17_ddec_spin_density
 _atom_site_hle17_ddec_sum_bond_order
 _atom_site_hle17_magmom
 _atom_site_hse06_10hf_bader_spin_density
 _atom_site_hse06_10hf_ddec_charge
 _atom_site_hse06_10hf_ddec_spin_density
 _atom_site_hse06_10hf_ddec_sum_bond_order
 _atom_site_hse06_10hf_magmom
 _atom_site_hse06_bader_spin_density
 _atom_site_hse06_ddec_charge
 _atom_site_hse06_ddec_spin_density
 _atom_site_hse06_ddec_sum_bond_order
 _atom_site_hse06_magmom
 _atom_site_pbe_bader_charge
 _atom_site_pbe_bader_spin_density
 _atom_site_pbe_cm5_charge
 _atom_site_pbe_ddec_charge
 _atom_site_pbe_ddec_spin_density
 _atom_site_pbe_ddec_sum_bond_order
 _atom_site_pbe_magmom
La  La0  1  0.03295243  0.11534250  0.13893839  1  0  2.175618  0  1.763211  0  0  2.054567  0  2.303354  0  0  2.160143  0  2.195616  0  2.284588  0  1.41257  1.974987  0  2.379127  0
La  La1  1  0.96704505  0.88465613  0.86106147  1  0  2.175604  0  1.76312  0  0  2.054553  0  2.303262  0  0  2.16013  0  2.195531  0  2.284649  0  1.412539  1.974967  0  2.379046  0
H  H2  1  0.40871646  0.40968389  0.28528576  1  0  0.130369  0  0.941716  0  0  0.146969  0  1.004882  0  0  0.149722  0  1.003162  0  0.057413  0  0.096465  0.144944  0  1.006294  0
H  H3  1  0.59128466  0.59031708  0.71471457  1  0  0.13037  0  0.941697  0  0  0.14696  0  1.004879  0  0  0.149713  0  1.003157  0  0.057435  0  0.096456  0.144935  0  1.00629  0
H  H4  1  0.35552979  0.28117878  0.30489061  1  0  0.158678  0  0.954576  0  0  0.175909  0  1.014225  0  0  0.178942  0  1.013142  0  0.123111  0  0.110089  0.173764  0  1.015012  0
H  H5  1  0.64447239  0.71882219  0.69510925  1  0  0.158681  0  0.95455  0  0  0.175918  0  1.014193  0  0  0.178952  0  1.013109  0  0.123098  0  0.11008  0.173774  0  1.01498  0
H  H6  1  0.39661652  0.38960538  0.40871230  1  0  0.124552  0  0.946491  0  0  0.143239  0  1.007376  0  0  0.145769  0  1.006123  0  0.038922  0  0.09231  0.141467  0  1.008177  0
H  H7  1  0.60338460  0.61039559  0.59128729  1  0  0.124584  0  0.946487  0  0  0.143274  0  1.007366  0  0  0.145805  0  1.006113  0  0.038916  0  0.092326  0.141502  0  1.008168  0
H  H8  1  0.25630463  0.57408264  0.44345520  1  0  0.089176  0  0.920688  0  0  0.111398  0  0.979136  0  0  0.111881  0  0.97921  0  0.035353  0  0.097676  0.110989  0  0.97912  0
H  H9  1  0.74369448  0.42591364  0.55654845  1  0  0.089135  0  0.920616  0  0  0.111342  0  0.979085  0  0  0.111833  0  0.97915  0  0.035389  0  0.097655  0.110926  0  0.979076  0
H  H10  1  0.22737236  0.63265186  0.32840220  1  0  0.09727  0  0.983817  0  0  0.109932  0  1.061377  0  0  0.111063  0  1.060905  0  0.101633  0  0.094091  0.109024  0  1.061798  0
H  H11  1  0.77263023  0.36734599  0.67160398  1  0  0.097263  0  0.983895  0  0  0.1099  0  1.061485  0  0  0.111027  0  1.061011  0  0.101527  0  0.094098  0.108991  0  1.061906  0
H  H12  1  0.36500622  0.55522146  0.36521144  1  0  0.093975  0  0.96296  0  0  0.114634  0  1.026654  0  0  0.114685  0  1.02729  0  0.070208  0  0.101264  0.114457  0  1.026347  0
H  H13  1  0.63499321  0.44477639  0.63479395  1  0  0.093995  0  0.962828  0  0  0.114654  0  1.026522  0  0  0.114702  0  1.027169  0  0.070183  0  0.101257  0.114474  0  1.026222  0
H  H14  1  0.94919084  0.42462838  0.18805514  1  0  0.113826  0  0.946665  0  0  0.130816  0  1.011543  0  0  0.131437  0  1.012245  0  0.095645  0  0.112019  0.130255  0  1.011159  0
H  H15  1  0.05081192  0.57537025  0.81194458  1  0  0.113787  0  0.946686  0  0  0.130799  0  1.011545  0  0  0.131419  0  1.012249  0  0.095655  0  0.112018  0.130238  0  1.01116  0
H  H16  1  0.99682336  0.56274407  0.23487483  1  0  0.112107  0  0.937735  0  0  0.130717  0  1.000865  0  0  0.131754  0  1.000438  0  0.079518  0  0.106019  0.12984  0  1.00131  0
H  H17  1  0.00317729  0.43725456  0.76512437  1  0  0.1121  0  0.937721  0  0  0.130685  0  1.000888  0  0  0.131723  0  1.00046  0  0.079502  0  0.106009  0.129807  0  1.001333  0
H  H18  1  0.95730986  0.47694620  0.31717814  1  0  0.085425  0  0.918728  0  0  0.106399  0  0.978193  0  0  0.106716  0  0.978246  0  0.018116  0  0.098635  0.106032  0  0.978348  0
H  H19  1  0.04268852  0.52305165  0.68282040  1  0  0.085403  0  0.918738  0  0  0.10638  0  0.978205  0  0  0.106697  0  0.978257  0  0.018063  0  0.098639  0.106013  0  0.97836  0
H  H20  1  0.69000122  0.28217279  0.09636914  1  0  0.143841  0  0.944688  0  0  0.160174  0  1.006922  0  0  0.162678  0  1.005905  0  0.077641  0  0.101241  0.158386  0  1.007609  0
H  H21  1  0.30999737  0.71783131  0.90363019  1  0  0.143827  0  0.944678  0  0  0.160136  0  1.006937  0  0  0.16264  0  1.00592  0  0.077654  0  0.101215  0.158349  0  1.007623  0
H  H22  1  0.70061789  0.34912354  0.22109528  1  0  0.130436  0  0.933256  0  0  0.15058  0  0.98985  0  0  0.153332  0  0.988404  0  0.040542  0  0.100635  0.148499  0  0.991062  0
H  H23  1  0.29938265  0.65087978  0.77890444  1  0  0.130452  0  0.933254  0  0  0.150577  0  0.989862  0  0  0.153327  0  0.988419  0  0.040588  0  0.100615  0.148497  0  0.991074  0
H  H24  1  0.54796920  0.25620831  0.14464365  1  0  0.14527  0  0.950696  0  0  0.160696  0  1.015792  0  0  0.163738  0  1.01439  0  0.068263  0  0.098266  0.158272  0  1.01716  0
H  H25  1  0.45202940  0.74379579  0.85535421  1  0  0.145255  0  0.950749  0  0  0.160696  0  1.015826  0  0  0.163738  0  1.014423  0  0.068323  0  0.098254  0.158272  0  1.017194  0
H  H26  1  0.59183922  0.27364914  0.32003014  1  0  0.095012  0  0.965332  0  0  0.118516  0  1.024584  0  0  0.11849  0  1.025286  0  0.058642  0  0.105488  0.118392  0  1.024162  0
H  H27  1  0.40816132  0.72635417  0.67996885  1  0  0.095054  0  0.965261  0  0  0.118526  0  1.024537  0  0  0.1185  0  1.025241  0  0.058724  0  0.10551  0.118403  0  1.024112  0
H  H28  1  0.66128156  0.20943289  0.43013778  1  0  0.093472  0  0.950091  0  0  0.110437  0  1.018172  0  0  0.110812  0  1.018546  0  0.060018  0  0.098507  0.110069  0  1.017925  0
H  H29  1  0.33871882  0.79056964  0.56986035  1  0  0.093433  0  0.950078  0  0  0.110401  0  1.018145  0  0  0.110776  0  1.018523  0  0.059974  0  0.098477  0.110033  0  1.017898  0
H  H30  1  0.51292389  0.14488010  0.31711749  1  0  0.113521  0  0.932233  0  0  0.128794  0  1.002415  0  0  0.129535  0  1.002538  0  0.103746  0  0.103546  0.127899  0  1.002803  0
H  H31  1  0.48707861  0.85512243  0.68288043  1  0  0.113504  0  0.932157  0  0  0.12877  0  1.002341  0  0  0.129522  0  1.002454  0  0.103728  0  0.103538  0.127868  0  1.002735  0
H  H32  1  0.73478311  0.99617330  0.29200825  1  0  0.096523  0  0.948579  0  0  0.111732  0  1.019821  0  0  0.11184  0  1.019852  0  0.050861  0  0.096496  0.111525  0  1.019886  0
H  H33  1  0.26521516  0.00382924  0.70799081  1  0  0.096555  0  0.948517  0  0  0.111765  0  1.019766  0  0  0.111869  0  1.019802  0  0.050804  0  0.096505  0.111556  0  1.019833  0
H  H34  1  0.77077986  0.06716548  0.42089352  1  0  0.109703  0  0.947946  0  0  0.128233  0  1.011675  0  0  0.129097  0  1.011491  0  0.094225  0  0.102975  0.127619  0  1.011767  0
H  H35  1  0.22921979  0.93283862  0.57910534  1  0  0.109704  0  0.947912  0  0  0.1282  0  1.011685  0  0  0.129066  0  1.011496  0  0.094598  0  0.10297  0.127587  0  1.011777  0
H  H36  1  0.89751890  0.08292204  0.35807710  1  0  0.119743  0  0.953755  0  0  0.135911  0  1.017879  0  0  0.138167  0  1.015576  0  0.125774  0  0.112005  0.134186  0  1.019672  0
H  H37  1  0.10248343  0.91707971  0.64192216  1  0  0.119724  0  0.953788  0  0  0.135893  0  1.017908  0  0  0.138138  0  1.015618  0  0.125806  0  0.112015  0.134171  0  1.019695  0
H  H38  1  0.00601497  0.96238871  0.27709462  1  0  0.41946  0  0.884904  0  0  0.394376  0  0.94002  0  0  0.40456  0  0.925337  0  0.625404  0  0.296799  0.387129  0  0.950443  0
H  H39  1  0.99399216  0.03761070  0.72290337  1  0  0.419423  0  0.884946  0  0  0.39435  0  0.940044  0  0  0.404534  0  0.925361  0  0.625314  0  0.296776  0.387103  0  0.950466  0
H  H40  1  0.97759396  0.87395863  0.17694614  1  0  0.436163  0  0.865881  0  0  0.40359  0  0.932161  0  0  0.416192  0  0.913976  0  0.639872  0  0.286812  0.39459  0  0.945091  0
H  H41  1  0.02241375  0.12603844  0.82305464  1  0  0.436239  0  0.865781  0  0  0.403664  0  0.932066  0  0  0.416266  0  0.91388  0  0.639955  0  0.286861  0.394663  0  0.944999  0
C  C42  1  0.99724647  0.27689900  0.93537129  1  0  0.700526  0  3.927264  0  0  0.649857  0  4.234621  0  0  0.684713  0  4.225707  0  1.661958  0  0.217194  0.625886  0  4.240011  0
C  C43  1  0.00275645  0.72310041  0.06462929  1  0  0.700633  0  3.927081  0  0  0.649937  0  4.234432  0  0  0.684792  0  4.225516  0  1.662321  0  0.217219  0.625965  0  4.239824  0
C  C44  1  0.99804992  0.39217278  0.97035659  1  0  -0.128094  0  3.721169  0  0  -0.129245  0  3.979557  0  0  -0.131407  0  3.994465  0  0.124666  0  -0.018379  -0.127963  0  3.969824  0
C  C45  1  0.00195209  0.60782741  0.02964679  1  0  -0.128116  0  3.721335  0  0  -0.12916  0  3.979613  0  0  -0.131318  0  3.994522  0  0.124573  0  -0.018335  -0.12788  0  3.969881  0
C  C46  1  0.12782120  0.45902671  0.02000701  1  0  0.066208  0  3.783095  0  0  0.059263  0  4.065204  0  0  0.062566  0  4.08402  0  0.079374  0  0.006749  0.056789  0  4.052766  0
C  C47  1  0.87218171  0.54097270  0.97999651  1  0  0.066203  0  3.783163  0  0  0.059176  0  4.065335  0  0  0.062472  0  4.084154  0  0.079301  0  0.006711  0.056701  0  4.052897  0
C  C48  1  0.87032319  0.43373688  0.95068419  1  0  0.064165  0  3.781065  0  0  0.059667  0  4.060921  0  0  0.062974  0  4.07939  0  0.059768  0  0.005078  0.057144  0  4.04876  0
C  C49  1  0.12967762  0.56626253  0.04931880  1  0  0.064259  0  3.781158  0  0  0.059715  0  4.060977  0  0  0.063017  0  4.079451  0  0.05967  0  0.005088  0.057196  0  4.04881  0
C  C50  1  0.22099094  0.05667021  0.38580758  1  0  0.665766  0  3.979109  0  0  0.614954  0  4.289872  0  0  0.649097  0  4.281588  0  1.650545  0  0.203645  0.591635  0  4.294609  0
C  C51  1  0.77900654  0.94332842  0.61419228  1  0  0.665878  0  3.979136  0  0  0.614969  0  4.290011  0  0  0.64911  0  4.281725  0  1.650958  0  0.203602  0.59165  0  4.294752  0
C  C52  1  0.36556361  0.02833589  0.44672121  1  0  -0.116582  0  3.723541  0  0  -0.117608  0  3.9807  0  0  -0.119417  0  3.995274  0  0.099631  0  -0.018855  -0.116882  0  3.971321  0
C  C53  1  0.63443630  0.97166430  0.55328092  1  0  -0.116729  0  3.72368  0  0  -0.117613  0  3.980678  0  0  -0.119424  0  3.995257  0  0.099851  0  -0.018814  -0.116886  0  3.971301  0
C  C54  1  0.47243389  0.10095944  0.52368595  1  0  0.065713  0  3.792132  0  0  0.06058  0  4.072199  0  0  0.063944  0  4.090812  0  0.132701  0  0.006475  0.058207  0  4.059844  0
C  C55  1  0.52756554  0.89903841  0.47631651  1  0  0.065721  0  3.792267  0  0  0.060562  0  4.072288  0  0  0.063926  0  4.0909  0  0.132777  0  0.006469  0.058188  0  4.059932  0
C  C56  1  0.60652810  0.07334270  0.57571689  1  0  0.04634  0  3.804734  0  0  0.038013  0  4.08915  0  0  0.040809  0  4.108307  0  0.03077  0  0.001988  0.036026  0  4.076415  0
C  C57  1  0.39347197  0.92665827  0.42428756  1  0  0.046141  0  3.804924  0  0  0.037852  0  4.089365  0  0  0.040645  0  4.108526  0  0.03077  0  0.001957  0.035866  0  4.076629  0
C  C58  1  0.73063851  0.92681366  0.94113220  1  0  0.683575  0  3.921269  0  0  0.634368  0  4.222344  0  0  0.669587  0  4.215923  0  1.62461  0  0.212516  0.610548  0  4.224915  0
C  C59  1  0.26935871  0.07318888  0.05886587  1  0  0.683447  0  3.921514  0  0  0.634399  0  4.222335  0  0  0.669616  0  4.215916  0  1.624668  0  0.212555  0.610581  0  4.224905  0
C  C60  1  0.60944427  0.96218882  0.97113830  1  0  -0.124365  0  3.715606  0  0  -0.12161  0  3.967247  0  0  -0.124552  0  3.982729  0  0.037245  0  -0.013144  -0.119492  0  3.956648  0
C  C61  1  0.39055232  0.03781060  0.02886070  1  0  -0.124233  0  3.715557  0  0  -0.121556  0  3.967169  0  0  -0.124493  0  3.982648  0  0.037379  0  -0.013132  -0.119436  0  3.956564  0
C  C62  1  0.56728290  0.91978688  0.04700827  1  0  0.074598  0  3.776017  0  0  0.067911  0  4.055886  0  0  0.071237  0  4.074829  0  0.133064  0  0.014123  0.06557  0  4.043272  0
C  C63  1  0.43270867  0.08020862  0.95298755  1  0  0.074492  0  3.776049  0  0  0.06782  0  4.055942  0  0  0.071144  0  4.074879  0  0.133007  0  0.014075  0.065479  0  4.04333  0
C  C64  1  0.54083199  0.04106826  0.92338431  1  0  0.070153  0  3.774418  0  0  0.064292  0  4.051949  0  0  0.067855  0  4.07041  0  0.107745  0  0.012115  0.061677  0  4.039629  0
C  C65  1  0.45916201  0.95892881  0.07661377  1  0  0.070145  0  3.774376  0  0  0.064332  0  4.051858  0  0  0.067887  0  4.07033  0  0.107851  0  0.012158  0.061719  0  4.039537  0
C  C66  1  0.19323417  0.37660284  0.28119191  1  0  0.600729  0  3.74311  0  0  0.565579  0  4.019549  0  0  0.596204  0  4.019726  0  1.391748  0  0.256633  0.544692  0  4.018847  0
C  C67  1  0.80677012  0.62339813  0.71880555  1  0  0.600711  0  3.743385  0  0  0.565664  0  4.019668  0  0  0.596292  0  4.019842  0  1.392051  0  0.256621  0.544777  0  4.018968  0
C  C68  1  0.34849434  0.36388297  0.32294746  1  0  -0.447323  0  3.68265  0  0  -0.524968  0  3.917666  0  0  -0.531312  0  3.919742  0  -0.106355  0  -0.239408  -0.52038  0  3.916  0
C  C69  1  0.65150767  0.63611723  0.67705227  1  0  -0.447337  0  3.682623  0  0  -0.525019  0  3.917619  0  0  -0.531361  0  3.919693  0  -0.106321  0  -0.2394  -0.52043  0  3.915952  0
C  C70  1  0.25681159  0.56278780  0.36227084  1  0  -0.173593  0  3.705898  0  0  -0.276318  0  3.962358  0  0  -0.273034  0  3.97454  0  0.262316  0  -0.13899  -0.278189  0  3.953936  0
C  C71  1  0.74318768  0.43720927  0.63773367  1  0  -0.173538  0  3.705775  0  0  -0.276226  0  3.962244  0  0  -0.272942  0  3.974418  0  0.262446  0  -0.138964  -0.278087  0  3.953824  0
C  C72  1  0.00592289  0.48499509  0.25693072  1  0  -0.160739  0  3.645428  0  0  -0.257279  0  3.891847  0  0  -0.253446  0  3.902019  0  0.282404  0  -0.133148  -0.259594  0  3.884925  0
C  C73  1  0.99407775  0.51500354  0.74306921  1  0  -0.160643  0  3.64543  0  0  -0.257201  0  3.891871  0  0  -0.253367  0  3.902039  0  0.282438  0  -0.133154  -0.259516  0  3.884947  0
C  C74  1  0.73910179  0.18889759  0.21713395  1  0  0.598565  0  3.741799  0  0  0.5596  0  4.022596  0  0  0.590026  0  4.023832  0  1.375963  0  0.256648  0.538754  0  4.02133  0
C  C75  1  0.26089559  0.81110572  0.78286206  1  0  0.598617  0  3.741526  0  0  0.559753  0  4.022392  0  0  0.590178  0  4.023625  0  1.376412  0  0.256775  0.538906  0  4.021123  0
C  C76  1  0.66421059  0.27401614  0.16685176  1  0  -0.445499  0  3.670371  0  0  -0.521167  0  3.903421  0  0  -0.527673  0  3.905675  0  -0.069565  0  -0.237506  -0.516395  0  3.901972  0
C  C77  1  0.33578996  0.72598718  0.83314723  1  0  -0.445534  0  3.670349  0  0  -0.521156  0  3.903382  0  0  -0.527663  0  3.905644  0  -0.06979  0  -0.237491  -0.516384  0  3.901932  0
C  C78  1  0.61433400  0.19841993  0.34371535  1  0  -0.169029  0  3.660948  0  0  -0.269558  0  3.909779  0  0  -0.266168  0  3.921981  0  0.246959  0  -0.134769  -0.271474  0  3.901536  0
C  C79  1  0.38566671  0.80158416  0.65628304  1  0  -0.16904  0  3.660665  0  0  -0.269408  0  3.909541  0  0  -0.266032  0  3.921741  0  0.246931  0  -0.13476  -0.271319  0  3.901299  0
C  C80  1  0.78335183  0.07093069  0.34495795  1  0  -0.163853  0  3.613907  0  0  -0.260192  0  3.855341  0  0  -0.255726  0  3.863547  0  0.230605  0  -0.136539  -0.263086  0  3.849948  0
C  C81  1  0.21664993  0.92907341  0.65504070  1  0  -0.163899  0  3.613827  0  0  -0.260104  0  3.855346  0  0  -0.255627  0  3.863561  0  0.230378  0  -0.136575  -0.262998  0  3.849948  0
N  N82  1  0.15612026  0.47211280  0.29709871  1  0  -0.141567  0  3.424399  0  0  -0.043523  0  3.656242  0  0  -0.065329  0  3.680478  0  -1.209135  0  -0.280404  -0.028854  0  3.639458  0
N  N83  1  0.84387933  0.52788583  0.70290242  1  0  -0.141662  0  3.424462  0  0  -0.043612  0  3.656235  0  0  -0.065423  0  3.680477  0  -1.209202  0  -0.28043  -0.028943  0  3.639447  0
N  N84  1  0.71475998  0.15688005  0.29973598  1  0  -0.13063  0  3.425537  0  0  -0.030459  0  3.653318  0  0  -0.051974  0  3.677216  0  -1.195596  0  -0.270264  -0.016157  0  3.636953  0
N  N85  1  0.28524178  0.84312405  0.70026195  1  0  -0.130512  0  3.425251  0  0  -0.03069  0  3.6534  0  0  -0.052208  0  3.677298  0  -1.195872  0  -0.27024  -0.016383  0  3.637032  0
Cl  Cl86  1  0.28525847  0.40818078  0.04393181  1  0  -0.054986  0  1.396346  0  0  -0.041862  0  1.624805  0  0  -0.043098  0  1.617832  0  -0.177944  0  0.015121  -0.040927  0  1.629585  0
Cl  Cl87  1  0.71474249  0.59181941  0.95607350  1  0  -0.054972  0  1.396312  0  0  -0.041825  0  1.624796  0  0  -0.043059  0  1.617824  0  -0.177908  0  0.01513  -0.040887  0  1.629575  0
Cl  Cl88  1  0.71037950  0.35166205  0.88983995  1  0  -0.072846  0  1.443007  0  0  -0.066272  0  1.688022  0  0  -0.067338  0  1.680676  0  -0.181771  0  0.006661  -0.065354  0  1.693384  0
Cl  Cl89  1  0.28962114  0.64833659  0.11016071  1  0  -0.072839  0  1.443045  0  0  -0.066263  0  1.688069  0  0  -0.06733  0  1.680725  0  -0.181826  0  0.006689  -0.065346  0  1.693429  0
Cl  Cl90  1  0.43691127  0.22506843  0.55544985  1  0  -0.063509  0  1.353322  0  0  -0.047386  0  1.567417  0  0  -0.048473  0  1.560998  0  -0.203772  0  0.01014  -0.046638  0  1.572143  0
Cl  Cl91  1  0.56309311  0.77492786  0.44455586  1  0  -0.063475  0  1.353315  0  0  -0.047362  0  1.567415  0  0  -0.048448  0  1.560994  0  -0.204036  0  0.010146  -0.046614  0  1.572141  0
Cl  Cl92  1  0.73977949  0.16362962  0.66825422  1  0  -0.029434  0  1.540756  0  0  -0.014318  0  1.806478  0  0  -0.015417  0  1.798425  0  -0.167138  0  0.038864  -0.013637  0  1.81242  0
Cl  Cl93  1  0.26021841  0.83636588  0.33175782  1  0  -0.029352  0  1.540801  0  0  -0.014232  0  1.806509  0  0  -0.01533  0  1.798458  0  -0.1671  0  0.038895  -0.013551  0  1.81245  0
Cl  Cl94  1  0.64646378  0.81977773  0.10214675  1  0  -0.030071  0  1.421042  0  0  -0.017713  0  1.655984  0  0  -0.018425  0  1.6486  0  -0.156465  0  0.032368  -0.017214  0  1.661286  0
Cl  Cl95  1  0.35352156  0.18021309  0.89784183  1  0  -0.030014  0  1.421082  0  0  -0.017653  0  1.65602  0  0  -0.018361  0  1.648637  0  -0.156423  0  0.032408  -0.017154  0  1.661322  0
Cl  Cl96  1  0.59024333  0.08852300  0.82719247  1  0  -0.050407  0  1.514179  0  0  -0.042404  0  1.779742  0  0  -0.044747  0  1.774244  0  -0.163613  0  0.031035  -0.040877  0  1.783713  0
Cl  Cl97  1  0.40975172  0.91147406  0.17280734  1  0  -0.050449  0  1.514136  0  0  -0.04246  0  1.779667  0  0  -0.044797  0  1.774169  0  -0.16368  0  0.030987  -0.040935  0  1.783641  0
O  O98  1  0.98155370  0.21528685  0.99701056  1  0  -0.713174  0  2.023338  0  0  -0.671361  0  2.29279  0  0  -0.707595  0  2.282338  0  -1.208089  0  -0.401863  -0.644479  0  2.298664  0
O  O99  1  0.01843899  0.78471413  0.00299350  1  0  -0.713214  0  2.023311  0  0  -0.671403  0  2.292781  0  0  -0.707631  0  2.282322  0  -1.208459  0  -0.401871  -0.644521  0  2.298657  0
O  O100  1  0.01259248  0.25261567  0.84850488  1  0  -0.59452  0  1.936034  0  0  -0.548831  0  2.151867  0  0  -0.573967  0  2.141886  0  -1.151175  0  -0.307486  -0.531093  0  2.158344  0
O  O101  1  0.98741871  0.74738296  0.15150281  1  0  -0.594559  0  1.935836  0  0  -0.548875  0  2.151689  0  0  -0.574008  0  2.141692  0  -1.151215  0  -0.307518  -0.531137  0  2.158164  0
O  O102  1  0.21902787  0.10941983  0.31258424  1  0  -0.710934  0  2.003344  0  0  -0.668743  0  2.264974  0  0  -0.704425  0  2.257359  0  -1.196625  0  -0.39045  -0.642572  0  2.269229  0
O  O103  1  0.78097610  0.89057958  0.68741442  1  0  -0.710932  0  2.003481  0  0  -0.668689  0  2.265103  0  0  -0.704375  0  2.257503  0  -1.197085  0  -0.390415  -0.642517  0  2.26936  0
O  O104  1  0.11685058  0.02239370  0.40873240  1  0  -0.588055  0  1.918746  0  0  -0.542124  0  2.123578  0  0  -0.565859  0  2.114778  0  -1.155972  0  -0.302961  -0.525393  0  2.129151  0
O  O105  1  0.88314885  0.97760415  0.59126567  1  0  -0.588114  0  1.918591  0  0  -0.542172  0  2.123476  0  0  -0.565904  0  2.114674  0  -1.155895  0  -0.302955  -0.525441  0  2.129051  0
O  O106  1  0.85123233  0.98737636  0.98000079  1  0  -0.741017  0  2.045661  0  0  -0.688567  0  2.310385  0  0  -0.728348  0  2.303858  0  -1.20397  0  -0.396352  -0.660056  0  2.312992  0
O  O107  1  0.14876742  0.01262305  0.02000632  1  0  -0.741022  0  2.045696  0  0  -0.688621  0  2.310327  0  0  -0.728403  0  2.303798  0  -1.203931  0  -0.396389  -0.66011  0  2.312932  0
O  O108  1  0.71009965  0.84349573  0.87768037  1  0  -0.623991  0  1.934285  0  0  -0.585752  0  2.175494  0  0  -0.615195  0  2.169111  0  -1.164994  0  -0.32698  -0.56491  0  2.179049  0
O  O109  1  0.28988846  0.15651383  0.12230672  1  0  -0.623981  0  1.934483  0  0  -0.58575  0  2.175535  0  0  -0.615196  0  2.169155  0  -1.165257  0  -0.327014  -0.564911  0  2.179091  0
O  O110  1  0.09874920  0.29969561  0.23121525  1  0  -0.651926  0  2.03031  0  0  -0.608926  0  2.283459  0  0  -0.639716  0  2.275177  0  -1.192998  0  -0.362803  -0.586798  0  2.288434  0
O  O111  1  0.90125403  0.70030536  0.76877902  1  0  -0.651901  0  2.030535  0  0  -0.608931  0  2.283612  0  0  -0.639723  0  2.275325  0  -1.193287  0  -0.362747  -0.586801  0  2.28859  0
O  O112  1  0.82486599  0.14765286  0.18069278  1  0  -0.673993  0  2.027955  0  0  -0.629057  0  2.29554  0  0  -0.662141  0  2.286528  0  -1.205809  0  -0.389622  -0.605124  0  2.301209  0
O  O113  1  0.17512864  0.85234733  0.81930070  1  0  -0.674043  0  2.027954  0  0  -0.629112  0  2.295534  0  0  -0.662193  0  2.286519  0  -1.206007  0  -0.389705  -0.605188  0  2.301224  0
O  O114  1  0.97294406  0.94965556  0.19900448  1  0  -0.920276  0  1.89495  0  0  -0.876475  0  2.091132  0  0  -0.904797  0  2.058818  0  -1.270434  0  -0.651353  -0.855735  0  2.113519  0
O  O115  1  0.02706487  0.05034229  0.80099304  1  0  -0.920296  0  1.894927  0  0  -0.876511  0  2.091103  0  0  -0.904831  0  2.058798  0  -1.270519  0  -0.651376  -0.855765  0  2.113486  0
