# generated using pymatgen
data_CdH20C22(NO2)2
_symmetry_space_group_name_H-M   'P 1'
_cell_length_a   9.98248385
_cell_length_b   10.19784328
_cell_length_c   11.48376450
_cell_angle_alpha   102.59678871
_cell_angle_beta   99.60743410
_cell_angle_gamma   119.22959092
_symmetry_Int_Tables_number   1
_chemical_formula_structural   CdH20C22(NO2)2
_chemical_formula_sum   'Cd2 H40 C44 N4 O8'
_cell_volume   942.94079929
_cell_formula_units_Z   2
loop_
 _symmetry_equiv_pos_site_id
 _symmetry_equiv_pos_as_xyz
  1  'x, y, z'
loop_
 _atom_site_type_symbol
 _atom_site_label
 _atom_site_symmetry_multiplicity
 _atom_site_fract_x
 _atom_site_fract_y
 _atom_site_fract_z
 _atom_site_occupancy
 _atom_site_hle17_bader_spin_density
 _atom_site_hle17_ddec_charge
 _atom_site_hle17_ddec_spin_density
 _atom_site_hle17_ddec_sum_bond_order
 _atom_site_hle17_magmom
 _atom_site_hse06_10hf_bader_spin_density
 _atom_site_hse06_10hf_ddec_charge
 _atom_site_hse06_10hf_ddec_spin_density
 _atom_site_hse06_10hf_ddec_sum_bond_order
 _atom_site_hse06_10hf_magmom
 _atom_site_hse06_bader_spin_density
 _atom_site_hse06_ddec_charge
 _atom_site_hse06_ddec_spin_density
 _atom_site_hse06_ddec_sum_bond_order
 _atom_site_hse06_magmom
 _atom_site_pbe_bader_spin_density
 _atom_site_pbe_cm5_charge
 _atom_site_pbe_ddec_charge
 _atom_site_pbe_ddec_spin_density
 _atom_site_pbe_ddec_sum_bond_order
 _atom_site_pbe_magmom
Cd  Cd0  1  0.94183567  0.60073461  0.62803976  1  0  1.107915  0  1.661092  0  0  0.90559  0  2.103376  0  0  0.967208  0  2.051492  0  0  0.772175  0.860994  0  2.138844  0
Cd  Cd1  1  0.05816562  0.39926726  0.37196043  1  0  1.107924  0  1.6611  0  0  0.905606  0  2.103393  0  0  0.967226  0  2.051505  0  0  0.772185  0.861008  0  2.138863  0
H  H2  1  0.05502282  0.37984395  0.68947004  1  0  0.072871  0  0.973191  0  0  0.079095  0  1.042195  0  0  0.081016  0  1.041076  0  0  0.111023  0.077592  0  1.043077  0
H  H3  1  0.94498052  0.62015794  0.31052960  1  0  0.0729  0  0.973135  0  0  0.079123  0  1.042145  0  0  0.081045  0  1.041026  0  0  0.111033  0.077618  0  1.043029  0
H  H4  1  0.20801976  0.35303849  0.86848401  1  0  0.09922  0  0.970393  0  0  0.109032  0  1.033751  0  0  0.111271  0  1.034596  0  0  0.103681  0.107261  0  1.03373  0
H  H5  1  0.79197779  0.64696215  0.13151623  1  0  0.099197  0  0.970413  0  0  0.109006  0  1.033782  0  0  0.111246  0  1.034627  0  0  0.103672  0.107234  0  1.033761  0
H  H6  1  0.23521246  0.75651766  0.11650966  1  0  0.108496  0  0.965746  0  0  0.118014  0  1.027087  0  0  0.119894  0  1.029216  0  0  0.10608  0.116862  0  1.025337  0
H  H7  1  0.76478171  0.24348055  0.88349133  1  0  0.108502  0  0.965751  0  0  0.11802  0  1.0271  0  0  0.119902  0  1.029223  0  0  0.106063  0.116867  0  1.025355  0
H  H8  1  0.08268812  0.76690328  0.92702206  1  0  0.077452  0  0.961017  0  0  0.084194  0  1.029213  0  0  0.086064  0  1.028053  0  0  0.114136  0.082609  0  1.030475  0
H  H9  1  0.91731185  0.23309619  0.07297746  1  0  0.07745  0  0.961017  0  0  0.084201  0  1.029202  0  0  0.086072  0  1.02804  0  0  0.114134  0.082616  0  1.030464  0
H  H10  1  0.25461643  0.51776042  0.18567386  1  0  0.105272  0  0.935091  0  0  0.120277  0  0.998862  0  0  0.121645  0  0.998108  0  0  0.102946  0.119333  0  0.999293  0
H  H11  1  0.74538113  0.48224022  0.81432638  1  0  0.105241  0  0.935093  0  0  0.120272  0  0.998835  0  0  0.12164  0  0.998083  0  0  0.102941  0.119329  0  0.999265  0
H  H12  1  0.32475346  0.42755317  0.08541098  1  0  0.082207  0  0.927889  0  0  0.099706  0  0.986661  0  0  0.101177  0  0.9858  0  0  0.095528  0.098536  0  0.987451  0
H  H13  1  0.67524175  0.57244506  0.91458931  1  0  0.082173  0  0.927898  0  0  0.099718  0  0.986623  0  0  0.101191  0  0.985761  0  0  0.095533  0.098547  0  0.987417  0
H  H14  1  0.49077748  0.78699968  0.23051938  1  0  0.095406  0  0.937105  0  0  0.116545  0  0.995357  0  0  0.116708  0  0.996636  0  0  0.104002  0.116197  0  0.994642  0
H  H15  1  0.50922015  0.21299738  0.76948018  1  0  0.095442  0  0.937085  0  0  0.116574  0  0.995336  0  0  0.116735  0  0.99662  0  0  0.104012  0.116226  0  0.994622  0
H  H16  1  0.56265800  0.71323191  0.12109758  1  0  0.076779  0  0.923302  0  0  0.099552  0  0.977057  0  0  0.100385  0  0.976745  0  0  0.096387  0.099245  0  0.976713  0
H  H17  1  0.43733693  0.28676393  0.87890132  1  0  0.076757  0  0.923308  0  0  0.099528  0  0.977062  0  0  0.10038  0  0.976724  0  0  0.09638  0.099223  0  0.976713  0
H  H18  1  0.40127054  0.42221643  0.27543042  1  0  0.128548  0  0.98878  0  0  0.134596  0  1.054206  0  0  0.138377  0  1.052959  0  0  0.107948  0.131054  0  1.056603  0
H  H19  1  0.59873080  0.57778184  0.72456994  1  0  0.128554  0  0.988778  0  0  0.13458  0  1.054226  0  0  0.138358  0  1.052984  0  0  0.10794  0.13104  0  1.056622  0
H  H20  1  0.57804567  0.40385138  0.44043093  1  0  0.079328  0  0.963382  0  0  0.087093  0  1.028376  0  0  0.088634  0  1.028114  0  0  0.113906  0.085944  0  1.028606  0
H  H21  1  0.42195794  0.59615289  0.55957009  1  0  0.079304  0  0.963402  0  0  0.087082  0  1.028384  0  0  0.088623  0  1.02812  0  0  0.113901  0.085931  0  1.028616  0
H  H22  1  0.97111788  0.85482643  0.50011069  1  0  0.07576  0  0.953378  0  0  0.085818  0  1.016368  0  0  0.087662  0  1.01529  0  0  0.112666  0.084356  0  1.017434  0
H  H23  1  0.02888482  0.14517427  0.49988774  1  0  0.075733  0  0.953376  0  0  0.085805  0  1.01636  0  0  0.087649  0  1.015282  0  0  0.112672  0.084355  0  1.017414  0
H  H24  1  0.81081563  0.89402827  0.33407783  1  0  0.116463  0  0.9948  0  0  0.122876  0  1.062238  0  0  0.127025  0  1.060191  0  0  0.100776  0.119097  0  1.064907  0
H  H25  1  0.18918101  0.10596880  0.66591984  1  0  0.116461  0  0.99479  0  0  0.122895  0  1.062201  0  0  0.127044  0  1.060151  0  0  0.100791  0.119115  0  1.064867  0
H  H26  1  0.01542347  0.09571267  0.89291768  1  0  0.103577  0  0.927992  0  0  0.121022  0  0.987598  0  0  0.123393  0  0.985914  0  0  0.101262  0.119459  0  0.988966  0
H  H27  1  0.98457611  0.90428797  0.10708375  1  0  0.103582  0  0.927995  0  0  0.121015  0  0.987611  0  0  0.123387  0  0.985925  0  0  0.101265  0.119458  0  0.988974  0
H  H28  1  0.95646686  0.07485254  0.73351683  1  0  0.10006  0  0.943046  0  0  0.115763  0  1.004965  0  0  0.117726  0  1.004489  0  0  0.098526  0.114515  0  1.005275  0
H  H29  1  0.04353339  0.92514931  0.26648406  1  0  0.100046  0  0.943043  0  0  0.115736  0  1.004979  0  0  0.117698  0  1.004505  0  0  0.098519  0.114488  0  1.005291  0
H  H30  1  0.79238470  0.92243313  0.98074672  1  0  0.084933  0  0.961909  0  0  0.096821  0  1.024942  0  0  0.099542  0  1.023416  0  0  0.094261  0.094821  0  1.026454  0
H  H31  1  0.20761423  0.07756633  0.01925350  1  0  0.084942  0  0.961888  0  0  0.096786  0  1.024966  0  0  0.099519  0  1.023425  0  0  0.094255  0.094785  0  1.026477  0
H  H32  1  0.52072799  0.85420819  0.99131152  1  0  0.078335  0  0.977548  0  0  0.088504  0  1.041711  0  0  0.090682  0  1.041845  0  0  0.093474  0.087056  0  1.041465  0
H  H33  1  0.47927062  0.14579248  0.00868715  1  0  0.07836  0  0.977558  0  0  0.088534  0  1.041712  0  0  0.090711  0  1.041849  0  0  0.093488  0.087086  0  1.041466  0
H  H34  1  0.33215683  0.85598330  0.82152375  1  0  0.092998  0  0.975064  0  0  0.102267  0  1.042099  0  0  0.104881  0  1.041497  0  0  0.095839  0.100272  0  1.042887  0
H  H35  1  0.66784690  0.14401742  0.17847398  1  0  0.092983  0  0.975083  0  0  0.102275  0  1.042098  0  0  0.104886  0  1.041494  0  0  0.095837  0.10028  0  1.042885  0
H  H36  1  0.68409547  0.98726705  0.62662655  1  0  0.097698  0  0.953478  0  0  0.111069  0  1.012824  0  0  0.113686  0  1.012137  0  0  0.098162  0.109186  0  1.013182  0
H  H37  1  0.31590884  0.01273481  0.37337585  1  0  0.097697  0  0.953444  0  0  0.111064  0  1.0128  0  0  0.113681  0  1.012113  0  0  0.098165  0.109176  0  1.013164  0
H  H38  1  0.43965542  0.00235050  0.56498856  1  0  0.113486  0  0.95617  0  0  0.124535  0  1.023811  0  0  0.127201  0  1.021997  0  0  0.099197  0.122281  0  1.025753  0
H  H39  1  0.56034624  0.99765018  0.43501059  1  0  0.113461  0  0.956152  0  0  0.124528  0  1.023788  0  0  0.127187  0  1.021981  0  0  0.099193  0.122277  0  1.025731  0
H  H40  1  0.29359739  0.93988775  0.64613915  1  0  0.120597  0  0.952495  0  0  0.13367  0  1.015632  0  0  0.136398  0  1.01385  0  0  0.099872  0.131481  0  1.017498  0
H  H41  1  0.70640462  0.06011173  0.35386068  1  0  0.120587  0  0.952504  0  0  0.133658  0  1.015662  0  0  0.136389  0  1.013874  0  0  0.099877  0.131472  0  1.017531  0
C  C42  1  0.09787384  0.46071123  0.78581782  1  0  0.137811  0  3.721187  0  0  0.106291  0  3.971755  0  0  0.114533  0  3.990846  0  0  0.043952  0.101404  0  3.958207  0
C  C43  1  0.90212613  0.53928824  0.21418170  1  0  0.137746  0  3.721218  0  0  0.106228  0  3.971782  0  0  0.114471  0  3.990875  0  0  0.043924  0.101342  0  3.958232  0
C  C44  1  0.18252670  0.44658935  0.88611490  1  0  -0.178858  0  3.719631  0  0  -0.195002  0  3.965423  0  0  -0.204202  0  3.988682  0  0  -0.087149  -0.189102  0  3.949642  0
C  C45  1  0.81747020  0.55341009  0.11388501  1  0  -0.178852  0  3.719668  0  0  -0.195012  0  3.965447  0  0  -0.204213  0  3.98871  0  0  -0.087168  -0.189109  0  3.949663  0
C  C46  1  0.23453045  0.55197925  0.00871369  1  0  0.161812  0  3.71438  0  0  0.176115  0  3.952024  0  0  0.181822  0  3.973219  0  0  0.017616  0.17254  0  3.937566  0
C  C47  1  0.76546450  0.44801660  0.99128435  1  0  0.161846  0  3.714344  0  0  0.176205  0  3.95194  0  0  0.181912  0  3.973138  0  0  0.017647  0.172628  0  3.937481  0
C  C48  1  0.19841820  0.67019369  0.02374127  1  0  -0.162505  0  3.677737  0  0  -0.178214  0  3.922522  0  0  -0.18687  0  3.945527  0  0  -0.080981  -0.172685  0  3.907341  0
C  C49  1  0.80157802  0.32980454  0.97625917  1  0  -0.162506  0  3.677738  0  0  -0.178249  0  3.922505  0  0  -0.186907  0  3.945513  0  0  -0.080998  -0.172722  0  3.907322  0
C  C50  1  0.11368796  0.67732864  0.91886105  1  0  0.131941  0  3.718925  0  0  0.101348  0  3.970586  0  0  0.109163  0  3.989583  0  0  0.046839  0.096334  0  3.95817  0
C  C51  1  0.88631198  0.32267081  0.08114020  1  0  0.13193  0  3.718954  0  0  0.10134  0  3.970609  0  0  0.109154  0  3.989604  0  0  0.046847  0.096325  0  3.958192  0
C  C52  1  0.32258098  0.53589746  0.11831580  1  0  -0.162506  0  3.693602  0  0  -0.203868  0  3.938457  0  0  -0.204741  0  3.948501  0  0  -0.158902  -0.203035  0  3.930984  0
C  C53  1  0.67741421  0.46410076  0.88168535  1  0  -0.162438  0  3.693542  0  0  -0.203875  0  3.938418  0  0  -0.204746  0  3.948455  0  0  -0.158876  -0.203047  0  3.930966  0
C  C54  1  0.49505087  0.68195328  0.18802812  1  0  -0.143094  0  3.676935  0  0  -0.187747  0  3.923274  0  0  -0.188505  0  3.934423  0  0  -0.14991  -0.18674  0  3.914801  0
C  C55  1  0.50494743  0.31804498  0.81197090  1  0  -0.143114  0  3.676982  0  0  -0.187769  0  3.923336  0  0  -0.188536  0  3.934489  0  0  -0.149915  -0.186762  0  3.914863  0
C  C56  1  0.59130173  0.66109564  0.28986719  1  0  0.168649  0  3.69104  0  0  0.185281  0  3.926253  0  0  0.191093  0  3.947673  0  0  0.018528  0.181315  0  3.911981  0
C  C57  1  0.40869954  0.33890621  0.71013387  1  0  0.168594  0  3.690971  0  0  0.185248  0  3.92615  0  0  0.191056  0  3.947579  0  0  0.018506  0.181281  0  3.911879  0
C  C58  1  0.52713933  0.52229203  0.32105685  1  0  -0.168067  0  3.660366  0  0  -0.184665  0  3.902655  0  0  -0.193199  0  3.923306  0  0  -0.084305  -0.179513  0  3.890258  0
C  C59  1  0.47286259  0.47771103  0.67894454  1  0  -0.167992  0  3.660267  0  0  -0.18457  0  3.902546  0  0  -0.193105  0  3.923199  0  0  -0.084246  -0.179419  0  3.890149  0
C  C60  1  0.62552564  0.51055329  0.41402546  1  0  0.13877  0  3.703359  0  0  0.108971  0  3.953166  0  0  0.11704  0  3.972365  0  0  0.047378  0.103461  0  3.940374  0
C  C61  1  0.37447771  0.48944861  0.58597331  1  0  0.13874  0  3.703316  0  0  0.108919  0  3.953136  0  0  0.116989  0  3.972334  0  0  0.047348  0.10341  0  3.940344  0
C  C62  1  0.84413037  0.76266773  0.44732422  1  0  0.11142  0  3.755244  0  0  0.082609  0  4.005937  0  0  0.089376  0  4.026509  0  0  0.031625  0.077852  0  3.992255  0
C  C63  1  0.15587155  0.23733533  0.55267716  1  0  0.111464  0  3.755298  0  0  0.082634  0  4.006021  0  0  0.089402  0  4.026594  0  0  0.031642  0.07787  0  3.992329  0
C  C64  1  0.75416290  0.78386949  0.35614095  1  0  -0.198513  0  3.719241  0  0  -0.215636  0  3.968208  0  0  -0.224873  0  3.989929  0  0  -0.094362  -0.208988  0  3.954085  0
C  C65  1  0.24583775  0.21613119  0.64385803  1  0  -0.19851  0  3.7192  0  0  -0.215654  0  3.968169  0  0  -0.22489  0  3.989889  0  0  -0.094379  -0.209004  0  3.954046  0
C  C66  1  0.95205169  0.87353003  0.76396173  1  0  0.67252  0  3.903158  0  0  0.628636  0  4.202182  0  0  0.660935  0  4.197607  0  0  0.188791  0.606714  0  4.204091  0
C  C67  1  0.04795089  0.12647422  0.23603999  1  0  0.672543  0  3.903027  0  0  0.628658  0  4.202049  0  0  0.660957  0  4.197474  0  0  0.18884  0.606737  0  4.203961  0
C  C68  1  0.92503110  0.01068976  0.79995919  1  0  -0.298053  0  3.706812  0  0  -0.344356  0  3.951691  0  0  -0.349438  0  3.958756  0  0  -0.161527  -0.340623  0  3.946701  0
C  C69  1  0.07497122  0.98931212  0.20004029  1  0  -0.298021  0  3.706784  0  0  -0.344309  0  3.951651  0  0  -0.349392  0  3.958717  0  0  -0.16152  -0.340582  0  3.94667  0
C  C70  1  0.75749261  0.96118138  0.80345395  1  0  0.124124  0  3.770838  0  0  0.147026  0  4.004136  0  0  0.148621  0  4.027329  0  0  -0.013502  0.145625  0  3.988582  0
C  C71  1  0.24250936  0.03881808  0.19654848  1  0  0.124029  0  3.770998  0  0  0.146981  0  4.004216  0  0  0.148581  0  4.027404  0  0  -0.013522  0.14557  0  3.988679  0
C  C72  1  0.70880376  0.92051547  0.90481490  1  0  -0.127825  0  3.750032  0  0  -0.151129  0  4.001006  0  0  -0.153447  0  4.020269  0  0  -0.097554  -0.14985  0  3.989127  0
C  C73  1  0.29119358  0.07947920  0.09518415  1  0  -0.127715  0  3.749904  0  0  -0.150985  0  4.000849  0  0  -0.153316  0  4.020108  0  0  -0.097516  -0.149703  0  3.988973  0
C  C74  1  0.55612306  0.88143147  0.91062608  1  0  -0.064298  0  3.810916  0  0  -0.076223  0  4.063485  0  0  -0.076988  0  4.084895  0  0  -0.097554  -0.075814  0  4.049338  0
C  C75  1  0.44387791  0.11856800  0.08937446  1  0  -0.064408  0  3.811015  0  0  -0.076347  0  4.063594  0  0  -0.077116  0  4.085013  0  0  -0.097598  -0.075938  0  4.049445  0
C  C76  1  0.44962944  0.88164819  0.81513448  1  0  -0.134771  0  3.738602  0  0  -0.157587  0  3.988052  0  0  -0.160734  0  4.009778  0  0  -0.100761  -0.155995  0  3.9739  0
C  C77  1  0.55037020  0.11835249  0.18486348  1  0  -0.134746  0  3.738666  0  0  -0.157599  0  3.988138  0  0  -0.160739  0  4.009859  0  0  -0.100746  -0.156009  0  3.973985  0
C  C78  1  0.49367996  0.91831785  0.71144685  1  0  0.120711  0  3.761807  0  0  0.141555  0  4.002138  0  0  0.142486  0  4.025904  0  0  -0.011875  0.140941  0  3.985693  0
C  C79  1  0.50632001  0.08168162  0.28855267  1  0  0.120693  0  3.76177  0  0  0.141562  0  4.002084  0  0  0.142493  0  4.025847  0  0  -0.01187  0.140952  0  3.98564  0
C  C80  1  0.64802608  0.95750463  0.70672856  1  0  -0.184168  0  3.688329  0  0  -0.209114  0  3.928288  0  0  -0.21239  0  3.948083  0  0  -0.09597  -0.206119  0  3.913972  0
C  C81  1  0.35197389  0.04249483  0.29327096  1  0  -0.184124  0  3.68842  0  0  -0.209089  0  3.928354  0  0  -0.212366  0  3.948146  0  0  -0.095964  -0.206087  0  3.914043  0
C  C82  1  0.37423721  0.91327109  0.60724930  1  0  -0.325059  0  3.682296  0  0  -0.369667  0  3.923606  0  0  -0.375096  0  3.929023  0  0  -0.16766  -0.365694  0  3.920256  0
C  C83  1  0.62576676  0.08673198  0.39275241  1  0  -0.325057  0  3.682264  0  0  -0.369708  0  3.923635  0  0  -0.37513  0  3.929054  0  0  -0.167691  -0.365733  0  3.920271  0
C  C84  1  0.27144294  0.74599911  0.50615685  1  0  0.696125  0  3.852234  0  0  0.651779  0  4.147566  0  0  0.685089  0  4.141337  0  0  0.198975  0.629277  0  4.150074  0
C  C85  1  0.72855605  0.25400037  0.49384078  1  0  0.696225  0  3.852137  0  0  0.651859  0  4.147502  0  0  0.68517  0  4.141271  0  0  0.19903  0.629358  0  4.150014  0
N  N86  1  0.06405161  0.57450746  0.80148643  1  0  -0.350802  0  3.293581  0  0  -0.268005  0  3.558532  0  0  -0.289982  0  3.576809  0  0  -0.337032  -0.252936  0  3.545603  0
N  N87  1  0.93595070  0.42549441  0.19851391  1  0  -0.350794  0  3.293668  0  0  -0.267995  0  3.55861  0  0  -0.289971  0  3.576884  0  0  -0.337022  -0.252928  0  3.545681  0
N  N88  1  0.78174320  0.62776727  0.47624332  1  0  -0.346391  0  3.283488  0  0  -0.265728  0  3.543515  0  0  -0.287713  0  3.563948  0  0  -0.338495  -0.250538  0  3.529544  0
N  N89  1  0.21825948  0.37223342  0.52375598  1  0  -0.34637  0  3.28345  0  0  -0.265702  0  3.543495  0  0  -0.287688  0  3.563928  0  0  -0.338494  -0.250514  0  3.529529  0
O  O90  1  0.07405598  0.90112323  0.72725390  1  0  -0.667724  0  1.936484  0  0  -0.609128  0  2.175459  0  0  -0.636447  0  2.166559  0  0  -0.342718  -0.589682  0  2.181516  0
O  O91  1  0.92594327  0.09887862  0.27274596  1  0  -0.667743  0  1.936475  0  0  -0.609141  0  2.17546  0  0  -0.636464  0  2.166562  0  0  -0.342723  -0.589699  0  2.181519  0
O  O92  1  0.85243599  0.73915230  0.77035864  1  0  -0.64852  0  1.998973  0  0  -0.588141  0  2.242532  0  0  -0.61602  0  2.236019  0  0  -0.325016  -0.56756  0  2.246475  0
O  O93  1  0.14756962  0.26085195  0.22964529  1  0  -0.648531  0  1.998914  0  0  -0.588182  0  2.242536  0  0  -0.61606  0  2.236025  0  0  -0.325073  -0.567589  0  2.246453  0
O  O94  1  0.32752763  0.70361699  0.42637638  1  0  -0.622547  0  1.877668  0  0  -0.56926  0  2.100224  0  0  -0.594068  0  2.092915  0  0  -0.324774  -0.551236  0  2.104512  0
O  O95  1  0.67247232  0.29638609  0.57362122  1  0  -0.622598  0  1.877621  0  0  -0.569301  0  2.100183  0  0  -0.594108  0  2.092875  0  0  -0.324802  -0.551274  0  2.104469  0
O  O96  1  0.12825081  0.64937314  0.51020155  1  0  -0.697568  0  2.056083  0  0  -0.612162  0  2.324821  0  0  -0.64601  0  2.313144  0  0  -0.345509  -0.587486  0  2.331323  0
O  O97  1  0.87174918  0.35062634  0.48979710  1  0  -0.697598  0  2.056057  0  0  -0.612169  0  2.324793  0  0  -0.646017  0  2.313116  0  0  -0.345515  -0.587509  0  2.331328  0
