# generated using pymatgen
data_CdH19C17S(NO)5
_symmetry_space_group_name_H-M   'P 1'
_cell_length_a   8.64112413
_cell_length_b   8.93142582
_cell_length_c   13.17687246
_cell_angle_alpha   105.96633241
_cell_angle_beta   91.97587271
_cell_angle_gamma   100.48584059
_symmetry_Int_Tables_number   1
_chemical_formula_structural   CdH19C17S(NO)5
_chemical_formula_sum   'Cd2 H38 C34 S2 N10 O10'
_cell_volume   957.54817436
_cell_formula_units_Z   2
loop_
 _symmetry_equiv_pos_site_id
 _symmetry_equiv_pos_as_xyz
  1  'x, y, z'
loop_
 _atom_site_type_symbol
 _atom_site_label
 _atom_site_symmetry_multiplicity
 _atom_site_fract_x
 _atom_site_fract_y
 _atom_site_fract_z
 _atom_site_occupancy
 _atom_site_hle17_bader_spin_density
 _atom_site_hle17_ddec_charge
 _atom_site_hle17_ddec_spin_density
 _atom_site_hle17_ddec_sum_bond_order
 _atom_site_hle17_magmom
 _atom_site_hse06_10hf_bader_spin_density
 _atom_site_hse06_10hf_ddec_charge
 _atom_site_hse06_10hf_ddec_spin_density
 _atom_site_hse06_10hf_ddec_sum_bond_order
 _atom_site_hse06_10hf_magmom
 _atom_site_hse06_bader_spin_density
 _atom_site_hse06_ddec_charge
 _atom_site_hse06_ddec_spin_density
 _atom_site_hse06_ddec_sum_bond_order
 _atom_site_hse06_magmom
 _atom_site_pbe_bader_spin_density
 _atom_site_pbe_cm5_charge
 _atom_site_pbe_ddec_charge
 _atom_site_pbe_ddec_spin_density
 _atom_site_pbe_ddec_sum_bond_order
 _atom_site_pbe_magmom
Cd  Cd0  1  0.68548129  0.52904773  0.30898804  1  0  1.098501  0  1.704835  0  0  0.907899  0  2.145403  0  0  0.959477  0  2.100079  0  0  0.784822  0.871358  0  2.176365  0
Cd  Cd1  1  0.31451938  0.47095239  0.69101226  1  0  1.098482  0  1.704889  0  0  0.907866  0  2.145458  0  0  0.959445  0  2.100133  0  0  0.784814  0.871326  0  2.17642  0
H  H2  1  0.99639736  0.35689721  0.36793805  1  0  0.114843  0  0.948945  0  0  0.122496  0  1.016448  0  0  0.126106  0  1.01323  0  0  0.109569  0.119519  0  1.01959  0
H  H3  1  0.00360075  0.64310174  0.63206195  1  0  0.114872  0  0.948914  0  0  0.12252  0  1.016419  0  0  0.126129  0  1.013201  0  0  0.109585  0.119542  0  1.019563  0
H  H4  1  0.09695361  0.09224947  0.05857002  1  0  0.113916  0  0.971713  0  0  0.122179  0  1.035287  0  0  0.12592  0  1.031601  0  0  0.1067  0.11929  0  1.038059  0
H  H5  1  0.90304753  0.90775302  0.94143150  1  0  0.113916  0  0.971684  0  0  0.122181  0  1.035254  0  0  0.125921  0  1.031569  0  0  0.106682  0.119295  0  1.03802  0
H  H6  1  0.37549346  0.13199717  0.12355499  1  0  0.118705  0  0.931651  0  0  0.131746  0  0.983882  0  0  0.135734  0  0.982086  0  0  0.109651  0.128788  0  0.985412  0
H  H7  1  0.62450491  0.86800297  0.87644449  1  0  0.118728  0  0.931635  0  0  0.131739  0  0.983894  0  0  0.135727  0  0.982098  0  0  0.109651  0.128781  0  0.985426  0
H  H8  1  0.86127993  0.89744232  0.26896285  1  0  0.106441  0  0.97542  0  0  0.11355  0  1.040509  0  0  0.116145  0  1.039007  0  0  0.113729  0.111564  0  1.041946  0
H  H9  1  0.13872077  0.10255784  0.73103517  1  0  0.106494  0  0.975379  0  0  0.113626  0  1.040436  0  0  0.116234  0  1.038916  0  0  0.113757  0.111611  0  1.041904  0
H  H10  1  0.14638719  0.07021526  0.37703993  1  0  0.107753  0  1.001815  0  0  0.116427  0  1.06615  0  0  0.117567  0  1.067667  0  0  0.115859  0.115442  0  1.065235  0
H  H11  1  0.85361605  0.92978607  0.62295915  1  0  0.107735  0  1.001855  0  0  0.116419  0  1.066174  0  0  0.117556  0  1.067694  0  0  0.115865  0.115436  0  1.06526  0
H  H12  1  0.05355718  0.62571427  0.44073723  1  0  0.105314  0  0.991171  0  0  0.107794  0  1.066263  0  0  0.11096  0  1.06253  0  0  0.128392  0.105456  0  1.069228  0
H  H13  1  0.94643933  0.37428824  0.55926417  1  0  0.105322  0  0.991079  0  0  0.107781  0  1.066218  0  0  0.110946  0  1.062486  0  0  0.12838  0.105442  0  1.069181  0
H  H14  1  0.25897882  0.00028496  0.57156950  1  0  0.073967  0  0.938921  0  0  0.090285  0  1.001345  0  0  0.090511  0  1.00192  0  0  0.106942  0.090279  0  1.000547  0
H  H15  1  0.74101810  0.99971395  0.42843349  1  0  0.073964  0  0.938894  0  0  0.090283  0  1.001338  0  0  0.090509  0  1.001914  0  0  0.106944  0.090283  0  1.000544  0
H  H16  1  0.29078853  0.80305122  0.53015123  1  0  0.087577  0  0.92633  0  0  0.104687  0  0.985129  0  0  0.105301  0  0.985271  0  0  0.114141  0.104348  0  0.984825  0
H  H17  1  0.70920750  0.19694891  0.46984970  1  0  0.087537  0  0.92626  0  0  0.104672  0  0.985053  0  0  0.105287  0  0.985194  0  0  0.114133  0.104339  0  0.984753  0
H  H18  1  0.41181011  0.05949631  0.42104225  1  0  0.070516  0  0.958702  0  0  0.087392  0  1.022594  0  0  0.088362  0  1.02274  0  0  0.090293  0.086834  0  1.02223  0
H  H19  1  0.58818845  0.94050497  0.57896124  1  0  0.070517  0  0.958653  0  0  0.087393  0  1.022548  0  0  0.088363  0  1.022692  0  0  0.090331  0.086836  0  1.022182  0
H  H20  1  0.46103496  0.86874334  0.39356604  1  0  0.071388  0  0.941004  0  0  0.08867  0  1.002145  0  0  0.089393  0  1.002764  0  0  0.090005  0.087986  0  1.001987  0
H  H21  1  0.53896477  0.13125795  0.60643673  1  0  0.071431  0  0.940926  0  0  0.088659  0  1.002125  0  0  0.089376  0  1.002749  0  0  0.090003  0.087969  0  1.001974  0
H  H22  1  0.69727318  0.73157666  0.11633810  1  0  0.103925  0  0.947921  0  0  0.117737  0  1.001622  0  0  0.119725  0  1.000969  0  0  0.12118  0.11625  0  1.002326  0
H  H23  1  0.30272842  0.26842228  0.88366123  1  0  0.10391  0  0.947899  0  0  0.117734  0  1.00159  0  0  0.119722  0  1.000938  0  0  0.12118  0.116246  0  1.002296  0
H  H24  1  0.30139194  0.54536949  0.25577654  1  0  0.087992  0  0.970725  0  0  0.0958  0  1.040189  0  0  0.096726  0  1.039996  0  0  0.129448  0.095334  0  1.039834  0
H  H25  1  0.69860895  0.45462590  0.74422134  1  0  0.087926  0  0.97078  0  0  0.095737  0  1.040235  0  0  0.096664  0  1.040041  0  0  0.129432  0.095273  0  1.039878  0
H  H26  1  0.42371661  0.78768438  0.02737758  1  0  0.127284  0  0.949523  0  0  0.135786  0  1.011187  0  0  0.139032  0  1.008762  0  0  0.127629  0.133471  0  1.012842  0
H  H27  1  0.57628382  0.21231456  0.97262249  1  0  0.127396  0  0.949406  0  0  0.13587  0  1.011096  0  0  0.139116  0  1.008671  0  0  0.127673  0.133555  0  1.01275  0
H  H28  1  0.13755016  0.76139738  0.08353052  1  0  0.09054  0  0.925355  0  0  0.105082  0  0.987216  0  0  0.105881  0  0.987125  0  0  0.113621  0.105114  0  0.986042  0
H  H29  1  0.86245353  0.23860037  0.91646789  1  0  0.090604  0  0.925281  0  0  0.105134  0  0.987142  0  0  0.105935  0  0.987048  0  0  0.113626  0.105166  0  0.985966  0
H  H30  1  0.08642440  0.65437279  0.17773279  1  0  0.076318  0  0.943207  0  0  0.089607  0  1.008967  0  0  0.089907  0  1.010188  0  0  0.107201  0.089275  0  1.008277  0
H  H31  1  0.91357720  0.34562615  0.82226655  1  0  0.076378  0  0.943235  0  0  0.089645  0  1.008994  0  0  0.089946  0  1.010217  0  0  0.107228  0.089314  0  1.008305  0
H  H32  1  0.09946438  0.40019254  0.04232926  1  0  0.06415  0  0.947167  0  0  0.081387  0  1.01162  0  0  0.08127  0  1.01326  0  0  0.087538  0.081638  0  1.010074  0
H  H33  1  0.90053583  0.59980522  0.95766981  1  0  0.064135  0  0.947183  0  0  0.081397  0  1.011621  0  0  0.081278  0  1.01326  0  0  0.087547  0.081645  0  1.010082  0
H  H34  1  0.15720379  0.50712683  0.94923016  1  0  0.080497  0  0.957169  0  0  0.098171  0  1.018229  0  0  0.099379  0  1.018187  0  0  0.091723  0.097119  0  1.018619  0
H  H35  1  0.84279734  0.49286975  0.05076795  1  0  0.080476  0  0.957198  0  0  0.098177  0  1.018237  0  0  0.099385  0  1.018193  0  0  0.091705  0.097125  0  1.018627  0
H  H36  1  0.56767626  0.20670680  0.28067643  1  0  0.324795  0  0.926301  0  0  0.309862  0  0.984586  0  0  0.317541  0  0.978673  0  0  0.291834  0.304411  0  0.988733  0
H  H37  1  0.43232209  0.79329332  0.71932456  1  0  0.324828  0  0.926188  0  0  0.30988  0  0.984503  0  0  0.31756  0  0.978591  0  0  0.291868  0.304429  0  0.98865  0
H  H38  1  0.51592049  0.30818921  0.40064397  1  0  0.318585  0  0.924141  0  0  0.300779  0  0.988763  0  0  0.308862  0  0.9824  0  0  0.293913  0.295047  0  0.993155  0
H  H39  1  0.48407879  0.69180973  0.59935606  1  0  0.318595  0  0.924143  0  0  0.300784  0  0.98877  0  0  0.308866  0  0.982408  0  0  0.293923  0.295051  0  0.993164  0
C  C40  1  0.27970857  0.40476042  0.46889315  1  0  0.647519  0  3.923672  0  0  0.594773  0  4.217981  0  0  0.629573  0  4.211376  0  0  0.193646  0.571382  0  4.221697  0
C  C41  1  0.72029119  0.59524090  0.53110659  1  0  0.647416  0  3.923807  0  0  0.594705  0  4.218073  0  0  0.629508  0  4.211469  0  0  0.193627  0.571313  0  4.221788  0
C  C42  1  0.23708318  0.33031712  0.35224254  1  0  -0.189328  0  3.72976  0  0  -0.164787  0  3.96859  0  0  -0.175895  0  3.987337  0  0  -0.031811  -0.158098  0  3.95729  0
C  C43  1  0.76291683  0.66968539  0.64775744  1  0  -0.189336  0  3.729816  0  0  -0.164846  0  3.968689  0  0  -0.175953  0  3.987435  0  0  -0.031841  -0.158156  0  3.957392  0
C  C44  1  0.07954969  0.31012177  0.31333602  1  0  -0.059052  0  3.739492  0  0  -0.097071  0  3.993487  0  0  -0.091684  0  4.010464  0  0  -0.081045  -0.10077  0  3.983817  0
C  C45  1  0.92044891  0.68987955  0.68666445  1  0  -0.059106  0  3.739509  0  0  -0.097112  0  3.993512  0  0  -0.091727  0  4.010492  0  0  -0.081078  -0.100812  0  3.983846  0
C  C46  1  0.02815669  0.22451266  0.20841133  1  0  -0.150372  0  3.772248  0  0  -0.123674  0  4.024768  0  0  -0.133961  0  4.047546  0  0  -0.033253  -0.117818  0  4.010418  0
C  C47  1  0.97184306  0.77548866  0.79158917  1  0  -0.150318  0  3.772199  0  0  -0.123611  0  4.024695  0  0  -0.1339  0  4.047474  0  0  -0.033236  -0.117754  0  4.010346  0
C  C48  1  0.13541936  0.16119698  0.14024292  1  0  -0.035714  0  3.759744  0  0  -0.066759  0  4.015681  0  0  -0.060894  0  4.032052  0  0  -0.081032  -0.069606  0  4.003508  0
C  C49  1  0.86457905  0.83880912  0.85975694  1  0  -0.035835  0  3.759807  0  0  -0.066888  0  4.015738  0  0  -0.061028  0  4.032119  0  0  -0.081045  -0.069737  0  4.003565  0
C  C50  1  0.29310423  0.18281401  0.17726194  1  0  -0.169516  0  3.698108  0  0  -0.186153  0  3.954573  0  0  -0.193685  0  3.973138  0  0  -0.095223  -0.181839  0  3.941405  0
C  C51  1  0.70689487  0.81718971  0.82273748  1  0  -0.169466  0  3.698128  0  0  -0.186068  0  3.95458  0  0  -0.1936  0  3.973141  0  0  -0.095197  -0.181756  0  3.941419  0
C  C52  1  0.34614850  0.26546017  0.28317985  1  0  0.290814  0  3.792412  0  0  0.274223  0  4.045757  0  0  0.286807  0  4.064866  0  0  0.0964  0.265748  0  4.033056  0
C  C53  1  0.65385035  0.73454235  0.71682009  1  0  0.290867  0  3.79241  0  0  0.274281  0  4.04576  0  0  0.286865  0  4.064869  0  0  0.096429  0.265805  0  4.033062  0
C  C54  1  0.94263955  0.86382896  0.31925907  1  0  -0.014145  0  3.769388  0  0  -0.044759  0  4.03719  0  0  -0.042524  0  4.056194  0  0  -0.008292  -0.046108  0  4.023946  0
C  C55  1  0.05736067  0.13617473  0.68074265  1  0  -0.014162  0  3.769266  0  0  -0.044798  0  4.037052  0  0  -0.042573  0  4.056049  0  0  -0.0083  -0.046121  0  4.023828  0
C  C56  1  0.08376087  0.95201319  0.37270753  1  0  -0.056894  0  3.664841  0  0  -0.099247  0  3.923521  0  0  -0.097762  0  3.943946  0  0  -0.002929  -0.099408  0  3.909017  0
C  C57  1  0.91623981  0.04798695  0.62729201  1  0  -0.056923  0  3.664766  0  0  -0.099283  0  3.923457  0  0  -0.097798  0  3.943887  0  0  -0.002958  -0.099446  0  3.908948  0
C  C58  1  0.03605811  0.71949730  0.40638964  1  0  0.147682  0  3.66166  0  0  0.086808  0  3.929675  0  0  0.099627  0  3.94379  0  0  0.132588  0.078877  0  3.919804  0
C  C59  1  0.96393956  0.28050521  0.59361179  1  0  0.147708  0  3.661656  0  0  0.086833  0  3.929699  0  0  0.099653  0  3.943813  0  0  0.13261  0.078905  0  3.919826  0
C  C60  1  0.28138519  0.90687202  0.50295224  1  0  0.007707  0  3.607001  0  0  -0.053615  0  3.861987  0  0  -0.049219  0  3.873084  0  0  -0.051267  -0.056498  0  3.853858  0
C  C61  1  0.71861338  0.09312927  0.49705050  1  0  0.00772  0  3.60687  0  0  -0.053665  0  3.861954  0  0  -0.049269  0  3.87305  0  0  -0.051324  -0.056578  0  3.853864  0
C  C62  1  0.43150048  0.96613621  0.45673073  1  0  -0.11796  0  3.672449  0  0  -0.158466  0  3.932796  0  0  -0.15935  0  3.944906  0  0  -0.163797  -0.157558  0  3.924006  0
C  C63  1  0.56849923  0.03386507  0.54327280  1  0  -0.11783  0  3.672228  0  0  -0.158292  0  3.932622  0  0  -0.159169  0  3.944734  0  0  -0.163756  -0.157373  0  3.923844  0
C  C64  1  0.57541929  0.70010573  0.13239710  1  0  0.00947  0  3.754832  0  0  -0.02607  0  4.022394  0  0  -0.023684  0  4.042859  0  0  -0.003813  -0.02815  0  4.009165  0
C  C65  1  0.42458184  0.29989085  0.86760102  1  0  0.009538  0  3.754839  0  0  -0.02601  0  4.02239  0  0  -0.023623  0  4.042857  0  0  -0.003809  -0.028089  0  4.009162  0
C  C66  1  0.37533712  0.60361937  0.20731634  1  0  0.152715  0  3.686489  0  0  0.091312  0  3.952043  0  0  0.105035  0  3.966809  0  0  0.133657  0.082461  0  3.941557  0
C  C67  1  0.62466262  0.39637602  0.79268151  1  0  0.152843  0  3.68647  0  0  0.091448  0  3.952028  0  0  0.105173  0  3.966791  0  0  0.13371  0.082598  0  3.941545  0
C  C68  1  0.44240850  0.72953131  0.08760385  1  0  -0.048422  0  3.646496  0  0  -0.088833  0  3.900999  0  0  -0.087495  0  3.919522  0  0  0.008264  -0.089468  0  3.888296  0
C  C69  1  0.55759286  0.27046644  0.91239525  1  0  -0.048592  0  3.646522  0  0  -0.088975  0  3.901033  0  0  -0.087638  0  3.919557  0  0  0.008219  -0.089609  0  3.888329  0
C  C70  1  0.14988997  0.65515862  0.10707112  1  0  -0.003423  0  3.619448  0  0  -0.064209  0  3.876845  0  0  -0.060336  0  3.8883  0  0  -0.053788  -0.06665  0  3.868583  0
C  C71  1  0.85010885  0.34483796  0.89292693  1  0  -0.003604  0  3.619625  0  0  -0.064331  0  3.877004  0  0  -0.060464  0  3.888469  0  0  -0.053815  -0.06677  0  3.868744  0
C  C72  1  0.08632199  0.50497979  0.01667668  1  0  -0.12629  0  3.691786  0  0  -0.166572  0  3.949817  0  0  -0.168175  0  3.963885  0  0  -0.167443  -0.165634  0  3.940601  0
C  C73  1  0.91367683  0.49501679  0.98332138  1  0  -0.126245  0  3.691875  0  0  -0.166604  0  3.949929  0  0  -0.168204  0  3.963998  0  0  -0.167421  -0.165666  0  3.940711  0
S  S74  1  0.82412064  0.19223718  0.16431405  1  0  1.296299  0  5.670667  0  0  1.200447  0  6.190476  0  0  1.249173  0  6.166145  0  0  0.50283  1.166908  0  6.206393  0
S  S75  1  0.17587840  0.80776057  0.83568575  1  0  1.296357  0  5.670763  0  0  1.20049  0  6.190569  0  0  1.249217  0  6.16624  0  0  0.502872  1.166952  0  6.206493  0
N  N76  1  0.50523412  0.29003656  0.32002009  1  0  -0.68704  0  3.170014  0  0  -0.631362  0  3.409509  0  0  -0.654012  0  3.405785  0  0  -0.606906  -0.615513  0  3.411696  0
N  N77  1  0.49476538  0.70996356  0.67998093  1  0  -0.68708  0  3.170028  0  0  -0.631382  0  3.409511  0  0  -0.654032  0  3.405788  0  0  -0.606943  -0.615532  0  3.4117  0
N  N78  1  0.91390615  0.71858222  0.34093635  1  0  -0.407711  0  3.263021  0  0  -0.330771  0  3.547255  0  0  -0.3519  0  3.564487  0  0  -0.369255  -0.316272  0  3.534897  0
N  N79  1  0.08609479  0.28141912  0.65906191  1  0  -0.407677  0  3.263114  0  0  -0.330729  0  3.547342  0  0  -0.351857  0  3.564578  0  0  -0.369246  -0.316228  0  3.534975  0
N  N80  1  0.14124468  0.85891686  0.42704501  1  0  -0.056814  0  3.570294  0  0  0.038143  0  3.788909  0  0  0.023658  0  3.815343  0  0  -0.241405  0.047681  0  3.770838  0
N  N81  1  0.85875599  0.14108327  0.57295529  1  0  -0.056876  0  3.570341  0  0  0.038105  0  3.78897  0  0  0.02362  0  3.815403  0  0  -0.241404  0.047652  0  3.770906  0
N  N82  1  0.53220865  0.62129701  0.20716505  1  0  -0.406743  0  3.275682  0  0  -0.327534  0  3.56542  0  0  -0.349337  0  3.58229  0  0  -0.365232  -0.312699  0  3.553834  0
N  N83  1  0.46779156  0.37870076  0.79283326  1  0  -0.406802  0  3.275729  0  0  -0.327602  0  3.565488  0  0  -0.349401  0  3.582348  0  0  -0.365264  -0.312765  0  3.553901  0
N  N84  1  0.31737911  0.66813152  0.13632368  1  0  -0.050961  0  3.576699  0  0  0.044488  0  3.79324  0  0  0.030229  0  3.819329  0  0  -0.237502  0.054017  0  3.775452  0
N  N85  1  0.68262201  0.33186504  0.86367519  1  0  -0.05093  0  3.576734  0  0  0.044497  0  3.793267  0  0  0.030239  0  3.819359  0  0  -0.23752  0.054026  0  3.77548  0
O  O86  1  0.20716297  0.50994173  0.51911233  1  0  -0.639297  0  1.951188  0  0  -0.57743  0  2.1883  0  0  -0.604421  0  2.179042  0  0  -0.324646  -0.558687  0  2.193976  0
O  O87  1  0.79283704  0.49006079  0.48088764  1  0  -0.639234  0  1.95123  0  0  -0.577388  0  2.188347  0  0  -0.604383  0  2.17909  0  0  -0.324638  -0.558644  0  2.194016  0
O  O88  1  0.38201524  0.35099278  0.51454197  1  0  -0.64212  0  1.94738  0  0  -0.575871  0  2.18234  0  0  -0.603698  0  2.173694  0  0  -0.331195  -0.556547  0  2.187111  0
O  O89  1  0.61798196  0.64900736  0.48545824  1  0  -0.642107  0  1.947416  0  0  -0.575857  0  2.182357  0  0  -0.603666  0  2.173669  0  0  -0.331189  -0.556532  0  2.187127  0
O  O90  1  0.79000491  0.35413611  0.17792636  1  0  -0.71005  0  2.031048  0  0  -0.643952  0  2.31085  0  0  -0.667956  0  2.293624  0  0  -0.364787  -0.627105  0  2.322331  0
O  O91  1  0.20999042  0.64586046  0.82207311  1  0  -0.710066  0  2.03113  0  0  -0.643937  0  2.310912  0  0  -0.667941  0  2.293687  0  0  -0.364788  -0.627081  0  2.322373  0
O  O92  1  0.73663556  0.11173651  0.23475679  1  0  -0.671344  0  1.943605  0  0  -0.623692  0  2.18518  0  0  -0.644418  0  2.172821  0  0  -0.347117  -0.609099  0  2.193165  0
O  O93  1  0.26336348  0.88826125  0.76524225  1  0  -0.67138  0  1.943642  0  0  -0.623724  0  2.185222  0  0  -0.64445  0  2.172867  0  0  -0.347116  -0.609129  0  2.193203  0
O  O94  1  0.80475985  0.09994262  0.05296593  1  0  -0.652067  0  1.942995  0  0  -0.606716  0  2.189227  0  0  -0.62752  0  2.175244  0  0  -0.339854  -0.592092  0  2.198029  0
O  O95  1  0.19524036  0.90005514  0.94703314  1  0  -0.652077  0  1.943016  0  0  -0.606738  0  2.189265  0  0  -0.627541  0  2.175281  0  0  -0.339886  -0.592111  0  2.198065  0
