# generated using pymatgen
data_Co3H22(C15O8)2
_symmetry_space_group_name_H-M   'P 1'
_cell_length_a   7.22424483
_cell_length_b   13.76241500
_cell_length_c   17.46091569
_cell_angle_alpha   90.00014194
_cell_angle_beta   90.00070415
_cell_angle_gamma   96.96855446
_symmetry_Int_Tables_number   1
_chemical_formula_structural   Co3H22(C15O8)2
_chemical_formula_sum   'Co6 H44 C60 O32'
_cell_volume   1723.19342995
_cell_formula_units_Z   2
loop_
 _symmetry_equiv_pos_site_id
 _symmetry_equiv_pos_as_xyz
  1  'x, y, z'
loop_
 _atom_site_type_symbol
 _atom_site_label
 _atom_site_symmetry_multiplicity
 _atom_site_fract_x
 _atom_site_fract_y
 _atom_site_fract_z
 _atom_site_occupancy
 _atom_site_pbe_bader_charge
 _atom_site_pbe_bader_spin_density
 _atom_site_pbe_cm5_charge
 _atom_site_pbe_ddec_charge
 _atom_site_pbe_ddec_spin_density
 _atom_site_pbe_ddec_sum_bond_order
 _atom_site_pbe_magmom
Co  Co0  1  0.00814222  0.68139133  0.61303556  1  1.299139  2.6161  0.634157  0.998703  2.82134  2.290847  2.593
Co  Co1  1  0.99185780  0.31860896  0.11303871  1  1.299183  2.616108  0.634173  0.998844  2.821343  2.290634  2.593
Co  Co2  1  0.28585357  0.49777279  0.55538905  1  1.299978  2.562661  0.634863  1.025579  2.76968  2.347068  2.549
Co  Co3  1  0.71414149  0.50222579  0.05538944  1  1.299985  2.56265  0.634887  1.025571  2.769668  2.347025  2.549
Co  Co4  1  0.58545996  0.34567165  0.49969040  1  1.295331  2.61876  0.656017  1.029788  2.812335  2.307231  2.581
Co  Co5  1  0.41453697  0.65432644  0.99968582  1  1.29538  2.618761  0.656046  1.029859  2.812336  2.307207  2.581
H  H6  1  0.91930090  0.50555665  0.82100502  1  0.110418  0.000364  0.110718  0.123057  5.6e-05  0.991254  0.0
H  H7  1  0.08069257  0.49445227  0.32100792  1  0.109975  0.000364  0.110692  0.12304  5.6e-05  0.991349  0.0
H  H8  1  0.01703213  0.21975089  0.89826816  1  0.086027  0.000187  0.110848  0.116765  -5e-06  1.004224  0.0
H  H9  1  0.98295844  0.78025925  0.39826589  1  0.08589  0.000187  0.110836  0.116636  -5e-06  1.00432  0.0
H  H10  1  0.03022315  0.28742255  0.65711138  1  0.093576  0.000115  0.105485  0.103306  -0.00014  1.024159  0.0
H  H11  1  0.96979990  0.71258566  0.15710833  1  0.093713  0.000115  0.105507  0.103287  -0.00014  1.024132  0.0
H  H12  1  0.91285581  0.07322298  0.85673981  1  0.072487  4.3e-05  0.095189  0.094639  2.1e-05  1.06866  0.0
H  H13  1  0.08714982  0.92677195  0.35674017  1  0.072325  4.3e-05  0.095193  0.094573  2.1e-05  1.068785  0.0
H  H14  1  0.92766997  0.90206452  0.81714425  1  0.099681  0.000525  0.10419  0.108672  0.000326  1.004286  0.0
H  H15  1  0.07231622  0.09793422  0.31715490  1  0.099632  0.000525  0.104223  0.108671  0.000326  1.004212  0.0
H  H16  1  0.21837912  0.00376472  0.61244266  1  0.046341  0.000633  0.101465  0.102653  0.00035  1.048666  0.0
H  H17  1  0.78164298  0.99624472  0.11243923  1  0.04638  0.000634  0.101465  0.102735  0.00035  1.048612  0.0
H  H18  1  0.20239371  0.17449460  0.64971461  1  0.078029  3.6e-05  0.098532  0.103132  -5.5e-05  1.02715  0.0
H  H19  1  0.79762984  0.82551135  0.14970347  1  0.077636  3.6e-05  0.098481  0.103147  -5.5e-05  1.027014  0.0
H  H20  1  0.22888146  0.97883720  0.51211846  1  0.0907  0.00027  0.104097  0.107424  0.000131  1.042249  0.0
H  H21  1  0.77111763  0.02115592  0.01211760  1  0.090651  0.00027  0.104113  0.107444  0.000131  1.04236  0.0
H  H22  1  0.28454971  0.81607688  0.46799303  1  0.067235  0.000149  0.102506  0.109082  -0.000134  1.023149  0.0
H  H23  1  0.71545566  0.18392015  0.96799590  1  0.067206  0.000149  0.102545  0.109189  -0.000134  1.023179  0.0
H  H24  1  0.60926754  0.94749561  0.27874446  1  0.078902  3e-06  0.095579  0.094473  -3.9e-05  1.064487  0.0
H  H25  1  0.39075777  0.05250809  0.77873454  1  0.078845  3e-06  0.095601  0.094491  -3.9e-05  1.064478  0.0
H  H26  1  0.57574893  0.11191735  0.33078319  1  0.086234  0.000325  0.106907  0.111658  0.000112  0.99014  0.0
H  H27  1  0.42426654  0.88808534  0.83077168  1  0.086088  0.000325  0.106957  0.111709  0.000112  0.990082  0.0
H  H28  1  0.52649633  0.72234622  0.45990348  1  0.078877  4.9e-05  0.10877  0.114212  -0.000179  0.999653  0.0
H  H29  1  0.47350401  0.27764865  0.95990474  1  0.078642  4.9e-05  0.108758  0.114244  -0.000179  0.999638  0.0
H  H30  1  0.57668976  0.50758093  0.28559581  1  0.118766  0.00058  0.105418  0.11246  0.000169  1.0096  0.0
H  H31  1  0.42331772  0.49241798  0.78560069  1  0.118781  0.00058  0.105382  0.112341  0.000169  1.009673  0.0
H  H32  1  0.44965203  0.79452161  0.22258304  1  0.106675  0.000296  0.110909  0.118763  7.3e-05  0.989882  0.0
H  H33  1  0.55036400  0.20547974  0.72258398  1  0.10671  0.000296  0.110857  0.118724  7.3e-05  0.989805  0.0
H  H34  1  0.32246653  0.62011409  0.67379485  1  0.652381  4.4e-05  0.342705  0.42777  -0.000273  0.839819  0.0
H  H35  1  0.67753502  0.37988063  0.17379424  1  0.652428  4.4e-05  0.342687  0.427752  -0.000273  0.839841  0.0
H  H36  1  0.40965663  0.69213934  0.61066501  1  0.639249  0.001653  0.333683  0.42714  0.001046  0.853821  0.001
H  H37  1  0.59035951  0.30785476  0.11066095  1  0.639053  0.001653  0.333669  0.427102  0.001046  0.853866  0.001
H  H38  1  0.69032124  0.64367571  0.65894378  1  0.622488  -9.4e-05  0.325002  0.407787  -0.00041  0.869444  0.0
H  H39  1  0.30968399  0.35631885  0.15894870  1  0.62246  -9.5e-05  0.325029  0.40785  -0.00041  0.869458  0.0
H  H40  1  0.65909038  0.62852084  0.56993690  1  0.658362  4e-06  0.297155  0.397257  -0.000209  0.941173  0.0
H  H41  1  0.34090637  0.37147264  0.06994144  1  0.658415  4e-06  0.297132  0.397187  -0.000209  0.941262  0.0
H  H42  1  0.93549168  0.36636934  0.54324286  1  0.65646  0.000474  0.29954  0.401333  0.00039  0.936629  0.001
H  H43  1  0.06449668  0.63363592  0.04323679  1  0.656103  0.000476  0.29962  0.401463  0.000391  0.936439  0.001
H  H44  1  0.88567897  0.25951454  0.50602350  1  0.651297  0.001054  0.337818  0.4235  0.000513  0.845318  0.001
H  H45  1  0.11431736  0.74049331  0.00602133  1  0.651171  0.001055  0.33783  0.423465  0.000514  0.845456  0.001
H  H46  1  0.23090934  0.37545741  0.44474052  1  0.648938  -0.000139  0.331274  0.423043  -0.000339  0.846571  0.0
H  H47  1  0.76907749  0.62453540  0.94474111  1  0.648601  -0.00014  0.331285  0.423063  -0.000339  0.846624  0.0
H  H48  1  0.25061968  0.28113979  0.49956120  1  0.622348  0.001335  0.286069  0.377971  0.000774  0.975113  0.003
H  H49  1  0.74937203  0.71885472  0.99955959  1  0.622447  0.001334  0.286086  0.378015  0.000774  0.975079  0.003
C  C50  1  0.97935757  0.40392039  0.73281096  1  -0.000675  0.006703  -0.023522  -0.049528  0.003438  4.010802  0.005
C  C51  1  0.02063704  0.59607772  0.23281261  1  -0.000596  0.006702  -0.023503  -0.049418  0.003438  4.010788  0.005
C  C52  1  0.94807045  0.43146157  0.80839228  1  0.034909  0.0014  -0.069972  -0.086628  0.000566  3.905646  0.001
C  C53  1  0.05191858  0.56854294  0.30839289  1  0.035435  0.0014  -0.069917  -0.086575  0.000566  3.905547  0.001
C  C54  1  0.96035556  0.36400598  0.86740576  1  -0.005598  0.008898  -0.016858  -0.04137  0.004496  3.986886  0.007
C  C55  1  0.03962905  0.63600115  0.36740644  1  -0.006554  0.008898  -0.016848  -0.041324  0.004496  3.986505  0.007
C  C56  1  0.00194732  0.26948168  0.85079815  1  -0.076858  0.001081  -0.067722  -0.115638  0.000461  3.897382  0.001
C  C57  1  0.99804367  0.73052525  0.35079529  1  -0.076326  0.00108  -0.06774  -0.115505  0.00046  3.897482  0.001
C  C58  1  0.02256503  0.23896201  0.77492415  1  0.038703  0.000759  -0.003678  0.065931  0.000304  3.992561  0.001
C  C59  1  0.97743704  0.76103840  0.27492467  1  0.038922  0.000759  -0.003669  0.065845  0.000304  3.992611  0.001
C  C60  1  0.01225042  0.30805473  0.71656356  1  -0.065077  -0.000833  -0.073109  -0.116544  -0.001402  3.908638  0.0
C  C61  1  0.98775260  0.69194535  0.21655942  1  -0.065172  -0.000833  -0.073142  -0.116623  -0.001402  3.908484  0.0
C  C62  1  0.04986388  0.13727752  0.75535698  1  -0.036246  -0.002277  -0.005376  0.067781  -0.002606  3.991568  -0.001
C  C63  1  0.95014576  0.86272706  0.25535471  1  -0.060863  -0.002278  -0.005403  0.067825  -0.002606  3.991517  -0.001
C  C64  1  0.98051364  0.05881215  0.80299250  1  -0.083877  0.001148  -0.089438  -0.126767  0.000446  3.960521  0.001
C  C65  1  0.01949038  0.94119207  0.30299312  1  -0.059073  0.001148  -0.089449  -0.126724  0.000446  3.960729  0.001
C  C66  1  0.98783355  0.96226506  0.78090925  1  -0.01305  -0.000975  -0.078106  -0.077895  -0.001393  3.956549  0.0
C  C67  1  0.01216363  0.03773695  0.28091489  1  -0.01313  -0.000975  -0.078065  -0.077803  -0.001393  3.956376  0.0
C  C68  1  0.06822971  0.94167123  0.71063338  1  0.019388  0.002424  -0.01836  -0.031777  0.001288  3.981178  0.001
C  C69  1  0.93177304  0.05833323  0.21063742  1  0.019523  0.002424  -0.018384  -0.031849  0.001288  3.981235  0.001
C  C70  1  0.14877911  0.01965782  0.66525359  1  -0.084004  -0.000469  -0.084148  -0.086804  -0.00087  3.976367  0.0
C  C71  1  0.85123666  0.98034836  0.16525106  1  -0.084041  -0.00047  -0.084227  -0.087038  -0.00087  3.976242  0.0
C  C72  1  0.13907001  0.11598573  0.68679320  1  0.006862  0.000925  -0.093249  -0.139083  0.000322  3.98727  0.001
C  C73  1  0.86094345  0.88401987  0.18678880  1  0.007374  0.000925  -0.093103  -0.13891  0.000322  3.986884  0.001
C  C74  1  0.98956801  0.47746074  0.67030575  1  1.50051  0.011455  0.221947  0.596186  0.007551  4.145788  0.008
C  C75  1  0.01043414  0.52254571  0.17030491  1  1.500414  0.011456  0.221973  0.596206  0.007552  4.145769  0.008
C  C76  1  0.92684833  0.39219967  0.94847877  1  1.535859  -0.004806  0.22379  0.605493  -0.006566  4.152379  -0.003
C  C77  1  0.07313772  0.60780421  0.44847613  1  1.535996  -0.004805  0.223736  0.605459  -0.006565  4.151989  -0.003
C  C78  1  0.05699707  0.83983595  0.68149102  1  1.519004  -0.006369  0.190834  0.546421  -0.00939  4.219738  -0.008
C  C79  1  0.94300000  0.16016624  0.18150162  1  1.518145  -0.006368  0.190826  0.546526  -0.009388  4.219846  -0.008
C  C80  1  0.40222853  0.05669945  0.42564427  1  -0.078682  0.006359  -0.016469  -0.037852  0.003392  3.97652  0.005
C  C81  1  0.59776386  0.94329536  0.92563776  1  -0.07932  0.00636  -0.016455  -0.037717  0.003392  3.976207  0.005
C  C82  1  0.31815206  0.97253705  0.46276159  1  -0.047312  0.001763  -0.082192  -0.090579  0.000883  3.975367  0.001
C  C83  1  0.68185164  0.02745483  0.96276169  1  -0.04726  0.001763  -0.08213  -0.090581  0.000883  3.975042  0.001
C  C84  1  0.34861507  0.88024006  0.43697026  1  -0.019583  0.000585  -0.0905  -0.137432  0.000266  3.976422  0.0
C  C85  1  0.65138651  0.11976127  0.93697153  1  -0.019497  0.000586  -0.090533  -0.137533  0.000266  3.97643  0.0
C  C86  1  0.45313642  0.86959461  0.37020253  1  -0.036182  0.000756  -0.003938  0.070042  0.000383  3.989588  0.0
C  C87  1  0.54686731  0.13040190  0.87019986  1  -0.03629  0.000756  -0.003983  0.069923  0.000382  3.989689  0.0
C  C88  1  0.52820538  0.95421627  0.33067453  1  0.04237  0.000156  -0.088323  -0.125032  2.6e-05  3.964283  0.0
C  C89  1  0.47180741  0.04578206  0.83067016  1  0.0424  0.000156  -0.088363  -0.125097  2.6e-05  3.964527  0.0
C  C90  1  0.50837056  0.04667435  0.35943724  1  -0.049916  0.000886  -0.079732  -0.081327  0.000445  3.961489  0.0
C  C91  1  0.49163826  0.95332642  0.85943021  1  -0.049388  0.000885  -0.079799  -0.08134  0.000445  3.961566  0.0
C  C92  1  0.48588444  0.77083221  0.34434763  1  -0.007205  0.000641  -0.000419  0.068269  0.000233  3.986988  0.001
C  C93  1  0.51411479  0.22916571  0.84434499  1  -0.006948  0.000641  -0.000445  0.068318  0.000233  3.986898  0.001
C  C94  1  0.52115221  0.70166685  0.39967178  1  -0.010737  -0.001998  -0.070482  -0.113728  -0.002597  3.893477  -0.001
C  C95  1  0.47883504  0.29832718  0.89967426  1  -0.010419  -0.001999  -0.070533  -0.113898  -0.002597  3.893491  -0.001
C  C96  1  0.55132109  0.60680465  0.37890424  1  0.018408  0.00537  -0.018692  -0.039921  0.002478  4.01373  0.004
C  C97  1  0.44866073  0.39318715  0.87890561  1  0.01821  0.00537  -0.018621  -0.039914  0.002478  4.013865  0.004
C  C98  1  0.55129880  0.58102040  0.30168776  1  -0.060745  0.003167  -0.071881  -0.088935  0.001605  3.922427  0.002
C  C99  1  0.44868722  0.41897458  0.80169147  1  -0.060669  0.003167  -0.071871  -0.088816  0.001605  3.922369  0.002
C  C100  1  0.51558542  0.64865659  0.24543238  1  0.044251  0.008638  -0.017116  -0.042465  0.004429  3.979829  0.007
C  C101  1  0.48441125  0.35133787  0.74543328  1  0.044646  0.008638  -0.017124  -0.042489  0.004429  3.979824  0.007
C  C102  1  0.48122398  0.74306301  0.26679038  1  -0.088563  0.001477  -0.065875  -0.111919  0.000623  3.879285  0.001
C  C103  1  0.51877349  0.25693671  0.76679240  1  -0.08884  0.001476  -0.065797  -0.111788  0.000623  3.879261  0.001
C  C104  1  0.38755998  0.15580235  0.45817699  1  1.535053  0.00094  0.221757  0.5935  0.000269  4.153234  0.0
C  C105  1  0.61243734  0.84419182  0.95817093  1  1.534546  0.000937  0.221646  0.593303  0.000269  4.153485  0.0
C  C106  1  0.57083459  0.53218965  0.43838334  1  1.496025  0.004267  0.221844  0.596143  0.002544  4.138792  0.003
C  C107  1  0.42914515  0.46780326  0.93838533  1  1.495601  0.004267  0.22175  0.596115  0.002544  4.138711  0.003
C  C108  1  0.51811152  0.61683980  0.16357869  1  1.53902  -0.00161  0.220681  0.603155  -0.00278  4.142953  -0.001
C  C109  1  0.48190268  0.38316125  0.66358078  1  1.538484  -0.001608  0.220769  0.603443  -0.00278  4.142942  -0.001
O  O110  1  0.96409863  0.56487792  0.68652084  1  -1.150449  0.076804  -0.303201  -0.548423  0.039311  2.345899  0.062
O  O111  1  0.03590910  0.43512705  0.18652225  1  -1.150364  0.076819  -0.303283  -0.5486  0.039319  2.345771  0.062
O  O112  1  0.30188116  0.64361854  0.62206672  1  -1.224827  0.07004  -0.528172  -0.771352  0.036553  2.284978  0.059
O  O113  1  0.69812423  0.35638023  0.12206445  1  -1.224675  0.070042  -0.528151  -0.771335  0.036555  2.2851  0.059
O  O114  1  0.03304438  0.45098654  0.60222955  1  -1.189399  0.063252  -0.322569  -0.611385  0.032336  2.452222  0.048
O  O115  1  0.96695720  0.54901072  0.10222902  1  -1.189495  0.063247  -0.32257  -0.611376  0.032333  2.452273  0.048
O  O116  1  0.70798349  0.67756581  0.60988343  1  -1.229234  0.051669  -0.557575  -0.745023  0.026779  2.072997  0.041
O  O117  1  0.29201428  0.32242714  0.10988762  1  -1.229266  0.051668  -0.557586  -0.74503  0.026779  2.07304  0.041
O  O118  1  0.83833225  0.46608482  0.95882516  1  -1.155413  0.059324  -0.316451  -0.575391  0.030605  2.4014  0.051
O  O119  1  0.16165687  0.53391906  0.45882339  1  -1.155181  0.059325  -0.316411  -0.575359  0.030606  2.401123  0.051
O  O120  1  0.86305467  0.32765739  0.50227056  1  -1.241141  0.060082  -0.559228  -0.74688  0.030939  2.129663  0.046
O  O121  1  0.13694748  0.67235180  0.00226952  1  -1.240644  0.060074  -0.559317  -0.746966  0.030937  2.12965  0.046
O  O122  1  0.98648616  0.33991699  0.00108640  1  -1.175775  0.075004  -0.315507  -0.571306  0.039271  2.401595  0.061
O  O123  1  0.01349322  0.66008083  0.50108610  1  -1.175885  0.07501  -0.31552  -0.571285  0.039274  2.401373  0.061
O  O124  1  0.28014429  0.35837226  0.49441099  1  -1.242705  0.088746  -0.552215  -0.821618  0.045417  2.327416  0.078
O  O125  1  0.71984494  0.64162373  0.99441080  1  -1.242481  0.088751  -0.552241  -0.82169  0.04542  2.327485  0.078
O  O126  1  0.97404061  0.76796776  0.71871698  1  -1.142955  0.078604  -0.32452  -0.545763  0.039124  2.132356  0.069
O  O127  1  0.02594796  0.23203480  0.21872995  1  -1.142625  0.078599  -0.324479  -0.545837  0.039123  2.132354  0.069
O  O128  1  0.12501851  0.82380860  0.61466192  1  -1.13036  0.106314  -0.32893  -0.56129  0.054079  2.209273  0.09
O  O129  1  0.87499505  0.17619513  0.11466992  1  -1.130108  0.106325  -0.328968  -0.561336  0.054083  2.20929  0.09
O  O130  1  0.53468692  0.21783537  0.44986973  1  -1.139563  0.101116  -0.322595  -0.569897  0.050534  2.326385  0.083
O  O131  1  0.46530622  0.78215957  0.94985879  1  -1.139167  0.101123  -0.322488  -0.569791  0.050536  2.326443  0.083
O  O132  1  0.24009833  0.17411845  0.49239707  1  -1.160801  0.011419  -0.318244  -0.537301  0.005235  2.137729  0.01
O  O133  1  0.75990027  0.82587663  0.99239114  1  -1.160477  0.011417  -0.318271  -0.537327  0.005234  2.137841  0.01
O  O134  1  0.54191618  0.55294839  0.50945459  1  -1.192863  0.060942  -0.327013  -0.638032  0.031932  2.443313  0.046
O  O135  1  0.45806462  0.44704872  0.00945587  1  -1.192497  0.060935  -0.327026  -0.637916  0.031927  2.443167  0.046
O  O136  1  0.60519491  0.44736583  0.41859572  1  -1.123763  0.09942  -0.296231  -0.518833  0.050553  2.31106  0.08
O  O137  1  0.39478030  0.55262779  0.91859656  1  -1.123745  0.099428  -0.296149  -0.518892  0.050557  2.311119  0.08
O  O138  1  0.58251911  0.53559996  0.15092422  1  -1.172497  0.053906  -0.328257  -0.605293  0.028117  2.422648  0.044
O  O139  1  0.41748833  0.46439820  0.65092271  1  -1.172393  0.053907  -0.328279  -0.605413  0.028117  2.42253  0.044
O  O140  1  0.45827671  0.67067361  0.11178119  1  -1.154179  0.087454  -0.309889  -0.564108  0.044837  2.353502  0.07
O  O141  1  0.54175118  0.32933205  0.61178577  1  -1.154056  0.087458  -0.309908  -0.564237  0.04484  2.353662  0.07
