# generated using pymatgen
data_Zn3H52C64(N2O9)2
_symmetry_space_group_name_H-M   'P 1'
_cell_length_a   8.99636320
_cell_length_b   12.32419386
_cell_length_c   15.90750575
_cell_angle_alpha   76.97646625
_cell_angle_beta   76.06249541
_cell_angle_gamma   79.05467484
_symmetry_Int_Tables_number   1
_chemical_formula_structural   Zn3H52C64(N2O9)2
_chemical_formula_sum   'Zn3 H52 C64 N4 O18'
_cell_volume   1650.51968867
_cell_formula_units_Z   1
loop_
 _symmetry_equiv_pos_site_id
 _symmetry_equiv_pos_as_xyz
  1  'x, y, z'
loop_
 _atom_site_type_symbol
 _atom_site_label
 _atom_site_symmetry_multiplicity
 _atom_site_fract_x
 _atom_site_fract_y
 _atom_site_fract_z
 _atom_site_occupancy
 _atom_site_hle17_bader_spin_density
 _atom_site_hle17_ddec_charge
 _atom_site_hle17_ddec_spin_density
 _atom_site_hle17_ddec_sum_bond_order
 _atom_site_hle17_magmom
 _atom_site_hse06_10hf_bader_spin_density
 _atom_site_hse06_10hf_ddec_charge
 _atom_site_hse06_10hf_ddec_spin_density
 _atom_site_hse06_10hf_ddec_sum_bond_order
 _atom_site_hse06_10hf_magmom
 _atom_site_hse06_bader_spin_density
 _atom_site_hse06_ddec_charge
 _atom_site_hse06_ddec_spin_density
 _atom_site_hse06_ddec_sum_bond_order
 _atom_site_hse06_magmom
 _atom_site_pbe_bader_spin_density
 _atom_site_pbe_cm5_charge
 _atom_site_pbe_ddec_charge
 _atom_site_pbe_ddec_spin_density
 _atom_site_pbe_ddec_sum_bond_order
 _atom_site_pbe_magmom
Zn  Zn0  1  0.99999975  0.49999994  0.50000031  1  0  1.226074  0  1.705449  0  0  1.063359  0  2.165963  0  0  1.115181  0  2.098584  0  0  0.689629  1.026361  0  2.212746  0
Zn  Zn1  1  0.65767028  0.64516349  0.56170619  1  0  1.071795  0  1.813641  0  0  0.891268  0  2.28286  0  0  0.941248  0  2.221113  0  0  0.694636  0.856214  0  2.325432  0
Zn  Zn2  1  0.34233085  0.35483668  0.43829382  1  0  1.071817  0  1.81361  0  0  0.891285  0  2.282821  0  0  0.941265  0  2.221074  0  0  0.694636  0.85623  0  2.325392  0
H  H3  1  0.26555631  0.02636379  0.85545530  1  0  0.062658  0  0.954048  0  0  0.071761  0  1.025624  0  0  0.072176  0  1.025556  0  0  0.101321  0.071395  0  1.025798  0
H  H4  1  0.73444024  0.97363640  0.14454533  1  0  0.06265  0  0.954041  0  0  0.071758  0  1.025624  0  0  0.072184  0  1.025543  0  0  0.10132  0.071393  0  1.025795  0
H  H5  1  0.37921498  0.04338291  0.92823828  1  0  0.044491  0  0.947588  0  0  0.058185  0  1.014402  0  0  0.058525  0  1.013551  0  0  0.097127  0.057898  0  1.01506  0
H  H6  1  0.62078174  0.95661644  0.07176310  1  0  0.044495  0  0.947545  0  0  0.058189  0  1.014371  0  0  0.058527  0  1.013522  0  0  0.097133  0.057902  0  1.015029  0
H  H7  1  0.89140697  0.89836690  0.83421061  1  0  0.10442  0  0.951051  0  0  0.116331  0  1.010784  0  0  0.120022  0  1.008829  0  0  0.10175  0.113658  0  1.012351  0
H  H8  1  0.10859416  0.10163327  0.16578751  1  0  0.104384  0  0.951088  0  0  0.1163  0  1.01082  0  0  0.119991  0  1.008865  0  0  0.101754  0.113628  0  1.012387  0
H  H9  1  0.27007451  0.92165242  0.05668677  1  0  0.054038  0  0.92311  0  0  0.068694  0  0.984851  0  0  0.068708  0  0.984901  0  0  0.101325  0.068659  0  0.984871  0
H  H10  1  0.72992318  0.07834776  0.94331308  1  0  0.054036  0  0.923104  0  0  0.068692  0  0.984851  0  0  0.068705  0  0.984901  0  0  0.10132  0.068658  0  0.98487  0
H  H11  1  0.12562415  0.92746032  0.99463033  1  0  0.055105  0  0.93127  0  0  0.064522  0  1.002063  0  0  0.065585  0  1.00021  0  0  0.099869  0.063711  0  1.003467  0
H  H12  1  0.87437453  0.07254070  0.00536861  1  0  0.055133  0  0.931243  0  0  0.064555  0  1.002032  0  0  0.065617  0  1.000178  0  0  0.099899  0.063744  0  1.003435  0
H  H13  1  0.96480452  0.55386870  0.30395636  1  0  0.102927  0  0.991781  0  0  0.110793  0  1.056474  0  0  0.113227  0  1.055242  0  0  0.103495  0.10903  0  1.057362  0
H  H14  1  0.03519630  0.44613315  0.69604529  1  0  0.10294  0  0.99174  0  0  0.110858  0  1.056391  0  0  0.113295  0  1.055152  0  0  0.103491  0.109095  0  1.057283  0
H  H15  1  0.77022220  0.81486047  0.74264732  1  0  0.095619  0  0.954972  0  0  0.103781  0  1.021776  0  0  0.107683  0  1.017601  0  0  0.102666  0.100938  0  1.024827  0
H  H16  1  0.22977909  0.18513886  0.25735093  1  0  0.095588  0  0.955017  0  0  0.103769  0  1.021794  0  0  0.107673  0  1.017617  0  0  0.102655  0.100926  0  1.024845  0
H  H17  1  0.41829540  0.37941300  0.73270812  1  0  0.100087  0  0.935568  0  0  0.111407  0  0.991985  0  0  0.114689  0  0.989336  0  0  0.104463  0.109026  0  0.993908  0
H  H18  1  0.58170427  0.62058886  0.26729116  1  0  0.100091  0  0.935561  0  0  0.111415  0  0.991973  0  0  0.114693  0  0.989323  0  0  0.104478  0.109034  0  0.993896  0
H  H19  1  0.32997972  0.20138447  0.81907269  1  0  0.103149  0  0.970658  0  0  0.114573  0  1.029821  0  0  0.117216  0  1.030119  0  0  0.101366  0.112708  0  1.029721  0
H  H20  1  0.67001750  0.79861824  0.18092741  1  0  0.103154  0  0.970654  0  0  0.11458  0  1.029815  0  0  0.117222  0  1.030115  0  0  0.101375  0.112716  0  1.029717  0
H  H21  1  0.50209055  0.72845392  0.99728700  1  0  0.115058  0  0.936344  0  0  0.136268  0  0.992496  0  0  0.137844  0  0.992484  0  0  0.094654  0.135114  0  0.992523  0
H  H22  1  0.49790961  0.27154542  0.00271266  1  0  0.115081  0  0.936346  0  0  0.136303  0  0.992486  0  0  0.137878  0  0.992473  0  0  0.094665  0.135149  0  0.992514  0
H  H23  1  0.54863322  0.86199048  0.99718693  1  0  0.093927  0  0.967475  0  0  0.113477  0  1.035166  0  0  0.114622  0  1.035155  0  0  0.08366  0.11262  0  1.035197  0
H  H24  1  0.45136563  0.13800969  0.00281213  1  0  0.093931  0  0.967475  0  0  0.113473  0  1.035183  0  0  0.114612  0  1.035177  0  0  0.083639  0.112616  0  1.035214  0
H  H25  1  0.60774210  0.80493599  0.89925093  1  0  0.111296  0  0.959504  0  0  0.130758  0  1.022696  0  0  0.131769  0  1.023295  0  0  0.091271  0.130023  0  1.022248  0
H  H26  1  0.39225544  0.19506503  0.10074879  1  0  0.111308  0  0.959493  0  0  0.130794  0  1.022654  0  0  0.131806  0  1.023251  0  0  0.091277  0.130059  0  1.022205  0
H  H27  1  0.40596866  0.80449955  0.81006717  1  0  0.064776  0  0.930133  0  0  0.075785  0  0.99787  0  0  0.076062  0  0.99746  0  0  0.10517  0.075583  0  0.99816  0
H  H28  1  0.59403264  0.19549978  0.18993296  1  0  0.064798  0  0.930183  0  0  0.075823  0  0.997903  0  0  0.076101  0  0.997491  0  0  0.105183  0.075621  0  0.998193  0
H  H29  1  0.32292127  0.71157768  0.90712774  1  0  0.068228  0  0.912133  0  0  0.080778  0  0.97231  0  0  0.081662  0  0.970911  0  0  0.107593  0.080123  0  0.973332  0
H  H30  1  0.67707872  0.28842249  0.09287242  1  0  0.068244  0  0.912111  0  0  0.080787  0  0.972295  0  0  0.081671  0  0.970895  0  0  0.107593  0.080132  0  0.973317  0
H  H31  1  0.31503423  0.67209654  0.77127364  1  0  0.111748  0  0.954413  0  0  0.123377  0  1.011653  0  0  0.126772  0  1.010357  0  0  0.107299  0.120986  0  1.012662  0
H  H32  1  0.68496690  0.32790363  0.22872448  1  0  0.11178  0  0.954408  0  0  0.123405  0  1.011643  0  0  0.126799  0  1.010348  0  0  0.107303  0.121013  0  1.012652  0
H  H33  1  0.76331818  0.01711415  0.70593290  1  0  0.108519  0  0.959128  0  0  0.11896  0  1.021404  0  0  0.121793  0  1.021013  0  0  0.102071  0.11697  0  1.021751  0
H  H34  1  0.23667837  0.98288604  0.29406962  1  0  0.108512  0  0.959169  0  0  0.11899  0  1.021386  0  0  0.121823  0  1.020996  0  0  0.102091  0.117  0  1.021735  0
H  H35  1  0.85333647  0.19852157  0.62511692  1  0  0.090626  0  0.980658  0  0  0.099452  0  1.047064  0  0  0.101765  0  1.046148  0  0  0.098818  0.097782  0  1.047764  0
H  H36  1  0.14666253  0.80147776  0.37488478  1  0  0.090582  0  0.980744  0  0  0.099437  0  1.047109  0  0  0.101747  0  1.046199  0  0  0.098821  0.097766  0  1.047809  0
H  H37  1  0.32735601  0.02259546  0.61133727  1  0  0.138065  0  0.990333  0  0  0.145928  0  1.051385  0  0  0.15015  0  1.047611  0  0  0.125332  0.142798  0  1.054278  0
H  H38  1  0.67264660  0.97740302  0.38866472  1  0  0.138088  0  0.9903  0  0  0.14593  0  1.051381  0  0  0.15016  0  1.047602  0  0  0.125329  0.142798  0  1.054281  0
H  H39  1  0.05784176  0.79139797  0.52721977  1  0  0.111317  0  0.968685  0  0  0.120533  0  1.031571  0  0  0.123169  0  1.030317  0  0  0.110515  0.118566  0  1.032676  0
H  H40  1  0.94216215  0.20859967  0.47278030  1  0  0.11134  0  0.968696  0  0  0.120566  0  1.031559  0  0  0.123206  0  1.0303  0  0  0.110513  0.118601  0  1.032666  0
H  H41  1  0.31228951  0.73516259  0.50927608  1  0  0.105416  0  0.934459  0  0  0.116398  0  0.994496  0  0  0.118256  0  0.992266  0  0  0.143827  0.11496  0  0.996192  0
H  H42  1  0.68771392  0.26483758  0.49072298  1  0  0.105465  0  0.934436  0  0  0.116406  0  0.994519  0  0  0.118264  0  0.99229  0  0  0.143842  0.114969  0  0.996215  0
H  H43  1  0.03577582  0.94033376  0.13841378  1  0  0.096215  0  0.989404  0  0  0.101392  0  1.063193  0  0  0.105321  0  1.060704  0  0  0.096601  0.09863  0  1.065023  0
H  H44  1  0.96422302  0.05966642  0.86158529  1  0  0.096233  0  0.989362  0  0  0.101412  0  1.063152  0  0  0.105341  0  1.060661  0  0  0.096613  0.098649  0  1.064981  0
H  H45  1  0.86204880  0.91226488  0.28407482  1  0  0.092396  0  0.952034  0  0  0.101355  0  1.015472  0  0  0.104681  0  1.012878  0  0  0.102141  0.098942  0  1.017377  0
H  H46  1  0.13795316  0.08773697  0.71592604  1  0  0.092405  0  0.952044  0  0  0.101363  0  1.015478  0  0  0.104689  0  1.012882  0  0  0.102142  0.098949  0  1.017384  0
H  H47  1  0.57584189  0.85839214  0.64374315  1  0  0.112896  0  0.956384  0  0  0.122436  0  1.016717  0  0  0.125388  0  1.014627  0  0  0.121133  0.120224  0  1.018426  0
H  H48  1  0.42415989  0.14160467  0.35625736  1  0  0.112876  0  0.956393  0  0  0.122414  0  1.016732  0  0  0.125365  0  1.014642  0  0  0.121123  0.120201  0  1.018439  0
H  H49  1  0.19443595  0.59385689  0.67867322  1  0  0.108531  0  0.935202  0  0  0.119833  0  0.992415  0  0  0.123233  0  0.989351  0  0  0.110375  0.117329  0  0.994708  0
H  H50  1  0.80556404  0.40614328  0.32132506  1  0  0.108475  0  0.935273  0  0  0.119755  0  0.992506  0  0  0.123153  0  0.989444  0  0  0.110354  0.117252  0  0.994795  0
H  H51  1  0.18500653  0.11497554  0.51851223  1  0  0.120479  0  0.987696  0  0  0.129117  0  1.049631  0  0  0.132371  0  1.048262  0  0  0.109797  0.126791  0  1.050658  0
H  H52  1  0.81499509  0.88502210  0.48148753  1  0  0.120466  0  0.987733  0  0  0.129116  0  1.049663  0  0  0.132367  0  1.048302  0  0  0.109798  0.126789  0  1.05069  0
H  H53  1  0.13966217  0.58000883  0.15486891  1  0  0.114511  0  0.929652  0  0  0.1266  0  0.982729  0  0  0.130602  0  0.981109  0  0  0.107283  0.123732  0  0.984039  0
H  H54  1  0.86033652  0.41999219  0.84513191  1  0  0.114538  0  0.929588  0  0  0.126597  0  0.982696  0  0  0.130599  0  0.981077  0  0  0.107285  0.123726  0  0.984011  0
C  C55  1  0.36109456  0.86951844  0.93084310  1  0  0.088804  0  3.602655  0  0  0.111246  0  3.844016  0  0  0.109033  0  3.863254  0  0  -0.021247  0.112471  0  3.831698  0
C  C56  1  0.63890445  0.13048090  0.06915672  1  0  0.088813  0  3.602586  0  0  0.111256  0  3.843969  0  0  0.109032  0  3.863228  0  0  -0.021251  0.112481  0  3.831653  0
C  C57  1  0.37056019  0.99120996  0.88197858  1  0  0.037472  0  3.605095  0  0  -0.024734  0  3.866765  0  0  -0.017228  0  3.872561  0  0  -0.064222  -0.029802  0  3.862663  0
C  C58  1  0.62943751  0.00879023  0.11802190  1  0  0.037526  0  3.604958  0  0  -0.024728  0  3.866718  0  0  -0.017224  0  3.872503  0  0  -0.064206  -0.029793  0  3.862616  0
C  C59  1  0.10146803  0.76096401  0.13775068  1  0  0.287586  0  3.812646  0  0  0.278204  0  4.067737  0  0  0.291928  0  4.083294  0  0  0.086876  0.268958  0  4.057069  0
C  C60  1  0.89853066  0.23903700  0.86224952  1  0  0.287563  0  3.812708  0  0  0.278183  0  4.067787  0  0  0.291898  0  4.083346  0  0  0.086857  0.268937  0  4.057119  0
C  C61  1  0.95626364  0.83083504  0.80041664  1  0  -0.192467  0  3.755829  0  0  -0.212371  0  4.008575  0  0  -0.219608  0  4.027244  0  0  -0.108112  -0.207658  0  3.996033  0
C  C62  1  0.04373667  0.16916345  0.19958189  1  0  -0.192391  0  3.755785  0  0  -0.212319  0  4.008543  0  0  -0.219554  0  4.027213  0  0  -0.108136  -0.207607  0  3.996001  0
C  C63  1  0.23288618  0.87848682  0.01314484  1  0  0.049449  0  3.606513  0  0  -0.013963  0  3.871593  0  0  -0.006388  0  3.877607  0  0  -0.061116  -0.019085  0  3.867431  0
C  C64  1  0.76711152  0.12151336  0.98685501  1  0  0.049482  0  3.606479  0  0  -0.01394  0  3.87157  0  0  -0.006367  0  3.877574  0  0  -0.061122  -0.019061  0  3.867409  0
C  C65  1  0.98100904  0.63787874  0.26679456  1  0  -0.031724  0  3.726812  0  0  -0.056744  0  3.976068  0  0  -0.053328  0  3.996515  0  0  -0.082435  -0.058705  0  3.962078  0
C  C66  1  0.01899178  0.36212312  0.73320646  1  0  -0.03181  0  3.726882  0  0  -0.056902  0  3.976104  0  0  -0.053488  0  3.996553  0  0  -0.082459  -0.058862  0  3.962111  0
C  C67  1  0.11057286  0.79160826  0.80817916  1  0  0.28754  0  3.810011  0  0  0.277833  0  4.068773  0  0  0.291652  0  4.08396  0  0  0.087182  0.268459  0  4.058359  0
C  C68  1  0.88942844  0.20839107  0.19181908  1  0  0.287567  0  3.810062  0  0  0.27786  0  4.068789  0  0  0.291679  0  4.083979  0  0  0.087249  0.268487  0  4.058372  0
C  C69  1  0.97486318  0.69909727  0.70448053  1  0  -0.110245  0  3.797262  0  0  -0.091713  0  4.039441  0  0  -0.103833  0  4.065081  0  0  -0.037473  -0.083869  0  4.02213  0
C  C70  1  0.02513812  0.30090206  0.29551897  1  0  -0.110263  0  3.797298  0  0  -0.091692  0  4.039415  0  0  -0.103811  0  4.065055  0  0  -0.037472  -0.083848  0  4.022104  0
C  C71  1  0.88940584  0.78439236  0.74946759  1  0  -0.046758  0  3.772821  0  0  -0.071943  0  4.026094  0  0  -0.068  0  4.044734  0  0  -0.087115  -0.074267  0  4.013364  0
C  C72  1  0.11059529  0.21560780  0.25053117  1  0  -0.046749  0  3.772796  0  0  -0.071955  0  4.026068  0  0  -0.068012  0  4.044706  0  0  -0.087109  -0.074277  0  4.013336  0
C  C73  1  0.49459994  0.29993889  0.72824460  1  0  -0.024553  0  3.738418  0  0  -0.047916  0  3.985337  0  0  -0.044015  0  4.004334  0  0  -0.079274  -0.050229  0  3.972375  0
C  C74  1  0.50539842  0.70006381  0.27175472  1  0  -0.024619  0  3.738535  0  0  -0.047982  0  3.985441  0  0  -0.044074  0  4.004431  0  0  -0.079303  -0.050297  0  3.972479  0
C  C75  1  0.44503131  0.19943072  0.77693355  1  0  -0.21134  0  3.770542  0  0  -0.231443  0  4.024674  0  0  -0.239358  0  4.045679  0  0  -0.11208  -0.2263  0  4.010582  0
C  C76  1  0.55496606  0.80057114  0.22306605  1  0  -0.21132  0  3.770625  0  0  -0.231435  0  4.024755  0  0  -0.23935  0  4.045757  0  0  -0.112106  -0.226294  0  4.010665  0
C  C77  1  0.54226048  0.09729480  0.76824740  1  0  0.283611  0  3.800897  0  0  0.274664  0  4.058628  0  0  0.288268  0  4.072897  0  0  0.084598  0.265379  0  4.04892  0
C  C78  1  0.45773689  0.90270706  0.23175346  1  0  0.283661  0  3.800895  0  0  0.274704  0  4.058621  0  0  0.288315  0  4.072882  0  0  0.084634  0.265421  0  4.048913  0
C  C79  1  0.79971937  0.72076371  0.39279433  1  0  0.656179  0  3.867596  0  0  0.607365  0  4.156478  0  0  0.641983  0  4.149283  0  0  0.208675  0.58371  0  4.160853  0
C  C80  1  0.20028160  0.27923730  0.60720619  1  0  0.656199  0  3.867596  0  0  0.607374  0  4.156465  0  0  0.641993  0  4.149267  0  0  0.208688  0.583714  0  4.160845  0
C  C81  1  0.51441300  0.81257059  0.95729730  1  0  -0.331486  0  3.671143  0  0  -0.415233  0  3.911499  0  0  -0.417769  0  3.921985  0  0  -0.242173  -0.413168  0  3.904151  0
C  C82  1  0.48558585  0.18742958  0.04270302  1  0  -0.331554  0  3.67116  0  0  -0.415331  0  3.91152  0  0  -0.417861  0  3.922009  0  0  -0.242177  -0.413266  0  3.904172  0
C  C83  1  0.32105940  0.79999975  0.87309009  1  0  0.045192  0  3.578783  0  0  -0.019558  0  3.845399  0  0  -0.01131  0  3.850094  0  0  -0.062528  -0.025147  0  3.842056  0
C  C84  1  0.67893944  0.20000043  0.12690960  1  0  0.045194  0  3.5788  0  0  -0.019569  0  3.845413  0  0  -0.011316  0  3.850104  0  0  -0.06252  -0.025155  0  3.842068  0
C  C85  1  0.69646066  0.40742352  0.62036764  1  0  0.670721  0  3.885408  0  0  0.621746  0  4.173362  0  0  0.657879  0  4.165384  0  0  0.21406  0.597154  0  4.178104  0
C  C86  1  0.30353917  0.59257749  0.37963114  1  0  0.670718  0  3.8854  0  0  0.621722  0  4.173379  0  0  0.657854  0  4.165402  0  0  0.214063  0.597127  0  4.178121  0
C  C87  1  0.19561816  0.70387465  0.76612277  1  0  -0.209066  0  3.771608  0  0  -0.230288  0  4.027192  0  0  -0.238395  0  4.048282  0  0  -0.110752  -0.225004  0  4.01298  0
C  C88  1  0.80438314  0.29612468  0.23387611  1  0  -0.209207  0  3.771674  0  0  -0.230414  0  4.027229  0  0  -0.238522  0  4.048319  0  0  -0.110817  -0.22513  0  4.013017  0
C  C89  1  0.68880952  0.09686742  0.71211742  1  0  -0.191331  0  3.749685  0  0  -0.212546  0  4.00561  0  0  -0.219628  0  4.024964  0  0  -0.109119  -0.207912  0  3.992566  0
C  C90  1  0.31118802  0.90313360  0.28788419  1  0  -0.191333  0  3.749698  0  0  -0.21257  0  4.00562  0  0  -0.219654  0  4.024971  0  0  -0.109145  -0.207939  0  3.992578  0
C  C91  1  0.73807578  0.19781378  0.66653309  1  0  -0.044953  0  3.780582  0  0  -0.071875  0  4.035366  0  0  -0.068846  0  4.056456  0  0  -0.087936  -0.073564  0  4.020919  0
C  C92  1  0.26192176  0.80218724  0.33346726  1  0  -0.044985  0  3.780646  0  0  -0.071947  0  4.035443  0  0  -0.068921  0  4.05654  0  0  -0.087961  -0.073636  0  4.020995  0
C  C93  1  0.64157963  0.30066008  0.67295471  1  0  -0.10634  0  3.782725  0  0  -0.086662  0  4.022714  0  0  -0.098683  0  4.047838  0  0  -0.033988  -0.078896  0  4.005802  0
C  C94  1  0.35841905  0.69934094  0.32704486  1  0  -0.10625  0  3.78266  0  0  -0.086547  0  4.022619  0  0  -0.098568  0  4.047742  0  0  -0.033964  -0.078781  0  4.005705  0
C  C95  1  0.35946030  0.93785752  0.59750528  1  0  -0.050934  0  3.624118  0  0  -0.092971  0  3.882251  0  0  -0.091406  0  3.899792  0  0  0.006276  -0.093935  0  3.870557  0
C  C96  1  0.64054100  0.06214181  0.40249548  1  0  -0.05089  0  3.624211  0  0  -0.092908  0  3.882324  0  0  -0.09135  0  3.899869  0  0  0.006312  -0.093873  0  3.870628  0
C  C97  1  0.03315236  0.88278537  0.51509579  1  0  -0.135364  0  3.752794  0  0  -0.155483  0  4.004887  0  0  -0.159007  0  4.026454  0  0  -0.087384  -0.153096  0  3.990403  0
C  C98  1  0.96684926  0.11721227  0.48490522  1  0  -0.135398  0  3.752919  0  0  -0.155525  0  4.004983  0  0  -0.159055  0  4.026559  0  0  -0.08739  -0.15314  0  3.990504  0
C  C99  1  0.13670820  0.94710350  0.52619976  1  0  0.175256  0  3.787962  0  0  0.167895  0  4.032055  0  0  0.172682  0  4.055272  0  0  0.09593  0.164625  0  4.016365  0
C  C100  1  0.86329342  0.05289415  0.47380063  1  0  0.175283  0  3.787993  0  0  0.167948  0  4.032066  0  0  0.172735  0  4.055283  0  0  0.095997  0.164678  0  4.016376  0
C  C101  1  0.34971224  0.78838406  0.54347122  1  0  0.189467  0  3.619008  0  0  0.127707  0  3.883225  0  0  0.142492  0  3.895407  0  0  0.155684  0.118124  0  3.874692  0
C  C102  1  0.65029021  0.21161527  0.45652876  1  0  0.189402  0  3.619028  0  0  0.127683  0  3.883225  0  0  0.142467  0  3.895406  0  0  0.155698  0.118099  0  3.874693  0
C  C103  1  0.90850363  0.65660427  0.64296811  1  0  0.662956  0  3.904369  0  0  0.611053  0  4.197209  0  0  0.646693  0  4.189362  0  0  0.212836  0.586848  0  4.201821  0
C  C104  1  0.09149996  0.34339505  0.35703234  1  0  0.663025  0  3.90447  0  0  0.611119  0  4.197288  0  0  0.646759  0  4.189437  0  0  0.212897  0.586914  0  4.2019  0
C  C105  1  0.02156511  0.85513724  0.17338727  1  0  -0.229856  0  3.799607  0  0  -0.249842  0  4.058567  0  0  -0.258367  0  4.079184  0  0  -0.118778  -0.244258  0  4.044681  0
C  C106  1  0.97843587  0.14486378  0.82661324  1  0  -0.229895  0  3.79948  0  0  -0.249887  0  4.058447  0  0  -0.258413  0  4.079066  0  0  -0.118802  -0.244303  0  4.044563  0
C  C107  1  0.92330441  0.83931738  0.25591897  1  0  -0.038055  0  3.765516  0  0  -0.061116  0  4.017208  0  0  -0.057216  0  4.035644  0  0  -0.082818  -0.063378  0  4.004545  0
C  C108  1  0.07669739  0.16068531  0.74408114  1  0  -0.038006  0  3.765531  0  0  -0.061079  0  4.017195  0  0  -0.057179  0  4.035631  0  0  -0.082808  -0.063342  0  4.004533  0
C  C109  1  0.90322688  0.73127038  0.30419292  1  0  -0.093194  0  3.77777  0  0  -0.073584  0  4.017155  0  0  -0.085019  0  4.041531  0  0  -0.030159  -0.066189  0  4.000763  0
C  C110  1  0.09677623  0.26873146  0.69580715  1  0  -0.093244  0  3.777995  0  0  -0.073573  0  4.017306  0  0  -0.085009  0  4.041685  0  0  -0.030161  -0.066176  0  4.000916  0
C  C111  1  0.48191266  0.85685952  0.61259533  1  0  0.005094  0  3.730222  0  0  -0.031775  0  4.001724  0  0  -0.029909  0  4.021019  0  0  -0.002494  -0.033055  0  3.988762  0
C  C112  1  0.51808766  0.14313897  0.38740571  1  0  0.005084  0  3.730347  0  0  -0.03179  0  4.001846  0  0  -0.029923  0  4.02114  0  0  -0.002481  -0.033068  0  3.988881  0
C  C113  1  0.12755650  0.65940522  0.71402274  1  0  -0.041555  0  3.757521  0  0  -0.066476  0  4.011276  0  0  -0.06278  0  4.030599  0  0  -0.083558  -0.068616  0  3.998043  0
C  C114  1  0.87244594  0.34059411  0.28597598  1  0  -0.04143  0  3.757574  0  0  -0.066354  0  4.011299  0  0  -0.062657  0  4.030621  0  0  -0.08352  -0.068495  0  3.998066  0
C  C115  1  0.10380295  0.06441973  0.51091609  1  0  -0.130953  0  3.711537  0  0  -0.150531  0  3.958037  0  0  -0.153868  0  3.978282  0  0  -0.087923  -0.148232  0  3.944391  0
C  C116  1  0.89619720  0.93557960  0.48908420  1  0  -0.130941  0  3.711599  0  0  -0.150554  0  3.958106  0  0  -0.15389  0  3.978346  0  0  -0.087927  -0.148254  0  3.944458  0
C  C117  1  0.07846429  0.65216299  0.18415785  1  0  -0.186864  0  3.73821  0  0  -0.207095  0  3.990772  0  0  -0.214715  0  4.009595  0  0  -0.102726  -0.202151  0  3.978152  0
C  C118  1  0.92153701  0.34783634  0.81584354  1  0  -0.186812  0  3.738213  0  0  -0.207012  0  3.990775  0  0  -0.214634  0  4.009605  0  0  -0.102702  -0.202063  0  3.978155  0
N  N119  1  0.27582416  0.89338553  0.55374828  1  0  -0.083944  0  3.592147  0  0  0.005791  0  3.803064  0  0  -0.009408  0  3.829416  0  0  -0.217905  0.015847  0  3.785115  0
N  N120  1  0.72417829  0.10661380  0.44625232  1  0  -0.083991  0  3.592201  0  0  0.005726  0  3.803119  0  0  -0.009474  0  3.829472  0  0  -0.217963  0.015783  0  3.78517  0
N  N121  1  0.47454645  0.76437604  0.57851747  1  0  -0.379013  0  3.320837  0  0  -0.297452  0  3.620048  0  0  -0.318193  0  3.631331  0  0  -0.356255  -0.283382  0  3.612119  0
N  N122  1  0.52545599  0.23562328  0.42148250  1  0  -0.378978  0  3.320811  0  0  -0.297411  0  3.619986  0  0  -0.318151  0  3.63127  0  0  -0.356276  -0.28334  0  3.612057  0
O  O123  1  0.50491487  0.99359479  0.81217608  1  0  -0.28424  0  2.317288  0  0  -0.211525  0  2.549092  0  0  -0.230106  0  2.551714  0  0  -0.18176  -0.198231  0  2.54668  0
O  O124  1  0.49508251  0.00640707  0.18782477  1  0  -0.2843  0  2.317275  0  0  -0.211549  0  2.549083  0  0  -0.230135  0  2.551705  0  0  -0.181776  -0.198258  0  2.546671  0
O  O125  1  0.16854613  0.84447404  0.85725784  1  0  -0.287547  0  2.331598  0  0  -0.215904  0  2.567628  0  0  -0.234796  0  2.570028  0  0  -0.179321  -0.202448  0  2.565369  0
O  O126  1  0.83145402  0.15552529  0.14274119  1  0  -0.287581  0  2.331639  0  0  -0.215918  0  2.567641  0  0  -0.234813  0  2.570046  0  0  -0.179347  -0.202462  0  2.565381  0
O  O127  1  0.76521513  0.69053865  0.64168007  1  0  -0.64418  0  2.071107  0  0  -0.571628  0  2.34007  0  0  -0.599552  0  2.323756  0  0  -0.324084  -0.552209  0  2.3507  0
O  O128  1  0.23478617  0.30946068  0.35831944  1  0  -0.644174  0  2.071128  0  0  -0.571627  0  2.340089  0  0  -0.59955  0  2.323777  0  0  -0.324083  -0.552206  0  2.350718  0
O  O129  1  0.59686795  0.49737146  0.62108612  1  0  -0.644589  0  2.034749  0  0  -0.573109  0  2.297636  0  0  -0.601219  0  2.279123  0  0  -0.332316  -0.55357  0  2.309816  0
O  O130  1  0.40313188  0.50262955  0.37891329  1  0  -0.644592  0  2.034738  0  0  -0.573112  0  2.29764  0  0  -0.60122  0  2.279126  0  0  -0.33231  -0.553573  0  2.30982  0
O  O131  1  0.99968777  0.59267808  0.59441701  1  0  -0.653979  0  2.118493  0  0  -0.588868  0  2.387631  0  0  -0.616749  0  2.373042  0  0  -0.312035  -0.569339  0  2.39693  0
O  O132  1  0.00031565  0.40732208  0.40558206  1  0  -0.654032  0  2.118605  0  0  -0.588909  0  2.38771  0  0  -0.616795  0  2.373131  0  0  -0.312064  -0.569387  0  2.397024  0
O  O133  1  0.80894724  0.62375209  0.44832000  1  0  -0.691615  0  2.101128  0  0  -0.602681  0  2.381734  0  0  -0.633932  0  2.361107  0  0  -0.324665  -0.580709  0  2.395259  0
O  O134  1  0.19105275  0.37624808  0.55167890  1  0  -0.69164  0  2.101163  0  0  -0.602707  0  2.381788  0  0  -0.63396  0  2.36116  0  0  -0.324679  -0.580733  0  2.395315  0
O  O135  1  0.70560514  0.80360115  0.41418890  1  0  -0.608913  0  1.985195  0  0  -0.56254  0  2.213324  0  0  -0.586085  0  2.206068  0  0  -0.309449  -0.546046  0  2.217791  0
O  O136  1  0.29439600  0.19639902  0.58581111  1  0  -0.608885  0  1.985158  0  0  -0.562524  0  2.213293  0  0  -0.586066  0  2.206033  0  0  -0.309441  -0.54603  0  2.217764  0
O  O137  1  0.20445206  0.76805609  0.05868069  1  0  -0.276853  0  2.319617  0  0  -0.203779  0  2.546518  0  0  -0.221722  0  2.547864  0  0  -0.176294  -0.191121  0  2.545118  0
O  O138  1  0.79554564  0.23194409  0.94131915  1  0  -0.276916  0  2.319676  0  0  -0.203832  0  2.546578  0  0  -0.221755  0  2.547909  0  0  -0.176298  -0.191174  0  2.545179  0
O  O139  1  0.83587846  0.40165472  0.57817315  1  0  -0.648757  0  2.093226  0  0  -0.585607  0  2.363422  0  0  -0.61431  0  2.350376  0  0  -0.313024  -0.565604  0  2.371837  0
O  O140  1  0.16412055  0.59834461  0.42182667  1  0  -0.648767  0  2.093228  0  0  -0.585612  0  2.363439  0  0  -0.614317  0  2.350395  0  0  -0.313032  -0.56561  0  2.371853  0
