# generated using pymatgen
data_CuH8C12BrN2
_symmetry_space_group_name_H-M   'P 1'
_cell_length_a   7.24603433
_cell_length_b   8.45168237
_cell_length_c   17.60876547
_cell_angle_alpha   89.99958136
_cell_angle_beta   89.99980784
_cell_angle_gamma   93.35337238
_symmetry_Int_Tables_number   1
_chemical_formula_structural   CuH8C12BrN2
_chemical_formula_sum   'Cu4 H32 C48 Br4 N8'
_cell_volume   1076.53513956
_cell_formula_units_Z   4
loop_
 _symmetry_equiv_pos_site_id
 _symmetry_equiv_pos_as_xyz
  1  'x, y, z'
loop_
 _atom_site_type_symbol
 _atom_site_label
 _atom_site_symmetry_multiplicity
 _atom_site_fract_x
 _atom_site_fract_y
 _atom_site_fract_z
 _atom_site_occupancy
 _atom_site_hle17_bader_spin_density
 _atom_site_hle17_ddec_charge
 _atom_site_hle17_ddec_spin_density
 _atom_site_hle17_ddec_sum_bond_order
 _atom_site_hle17_magmom
 _atom_site_hse06_10hf_bader_spin_density
 _atom_site_hse06_10hf_ddec_charge
 _atom_site_hse06_10hf_ddec_spin_density
 _atom_site_hse06_10hf_ddec_sum_bond_order
 _atom_site_hse06_10hf_magmom
 _atom_site_hse06_bader_spin_density
 _atom_site_hse06_ddec_charge
 _atom_site_hse06_ddec_spin_density
 _atom_site_hse06_ddec_sum_bond_order
 _atom_site_hse06_magmom
 _atom_site_pbe_bader_spin_density
 _atom_site_pbe_cm5_charge
 _atom_site_pbe_ddec_charge
 _atom_site_pbe_ddec_spin_density
 _atom_site_pbe_ddec_sum_bond_order
 _atom_site_pbe_magmom
Cu  Cu0  1  0.57502546  0.30328619  0.29483690  1  0  0.394002  0  2.007015  0  0  0.282046  0  2.504995  0  0  0.276862  0  2.464969  0  0  0.411279  0.290675  0  2.527635  0
Cu  Cu1  1  0.07502704  0.30328003  0.20516883  1  0  0.394082  0  2.006897  0  0  0.28212  0  2.504841  0  0  0.276876  0  2.464764  0  0  0.41128  0.290741  0  2.527472  0
Cu  Cu2  1  0.42497616  0.69672096  0.70517343  1  0  0.394122  0  2.00682  0  0  0.282219  0  2.504775  0  0  0.276973  0  2.464694  0  0  0.411305  0.290838  0  2.527394  0
Cu  Cu3  1  0.92497493  0.69670699  0.79482730  1  0  0.394096  0  2.006892  0  0  0.282157  0  2.504853  0  0  0.276906  0  2.464779  0  0  0.411291  0.290775  0  2.527488  0
H  H4  1  0.27238566  0.32480105  0.60388996  1  0  0.106755  0  0.961888  0  0  0.115346  0  1.026431  0  0  0.119195  0  1.022931  0  0  0.098499  0.112464  0  1.029012  0
H  H5  1  0.77239552  0.32483182  0.89611283  1  0  0.106814  0  0.961801  0  0  0.115387  0  1.026374  0  0  0.119235  0  1.022871  0  0  0.098511  0.112508  0  1.028958  0
H  H6  1  0.72759199  0.67516908  0.39610957  1  0  0.106769  0  0.961799  0  0  0.115339  0  1.026386  0  0  0.11919  0  1.02288  0  0  0.098486  0.112461  0  1.028972  0
H  H7  1  0.22759879  0.67519418  0.10389068  1  0  0.106771  0  0.961828  0  0  0.115379  0  1.02636  0  0  0.119229  0  1.02286  0  0  0.098514  0.112498  0  1.028942  0
H  H8  1  0.61031264  0.72636818  0.11082210  1  0  0.103603  0  0.953365  0  0  0.112335  0  1.018016  0  0  0.115357  0  1.015916  0  0  0.103989  0.110043  0  1.019669  0
H  H9  1  0.11028517  0.72633746  0.38916847  1  0  0.103568  0  0.953588  0  0  0.112316  0  1.018224  0  0  0.115335  0  1.016129  0  0  0.103929  0.110029  0  1.019886  0
H  H10  1  0.38971620  0.27365825  0.88918539  1  0  0.103666  0  0.953433  0  0  0.112413  0  1.018082  0  0  0.115435  0  1.015983  0  0  0.10396  0.110113  0  1.019737  0
H  H11  1  0.88970039  0.27362567  0.61080607  1  0  0.103625  0  0.953324  0  0  0.112302  0  1.018065  0  0  0.115342  0  1.01596  0  0  0.103909  0.110006  0  1.019717  0
H  H12  1  0.49714732  0.22128745  0.13731157  1  0  0.078552  0  0.987757  0  0  0.082875  0  1.062037  0  0  0.086571  0  1.058188  0  0  0.10143  0.079988  0  1.065168  0
H  H13  1  0.99710312  0.22125411  0.36268762  1  0  0.078483  0  0.987838  0  0  0.082841  0  1.062079  0  0  0.086543  0  1.058223  0  0  0.101436  0.079949  0  1.065205  0
H  H14  1  0.50290247  0.77874398  0.86269592  1  0  0.078524  0  0.9879  0  0  0.082927  0  1.062088  0  0  0.086626  0  1.058238  0  0  0.101485  0.080033  0  1.065218  0
H  H15  1  0.00286053  0.77871229  0.63730340  1  0  0.078493  0  0.987828  0  0  0.082836  0  1.06211  0  0  0.086531  0  1.058263  0  0  0.10147  0.079947  0  1.065244  0
H  H16  1  0.56200629  0.18174271  0.57618734  1  0  0.097267  0  0.96444  0  0  0.109823  0  1.021701  0  0  0.112325  0  1.021983  0  0  0.103828  0.108124  0  1.021544  0
H  H17  1  0.06201174  0.18176752  0.92381341  1  0  0.097414  0  0.964376  0  0  0.109952  0  1.021639  0  0  0.112452  0  1.021921  0  0  0.103901  0.108252  0  1.021488  0
H  H18  1  0.43797249  0.81822270  0.42381106  1  0  0.097314  0  0.96437  0  0  0.109936  0  1.021545  0  0  0.112434  0  1.021829  0  0  0.103898  0.108236  0  1.021392  0
H  H19  1  0.93798058  0.81824662  0.07618101  1  0  0.097354  0  0.964401  0  0  0.109943  0  1.021625  0  0  0.112417  0  1.021934  0  0  0.103885  0.108238  0  1.021468  0
H  H20  1  0.66428922  0.97197119  0.32517227  1  0  0.068348  0  0.945203  0  0  0.078017  0  1.011309  0  0  0.080521  0  1.008871  0  0  0.109674  0.076223  0  1.013171  0
H  H21  1  0.16432490  0.97197896  0.17483271  1  0  0.0684  0  0.945143  0  0  0.078011  0  1.011304  0  0  0.080511  0  1.008871  0  0  0.109672  0.076214  0  1.013168  0
H  H22  1  0.33569451  0.02803692  0.67484374  1  0  0.068356  0  0.945146  0  0  0.077978  0  1.011288  0  0  0.080476  0  1.008856  0  0  0.109702  0.076191  0  1.013145  0
H  H23  1  0.83571720  0.02803698  0.82515774  1  0  0.068398  0  0.945086  0  0  0.078048  0  1.011162  0  0  0.080549  0  1.008725  0  0  0.109684  0.07626  0  1.013021  0
H  H24  1  0.68313719  0.18012892  0.44394971  1  0  0.070517  0  0.951772  0  0  0.076568  0  1.024295  0  0  0.079913  0  1.020547  0  0  0.107927  0.074096  0  1.027369  0
H  H25  1  0.18314911  0.18013826  0.05605005  1  0  0.070578  0  0.951728  0  0  0.076588  0  1.024292  0  0  0.079931  0  1.020547  0  0  0.107953  0.07411  0  1.027364  0
H  H26  1  0.31685391  0.81986151  0.55604983  1  0  0.070579  0  0.951745  0  0  0.076613  0  1.024299  0  0  0.079957  0  1.020551  0  0  0.10796  0.074138  0  1.027371  0
H  H27  1  0.81686362  0.81987021  0.94394153  1  0  0.070549  0  0.951822  0  0  0.076609  0  1.024371  0  0  0.079951  0  1.020626  0  0  0.107934  0.074144  0  1.027423  0
H  H28  1  0.68436970  0.72223789  0.24947403  1  0  0.10957  0  0.99002  0  0  0.116246  0  1.055031  0  0  0.11985  0  1.054373  0  0  0.090045  0.113555  0  1.055719  0
H  H29  1  0.18439176  0.72223483  0.25052385  1  0  0.109631  0  0.990002  0  0  0.116301  0  1.05502  0  0  0.119908  0  1.054359  0  0  0.090037  0.11361  0  1.055708  0
H  H30  1  0.31561427  0.27777495  0.75053857  1  0  0.109668  0  0.989989  0  0  0.116373  0  1.054988  0  0  0.119967  0  1.054339  0  0  0.090087  0.113678  0  1.055674  0
H  H31  1  0.81565123  0.27777165  0.74945752  1  0  0.109724  0  0.989921  0  0  0.116417  0  1.054913  0  0  0.120018  0  1.054258  0  0  0.090174  0.113726  0  1.055598  0
H  H32  1  0.25089348  0.43550619  0.36419950  1  0  0.086785  0  0.971398  0  0  0.089659  0  1.045248  0  0  0.094078  0  1.040977  0  0  0.102324  0.0862  0  1.048694  0
H  H33  1  0.75092161  0.43552705  0.13580439  1  0  0.086834  0  0.971405  0  0  0.089732  0  1.045258  0  0  0.094142  0  1.040983  0  0  0.102369  0.086275  0  1.048698  0
H  H34  1  0.74909967  0.56449730  0.63580287  1  0  0.086824  0  0.971456  0  0  0.089724  0  1.045289  0  0  0.094135  0  1.041018  0  0  0.10239  0.086266  0  1.04873  0
H  H35  1  0.24911527  0.56449475  0.86420026  1  0  0.086858  0  0.971455  0  0  0.089743  0  1.04531  0  0  0.094157  0  1.041031  0  0  0.102373  0.086285  0  1.048753  0
C  C36  1  0.32779354  0.31659071  0.54654293  1  0  -0.045286  0  3.655877  0  0  -0.07172  0  3.899247  0  0  -0.06595  0  3.913697  0  0  -0.06626  -0.075358  0  3.889617  0
C  C37  1  0.82780701  0.31662063  0.95345868  1  0  -0.045172  0  3.655682  0  0  -0.071529  0  3.899072  0  0  -0.065757  0  3.91352  0  0  -0.066198  -0.075174  0  3.889457  0
C  C38  1  0.67218824  0.68337947  0.45345660  1  0  -0.045186  0  3.655681  0  0  -0.071564  0  3.899104  0  0  -0.06579  0  3.91355  0  0  -0.066218  -0.075211  0  3.889487  0
C  C39  1  0.17219552  0.68340429  0.04654369  1  0  -0.045287  0  3.655826  0  0  -0.071709  0  3.899227  0  0  -0.065937  0  3.913669  0  0  -0.066277  -0.075349  0  3.889601  0
C  C40  1  0.60478646  0.83331789  0.14510768  1  0  -0.057757  0  3.667564  0  0  -0.081216  0  3.908786  0  0  -0.075975  0  3.922869  0  0  -0.069528  -0.084726  0  3.899598  0
C  C41  1  0.10476634  0.83329017  0.35488650  1  0  -0.057917  0  3.668039  0  0  -0.081418  0  3.90928  0  0  -0.076175  0  3.923366  0  0  -0.069561  -0.084944  0  3.900108  0
C  C42  1  0.39522844  0.16670600  0.85490207  1  0  -0.05801  0  3.667947  0  0  -0.081555  0  3.909175  0  0  -0.076316  0  3.923265  0  0  -0.069589  -0.085054  0  3.899977  0
C  C43  1  0.89521557  0.16668239  0.64509372  1  0  -0.057627  0  3.667637  0  0  -0.081071  0  3.908742  0  0  -0.075856  0  3.922855  0  0  -0.069458  -0.084571  0  3.899543  0
C  C44  1  0.54199207  0.10936660  0.15956202  1  0  0.069997  0  3.649192  0  0  0.034524  0  3.896577  0  0  0.041811  0  3.907429  0  0  0.042054  0.029718  0  3.889808  0
C  C45  1  0.04196806  0.10934142  0.34044102  1  0  0.07007  0  3.649181  0  0  0.034618  0  3.896539  0  0  0.041877  0  3.907397  0  0  0.042048  0.029822  0  3.889759  0
C  C46  1  0.45802824  0.89065499  0.84045001  1  0  0.070033  0  3.649337  0  0  0.034511  0  3.896672  0  0  0.041795  0  3.907493  0  0  0.042017  0.029718  0  3.889888  0
C  C47  1  0.95800808  0.89062633  0.65955170  1  0  0.070123  0  3.649473  0  0  0.034636  0  3.896779  0  0  0.041912  0  3.907606  0  0  0.042038  0.029836  0  3.890001  0
C  C48  1  0.48786141  0.23937604  0.53109100  1  0  -0.121528  0  3.775767  0  0  -0.13154  0  4.023695  0  0  -0.13971  0  4.045637  0  0  -0.088738  -0.126252  0  4.009145  0
C  C49  1  0.98787480  0.23940690  0.96890783  1  0  -0.121749  0  3.775854  0  0  -0.131754  0  4.023761  0  0  -0.139922  0  4.045707  0  0  -0.08891  -0.126478  0  4.009225  0
C  C50  1  0.51211455  0.76058815  0.46890797  1  0  -0.121614  0  3.775663  0  0  -0.131673  0  4.023562  0  0  -0.139838  0  4.045512  0  0  -0.088867  -0.126388  0  4.009019  0
C  C51  1  0.01213313  0.76061573  0.03108659  1  0  -0.121573  0  3.77562  0  0  -0.131608  0  4.023546  0  0  -0.139751  0  4.045503  0  0  -0.08878  -0.126313  0  4.008993  0
C  C52  1  0.63269073  0.96927339  0.26464562  1  0  0.113247  0  3.683524  0  0  0.083219  0  3.936249  0  0  0.090062  0  3.952158  0  0  0.035018  0.078091  0  3.926814  0
C  C53  1  0.13270608  0.96927166  0.23535544  1  0  0.113133  0  3.683736  0  0  0.08319  0  3.936481  0  0  0.090021  0  3.95237  0  0  0.035027  0.078052  0  3.92706  0
C  C54  1  0.36729306  0.03073591  0.73536641  1  0  0.113124  0  3.683043  0  0  0.083212  0  3.935844  0  0  0.09005  0  3.951734  0  0  0.034849  0.078039  0  3.926482  0
C  C55  1  0.86731031  0.03072738  0.76463444  1  0  0.112971  0  3.683337  0  0  0.083067  0  3.936053  0  0  0.089898  0  3.951943  0  0  0.034862  0.077892  0  3.926698  0
C  C56  1  0.55604002  0.23735413  0.45723171  1  0  0.109735  0  3.69665  0  0  0.079154  0  3.949505  0  0  0.087019  0  3.964462  0  0  0.033752  0.073008  0  3.941543  0
C  C57  1  0.05605795  0.23737085  0.04276745  1  0  0.109854  0  3.696559  0  0  0.07934  0  3.949353  0  0  0.087202  0  3.964307  0  0  0.033847  0.073235  0  3.941323  0
C  C58  1  0.44393985  0.76263261  0.54276839  1  0  0.1098  0  3.696521  0  0  0.079241  0  3.949365  0  0  0.087104  0  3.964321  0  0  0.033822  0.073122  0  3.94135  0
C  C59  1  0.94396067  0.76264480  0.95722470  1  0  0.109741  0  3.696746  0  0  0.079114  0  3.949583  0  0  0.086977  0  3.964532  0  0  0.033725  0.072974  0  3.941619  0
C  C60  1  0.64428701  0.83120076  0.22242824  1  0  -0.104389  0  3.748366  0  0  -0.115431  0  3.995521  0  0  -0.122651  0  4.017103  0  0  -0.088249  -0.110992  0  3.981638  0
C  C61  1  0.14430311  0.83119365  0.27756987  1  0  -0.104456  0  3.748737  0  0  -0.115493  0  3.995842  0  0  -0.122717  0  4.017423  0  0  -0.088287  -0.111053  0  3.981962  0
C  C62  1  0.35569558  0.16881207  0.77758435  1  0  -0.104257  0  3.748292  0  0  -0.115357  0  3.995503  0  0  -0.12257  0  4.017099  0  0  -0.088209  -0.110905  0  3.981601  0
C  C63  1  0.85570889  0.16880060  0.72241376  1  0  -0.104429  0  3.748573  0  0  -0.115529  0  3.99574  0  0  -0.122751  0  4.017343  0  0  -0.088267  -0.111076  0  3.981836  0
C  C64  1  0.31577981  0.38121272  0.41290371  1  0  0.075249  0  3.629452  0  0  0.043053  0  3.871474  0  0  0.049179  0  3.884409  0  0  0.045066  0.038986  0  3.863827  0
C  C65  1  0.81580029  0.38123781  0.08710085  1  0  0.075536  0  3.629578  0  0  0.043328  0  3.87164  0  0  0.049455  0  3.884579  0  0  0.045101  0.039249  0  3.864024  0
C  C66  1  0.68421424  0.61878130  0.58709810  1  0  0.075434  0  3.629555  0  0  0.043232  0  3.871633  0  0  0.049365  0  3.884558  0  0  0.045078  0.039154  0  3.864004  0
C  C67  1  0.18422398  0.61878028  0.91290039  1  0  0.075404  0  3.62963  0  0  0.043149  0  3.871699  0  0  0.04927  0  3.884645  0  0  0.045065  0.039094  0  3.864026  0
C  C68  1  0.07211784  0.46697140  0.49633717  1  0  -0.090081  0  3.857402  0  0  -0.090603  0  4.112182  0  0  -0.094206  0  4.143953  0  0  -0.034323  -0.08797  0  4.091052  0
C  C69  1  0.57210719  0.46696780  0.00367140  1  0  -0.09008  0  3.857757  0  0  -0.090543  0  4.112568  0  0  -0.094143  0  4.14433  0  0  -0.034323  -0.087907  0  4.091442  0
C  C70  1  0.92787675  0.53303329  0.50366804  1  0  -0.090074  0  3.857596  0  0  -0.090543  0  4.112408  0  0  -0.094146  0  4.144178  0  0  -0.034305  -0.087909  0  4.091274  0
C  C71  1  0.42788511  0.53301910  0.99633950  1  0  -0.089967  0  3.857603  0  0  -0.090459  0  4.112398  0  0  -0.094061  0  4.144162  0  0  -0.034306  -0.087828  0  4.091272  0
C  C72  1  0.55421318  0.97637320  0.11207222  1  0  0.063104  0  3.906437  0  0  0.083499  0  4.129926  0  0  0.080932  0  4.152404  0  0  -0.002732  0.084889  0  4.115007  0
C  C73  1  0.05416916  0.97634228  0.38792495  1  0  0.063309  0  3.906505  0  0  0.08373  0  4.129953  0  0  0.081159  0  4.152444  0  0  -0.002521  0.085123  0  4.115029  0
C  C74  1  0.44583360  0.02365346  0.88793754  1  0  0.063029  0  3.906557  0  0  0.083613  0  4.12982  0  0  0.081043  0  4.152316  0  0  -0.002601  0.085007  0  4.114892  0
C  C75  1  0.94578590  0.02361809  0.61205926  1  0  0.062895  0  3.906774  0  0  0.083437  0  4.130088  0  0  0.080867  0  4.152584  0  0  -0.002641  0.084827  0  4.115167  0
C  C76  1  0.51593686  0.99099217  0.03370613  1  0  -0.098021  0  3.876088  0  0  -0.09473  0  4.12171  0  0  -0.099054  0  4.15556  0  0  -0.038005  -0.091936  0  4.099071  0
C  C77  1  0.01585577  0.99095127  0.46628762  1  0  -0.098022  0  3.875645  0  0  -0.094737  0  4.121254  0  0  -0.099058  0  4.155101  0  0  -0.038267  -0.091943  0  4.098615  0
C  C78  1  0.48414249  0.00905030  0.96630249  1  0  -0.097991  0  3.876141  0  0  -0.094759  0  4.121692  0  0  -0.099082  0  4.155543  0  0  -0.038261  -0.091968  0  4.099054  0
C  C79  1  0.98405323  0.00899905  0.53369658  1  0  -0.098099  0  3.875799  0  0  -0.094859  0  4.121394  0  0  -0.099184  0  4.155245  0  0  -0.038146  -0.092063  0  4.098756  0
C  C80  1  0.23764927  0.38888123  0.48585094  1  0  0.070365  0  3.89036  0  0  0.090352  0  4.113982  0  0  0.087722  0  4.136871  0  0  0.001902  0.091608  0  4.09895  0
C  C81  1  0.73766574  0.38889675  0.01415484  1  0  0.070008  0  3.890248  0  0  0.089851  0  4.114143  0  0  0.087222  0  4.137024  0  0  0.001733  0.091102  0  4.099124  0
C  C82  1  0.76234027  0.61110564  0.51415087  1  0  0.070205  0  3.890584  0  0  0.090062  0  4.114435  0  0  0.087433  0  4.13732  0  0  0.001806  0.091321  0  4.099399  0
C  C83  1  0.26234015  0.61111282  0.98584981  1  0  0.07024  0  3.889982  0  0  0.090165  0  4.113749  0  0  0.087539  0  4.136633  0  0  0.001864  0.091419  0  4.098734  0
Br  Br84  1  0.86460014  0.46749788  0.28816701  1  0  -0.551834  0  1.317779  0  0  -0.484394  0  1.71108  0  0  -0.501691  0  1.679408  0  0  -0.267516  -0.47155  0  1.731052  0
Br  Br85  1  0.36459704  0.46750933  0.21184286  1  0  -0.551838  0  1.317733  0  0  -0.484445  0  1.711098  0  0  -0.501739  0  1.679419  0  0  -0.267537  -0.471608  0  1.731071  0
Br  Br86  1  0.13539601  0.53248314  0.71184786  1  0  -0.551879  0  1.317814  0  0  -0.484484  0  1.711203  0  0  -0.501758  0  1.679501  0  0  -0.267546  -0.471657  0  1.731196  0
Br  Br87  1  0.63538651  0.53249522  0.78815724  1  0  -0.55187  0  1.317819  0  0  -0.484521  0  1.71128  0  0  -0.501794  0  1.679572  0  0  -0.267561  -0.471677  0  1.731252  0
N  N88  1  0.47190294  0.30768757  0.39851373  1  0  -0.275093  0  3.400264  0  0  -0.204253  0  3.701662  0  0  -0.212277  0  3.707485  0  0  -0.366025  -0.199688  0  3.697229  0
N  N89  1  0.97192027  0.30770765  0.10148803  1  0  -0.275435  0  3.400397  0  0  -0.20459  0  3.701836  0  0  -0.212592  0  3.707603  0  0  -0.36605  -0.200037  0  3.697404  0
N  N90  1  0.52808979  0.69230762  0.60148807  1  0  -0.27537  0  3.400352  0  0  -0.20454  0  3.701803  0  0  -0.212549  0  3.707582  0  0  -0.366059  -0.199972  0  3.697351  0
N  N91  1  0.02810387  0.69230807  0.89850924  1  0  -0.275398  0  3.40065  0  0  -0.204487  0  3.702021  0  0  -0.212491  0  3.707801  0  0  -0.366024  -0.199917  0  3.697584  0
N  N92  1  0.58161023  0.10717398  0.23408567  1  0  -0.273144  0  3.409248  0  0  -0.202817  0  3.713919  0  0  -0.209861  0  3.718254  0  0  -0.365308  -0.199175  0  3.710787  0
N  N93  1  0.08162061  0.10716105  0.26591789  1  0  -0.273054  0  3.409274  0  0  -0.202837  0  3.714004  0  0  -0.209826  0  3.718281  0  0  -0.365318  -0.19919  0  3.710858  0
N  N94  1  0.41838623  0.89284021  0.76592579  1  0  -0.273054  0  3.408998  0  0  -0.202877  0  3.713771  0  0  -0.209881  0  3.718064  0  0  -0.36526  -0.199222  0  3.710614  0
N  N95  1  0.91838845  0.89282961  0.73407540  1  0  -0.272962  0  3.409247  0  0  -0.202771  0  3.713989  0  0  -0.209755  0  3.718256  0  0  -0.365238  -0.199112  0  3.710836  0
