# generated using pymatgen
data_Zn2H20C29N2O9
_symmetry_space_group_name_H-M   'P 1'
_cell_length_a   9.67693996
_cell_length_b   11.08659288
_cell_length_c   13.21451703
_cell_angle_alpha   89.24132448
_cell_angle_beta   81.46831351
_cell_angle_gamma   90.83485801
_symmetry_Int_Tables_number   1
_chemical_formula_structural   Zn2H20C29N2O9
_chemical_formula_sum   'Zn2 H20 C29 N2 O9'
_cell_volume   1401.70278931
_cell_formula_units_Z   1
loop_
 _symmetry_equiv_pos_site_id
 _symmetry_equiv_pos_as_xyz
  1  'x, y, z'
loop_
 _atom_site_type_symbol
 _atom_site_label
 _atom_site_symmetry_multiplicity
 _atom_site_fract_x
 _atom_site_fract_y
 _atom_site_fract_z
 _atom_site_occupancy
 _atom_site_pbe_bader_charge
 _atom_site_pbe_bader_spin_density
 _atom_site_pbe_cm5_charge
 _atom_site_pbe_ddec_charge
 _atom_site_pbe_ddec_spin_density
 _atom_site_pbe_ddec_sum_bond_order
 _atom_site_pbe_magmom
Zn  Zn0  1  0.63762475  0.50488091  0.49521845  1  1.278357  0  0.664701  0.807077  0  2.448233  0
Zn  Zn1  1  0.35238994  0.49790323  0.51012354  1  1.27718  0  0.663016  0.810615  0  2.446477  0
H  H2  1  0.31893321  0.47725062  0.18887191  1  0.069064  0  0.101688  0.1057  0  1.012338  0
H  H3  1  0.76479123  0.50994692  0.16503409  1  0.085627  0  0.100502  0.105317  0  1.01023  0
H  H4  1  0.20557263  0.48111736  0.03065336  1  0.032479  0  0.09982  0.099613  0  0.998165  0
H  H5  1  0.78672184  0.52667792  0.97456964  1  0.036609  0  0.099323  0.099213  0  0.998736  0
H  H6  1  0.22784114  0.49688405  0.84017866  1  0.077409  0  0.099443  0.10112  0  1.022459  0
H  H7  1  0.67327540  0.53202080  0.81671464  1  0.066577  0  0.102339  0.104899  0  1.019901  0
H  H8  1  0.27578923  0.10391088  0.57018237  1  0.0629  0  0.098342  0.097287  0  1.024356  0
H  H9  1  0.27878175  0.88046237  0.55568731  1  0.1103  0  0.102479  0.108316  0  0.999492  0
H  H10  1  0.83881470  0.89850511  0.46911438  1  0.053438  0  0.097992  0.117852  0  0.988504  0
H  H11  1  0.00515975  0.19796947  0.36377690  1  0.02675  0  0.090224  0.080243  0  0.995905  0
H  H12  1  0.03789834  0.05007494  0.41088390  1  0.040129  0  0.091798  0.086628  0  0.995498  0
H  H13  1  0.78988897  0.90274626  0.34342506  1  0.009866  0  0.09336  0.109819  0  0.990301  0
H  H14  1  0.06784710  0.17972236  0.48409965  1  0.048702  0  0.099956  0.104466  0  1.00948  0
H  H15  1  0.77823301  0.12941597  0.35213127  1  0.035902  0  0.101232  0.044829  0  0.963514  0
H  H16  1  0.15948828  0.61957799  0.38150545  1  0.149985  0  0.136002  0.120345  0  0.969062  0
H  H17  1  0.89977868  0.62152070  0.37440228  1  0.137839  0  0.13663  0.11878  0  0.966648  0
H  H18  1  0.80112204  0.38544172  0.72168738  1  0.074118  0  0.10778  0.131058  0  0.989949  0
H  H19  1  0.82985548  0.26388961  0.63272055  1  0.139576  0  0.114525  0.146277  0  0.995073  0
H  H20  1  0.06220715  0.39468523  0.73209817  1  0.081289  0  0.110717  0.131719  0  0.973929  0
H  H21  1  0.08778386  0.26825035  0.64972467  1  0.077583  0  0.111665  0.133428  0  0.977744  0
C  C22  1  0.48864547  0.26539752  0.51761586  1  1.604207  0  0.2155  0.593413  0  4.178778  0
C  C23  1  0.37430333  0.93358992  0.53287470  1  -0.083551  0  -0.083996  -0.096048  0  3.983086  0
C  C24  1  0.49710500  0.87183459  0.49498344  1  0.002709  0  -0.013294  -0.069936  0  3.958776  0
C  C25  1  0.46442000  0.51633415  0.70346341  1  1.54523  0  0.213408  0.591243  0  4.171161  0
C  C26  1  0.61691904  0.94357170  0.46849747  1  -0.060431  0  -0.001246  0.083668  0  3.900915  0
C  C27  1  0.76900584  0.94016124  0.42073189  1  0.031425  0  -0.161858  -0.289959  0  3.88845  0
C  C28  1  0.76703457  0.08316848  0.42776177  1  0.485413  0  0.012504  0.146459  0  3.857229  0
C  C29  1  0.04806560  0.43903487  0.57136371  1  0.550021  0  0.147207  0.192065  0  3.868327  0
C  C30  1  0.08569965  0.56704668  0.43568489  1  0.491759  0  0.06268  0.03829  0  3.881401  0
C  C31  1  0.94255778  0.56772576  0.43163773  1  0.420846  0  0.063987  0.038949  0  3.881086  0
C  C32  1  0.90497298  0.43864683  0.56672714  1  0.578116  0  0.151889  0.211164  0  3.846456  0
C  C33  1  0.56360020  0.51114363  0.97199846  1  0.00525  0  -0.005766  0.080128  0  4.000163  0
C  C34  1  0.87035175  0.35095140  0.65545547  1  -0.030222  0  -0.139331  -0.233231  0  3.795112  0
C  C35  1  0.03329210  0.35402564  0.66270811  1  -0.011758  0  -0.135696  -0.223307  0  3.811568  0
C  C36  1  0.49782701  0.73758275  0.48867686  1  1.55728  0  0.213615  0.598345  0  4.180099  0
C  C37  1  0.52843442  0.48903503  0.30167680  1  1.54364  0  0.213018  0.592897  0  4.169563  0
C  C38  1  0.53964250  0.49358457  0.18730812  1  0.018377  0  -0.019394  -0.02686  0  3.977404  0
C  C39  1  0.45286075  0.51334942  0.81786568  1  0.019529  0  -0.018284  -0.02433  0  3.974789  0
C  C40  1  0.30803143  0.49178822  0.98379781  1  -0.012821  0  -0.091416  -0.135382  0  4.00804  0
C  C41  1  0.31963300  0.50021283  0.87889663  1  -0.024114  0  -0.09104  -0.103495  0  4.014559  0
C  C42  1  0.57179234  0.51986142  0.86437933  1  -0.097406  0  -0.081038  -0.142802  0  3.938347  0
C  C43  1  0.99964538  0.14066727  0.43342178  1  0.406644  0  -0.144469  -0.169363  0  3.968335  0
C  C44  1  0.42873399  0.49636323  0.03336532  1  -0.043519  0  -0.006169  0.078781  0  3.999998  0
C  C45  1  0.42048472  0.48796961  0.14100187  1  -0.027215  0  -0.080123  -0.137331  0  3.935215  0
C  C46  1  0.67296107  0.50668627  0.12633473  1  -0.024952  0  -0.091268  -0.10289  0  4.012303  0
C  C47  1  0.68434431  0.51566912  0.02146972  1  -0.011979  0  -0.092943  -0.138062  0  4.010348  0
C  C48  1  0.61590888  0.06878169  0.47839962  1  -0.022592  0  -0.008712  -0.016177  0  3.863649  0
C  C49  1  0.49422422  0.13093292  0.51392391  1  0.008783  0  -0.008491  -0.045327  0  3.953909  0
C  C50  1  0.37291695  0.05887343  0.54165457  1  -0.016845  0  -0.088252  -0.108091  0  3.993369  0
N  N51  1  0.14127730  0.50141382  0.50693197  1  -1.208763  0  -0.28871  -0.174193  0  3.476031  0
N  N52  1  0.84875099  0.50228436  0.49799956  1  -1.205646  0  -0.287825  -0.174904  0  3.462103  0
O  O53  1  0.60525193  0.32179424  0.51112072  1  -1.162544  0  -0.309313  -0.531301  0  2.325574  0
O  O54  1  0.36857557  0.31324750  0.52466708  1  -1.162587  0  -0.320348  -0.550555  0  2.310327  0
O  O55  1  0.58676632  0.52369754  0.65228250  1  -1.17327  0  -0.318733  -0.554351  0  2.328264  0
O  O56  1  0.35072822  0.50931200  0.66574577  1  -1.159585  0  -0.318962  -0.54395  0  2.310971  0
O  O57  1  0.61724680  0.68812278  0.47676463  1  -1.159499  0  -0.316988  -0.540349  0  2.297807  0
O  O58  1  0.37994945  0.68266703  0.49753388  1  -1.163231  0  -0.320296  -0.55566  0  2.325723  0
O  O59  1  0.64236790  0.48995070  0.33922857  1  -1.159783  0  -0.320847  -0.54801  0  2.311165  0
O  O60  1  0.40585517  0.48600471  0.35303302  1  -1.174711  0  -0.321827  -0.560616  0  2.330749  0
O  O61  1  0.86109118  0.13552192  0.48806936  1  -1.043891  0  -0.230707  -0.21352  0  2.512677  0
