# generated using pymatgen
data_CdCuH10C10N4(ClO3)2
_symmetry_space_group_name_H-M   'P 1'
_cell_length_a   7.62829956
_cell_length_b   10.18547615
_cell_length_c   11.01594957
_cell_angle_alpha   68.33885955
_cell_angle_beta   88.79937123
_cell_angle_gamma   89.36530849
_symmetry_Int_Tables_number   1
_chemical_formula_structural   CdCuH10C10N4(ClO3)2
_chemical_formula_sum   'Cd2 Cu2 H20 C20 N8 Cl4 O12'
_cell_volume   795.29386156
_cell_formula_units_Z   2
loop_
 _symmetry_equiv_pos_site_id
 _symmetry_equiv_pos_as_xyz
  1  'x, y, z'
loop_
 _atom_site_type_symbol
 _atom_site_label
 _atom_site_symmetry_multiplicity
 _atom_site_fract_x
 _atom_site_fract_y
 _atom_site_fract_z
 _atom_site_occupancy
 _atom_site_hle17_ddec_charge
 _atom_site_hle17_ddec_spin_density
 _atom_site_hle17_ddec_sum_bond_order
 _atom_site_hle17_magmom
 _atom_site_hse06_10hf_ddec_charge
 _atom_site_hse06_10hf_ddec_spin_density
 _atom_site_hse06_10hf_ddec_sum_bond_order
 _atom_site_hse06_10hf_magmom
 _atom_site_hse06_ddec_charge
 _atom_site_hse06_ddec_spin_density
 _atom_site_hse06_ddec_sum_bond_order
 _atom_site_hse06_magmom
 _atom_site_pbe_cm5_charge
 _atom_site_pbe_ddec_charge
 _atom_site_pbe_ddec_spin_density
 _atom_site_pbe_ddec_sum_bond_order
 _atom_site_pbe_magmom
Cd  Cd0  1  0.89128224  0.84897894  0.95728548  1  0.987942  7e-05  1.930916  0.0  0.818321  0.000193  2.394981  0.0  0.864881  0.000199  2.35269  0.0  0.618726  0.784939  0.000102  2.42416  0.0
Cd  Cd1  1  0.10870715  0.15101660  0.04271817  1  0.987956  7e-05  1.930849  0.0  0.818365  0.000193  2.394854  0.0  0.864926  0.000199  2.352563  0.0  0.618706  0.784982  0.000101  2.42403  0.0
Cu  Cu2  1  0.39430842  0.33840373  0.44517416  1  0.831893  -0.694239  1.872921  -0.514  0.809037  -0.777538  2.267097  -0.625  0.892023  -0.841989  2.203497  -0.709  0.756677  0.759242  -0.730651  2.311649  -0.569
Cu  Cu3  1  0.60570866  0.66161180  0.55482020  1  0.831875  -0.694223  1.872821  -0.514  0.808993  -0.777531  2.26699  -0.625  0.891992  -0.841997  2.203406  -0.709  0.756621  0.75911  -0.730633  2.311677  -0.569
H  H4  1  0.98652024  0.73597100  0.25780107  1  0.104949  -0.000793  0.946559  -0.001  0.106915  -0.000672  1.018516  -0.001  0.110537  -0.000435  1.015459  -0.001  0.11466  0.103989  -0.0009  1.021288  -0.001
H  H5  1  0.01346412  0.26402239  0.74221613  1  0.104918  -0.000798  0.946693  -0.001  0.106913  -0.000672  1.018641  -0.001  0.110533  -0.000435  1.01557  -0.001  0.114642  0.103994  -0.0009  1.021398  -0.001
H  H6  1  0.19521557  0.59834647  0.97266092  1  0.113825  -0.000556  0.916993  -0.001  0.118822  -0.000473  0.979218  -0.001  0.122099  -0.000328  0.976362  0.0  0.128713  0.11625  -0.000603  0.981539  -0.001
H  H7  1  0.80477735  0.40165666  0.02734456  1  0.113904  -0.00056  0.916885  -0.001  0.118861  -0.000473  0.979159  -0.001  0.12213  -0.000328  0.976313  0.0  0.12872  0.116288  -0.000603  0.981477  -0.001
H  H8  1  0.38388071  0.41974204  0.14121504  1  0.118832  -0.001132  0.949494  -0.002  0.121506  -0.000938  1.013931  -0.002  0.124726  -0.000676  1.010959  -0.001  0.118412  0.118727  -0.001133  1.016814  -0.002
H  H9  1  0.61611202  0.58026424  0.85878843  1  0.118932  -0.001137  0.949439  -0.002  0.12158  -0.000938  1.013894  -0.002  0.124803  -0.000677  1.01092  -0.001  0.118396  0.118797  -0.001134  1.016779  -0.002
H  H10  1  0.83320061  0.96898831  0.64709187  1  0.097576  -0.000816  0.968282  -0.001  0.103962  -0.000687  1.033402  -0.001  0.107315  -0.000457  1.030246  -0.001  0.125759  0.101234  -0.000891  1.036175  -0.001
H  H11  1  0.16679606  0.03101697  0.35290462  1  0.09757  -0.000817  0.968201  -0.001  0.103953  -0.000687  1.03335  -0.001  0.107305  -0.000457  1.030197  -0.001  0.125793  0.101223  -0.000891  1.036128  -0.001
H  H12  1  0.58313204  0.09994298  0.92255515  1  0.100022  -0.000554  0.950047  -0.001  0.10106  -0.000495  1.024348  -0.001  0.103999  -0.000351  1.022092  0.0  0.112736  0.098933  -0.000616  1.025999  -0.001
H  H13  1  0.41682222  0.90002376  0.07745102  1  0.100088  -0.000557  0.949991  -0.001  0.101119  -0.000495  1.02427  -0.001  0.104058  -0.000351  1.022016  0.0  0.112771  0.098992  -0.000615  1.025921  -0.001
H  H14  1  0.39906535  0.27130821  0.74632964  1  0.117347  -0.001095  0.9458  -0.002  0.120232  -0.000891  1.01212  -0.002  0.123598  -0.000639  1.008859  -0.001  0.11777  0.117423  -0.001071  1.015015  -0.002
H  H15  1  0.60090530  0.72867079  0.25367740  1  0.117363  -0.00109  0.945614  -0.002  0.120239  -0.000892  1.011966  -0.002  0.123604  -0.00064  1.008706  -0.001  0.117786  0.117434  -0.001072  1.014865  -0.002
H  H16  1  0.05137579  0.24093925  0.49001983  1  0.433789  -0.00015  0.863916  0.0  0.40527  -0.000123  0.924543  0.0  0.416317  -4.8e-05  0.908534  0.0  0.293902  0.397665  -0.00022  0.935533  0.0
H  H17  1  0.94864044  0.75906774  0.50997299  1  0.433792  -0.000148  0.863889  0.0  0.405298  -0.000123  0.924485  0.0  0.416347  -4.8e-05  0.908472  0.0  0.293971  0.397697  -0.00022  0.935474  0.0
H  H18  1  0.17086714  0.10119390  0.51676373  1  0.423391  -0.000206  0.876348  0.0  0.39225  -0.000182  0.942044  0.0  0.403085  -9e-05  0.926371  0.0  0.288451  0.384827  -0.000301  0.952758  0.0
H  H19  1  0.82914516  0.89881295  0.48322830  1  0.42337  -0.000204  0.876375  0.0  0.392213  -0.000182  0.942108  0.0  0.403053  -9e-05  0.926428  0.0  0.288435  0.384794  -0.000301  0.952817  0.0
H  H20  1  0.11232522  0.82536915  0.74650145  1  0.426063  0.000137  0.866341  0.0  0.396527  6.7e-05  0.930312  0.0  0.407847  5.3e-05  0.913712  0.0  0.287306  0.388305  6.5e-05  0.942426  0.0
H  H21  1  0.88768324  0.17463770  0.25350336  1  0.426055  0.000136  0.866291  0.0  0.39651  6.7e-05  0.930324  0.0  0.407833  5.3e-05  0.913719  0.0  0.287299  0.38829  6.5e-05  0.942436  0.0
H  H22  1  0.94029420  0.76588095  0.71568430  1  0.42245  -1.5e-05  0.864666  0.0  0.397266  -1.3e-05  0.925267  0.0  0.407063  -2.1e-05  0.911056  0.0  0.29025  0.390263  -1.5e-05  0.935398  0.0
H  H23  1  0.05972086  0.23412392  0.28431201  1  0.422454  -1.5e-05  0.864776  0.0  0.397278  -1.4e-05  0.925278  0.0  0.407075  -2.1e-05  0.911064  0.0  0.29025  0.390272  -1.5e-05  0.935413  0.0
C  C24  1  0.18215698  0.57011105  0.32491169  1  0.04407  0.007494  3.722775  0.005  0.051715  0.001942  3.965863  0.001  0.050745  0.003263  3.986404  0.002  0.111106  0.051699  0.000806  3.95311  0.0
C  C25  1  0.81784608  0.42989766  0.67508711  1  0.044298  0.007493  3.722831  0.005  0.051867  0.00194  3.965954  0.001  0.050898  0.003262  3.986497  0.002  0.111166  0.051846  0.000805  3.953206  0.0
C  C26  1  0.07605553  0.66551344  0.23236534  1  0.09576  -0.005265  3.637965  -0.005  0.059349  -0.002151  3.885799  -0.002  0.063305  -0.002197  3.901838  -0.002  0.062603  0.056501  -0.002162  3.875739  -0.002
C  C27  1  0.92393956  0.33447495  0.76764524  1  0.09589  -0.005261  3.637925  -0.005  0.059421  -0.002152  3.885792  -0.002  0.063393  -0.002197  3.901836  -0.002  0.062666  0.056569  -0.002162  3.875742  -0.002
C  C28  1  0.19137617  0.58991515  0.07424206  1  0.127425  -0.007954  3.584405  -0.009  0.094079  -0.003633  3.837707  -0.005  0.098544  -0.003252  3.850811  -0.004  0.080582  0.091215  -0.003904  3.828838  -0.005
C  C29  1  0.80861980  0.41008067  0.92576591  1  0.127434  -0.007961  3.584302  -0.009  0.094094  -0.003633  3.837593  -0.005  0.098576  -0.003252  3.850701  -0.004  0.080563  0.09123  -0.003905  3.828717  -0.005
C  C30  1  0.29757659  0.49165442  0.16716206  1  0.126011  0.010811  3.589012  0.007  0.100894  0.002921  3.841616  0.002  0.107763  0.004609  3.855455  0.003  0.074394  0.095977  0.001434  3.833461  0.0
C  C31  1  0.70241859  0.50835400  0.83283517  1  0.12587  0.01084  3.588743  0.007  0.100804  0.002924  3.841279  0.002  0.107669  0.004608  3.855122  0.003  0.074444  0.09589  0.001434  3.833113  0.0
C  C32  1  0.18954728  0.55584816  0.46564909  1  0.612899  0.007527  3.944286  0.007  0.562589  0.001331  4.257956  0.001  0.598662  0.001278  4.252943  0.001  0.205412  0.538161  0.001289  4.260488  0.002
C  C33  1  0.81045995  0.44415762  0.53435974  1  0.61255  0.007531  3.944617  0.007  0.562404  0.001333  4.258109  0.001  0.598468  0.001279  4.253123  0.001  0.205418  0.537984  0.00129  4.260608  0.002
C  C34  1  0.62961304  0.12527348  0.57209776  1  0.05613  0.008568  3.720091  0.005  0.059272  0.002645  3.970506  0.001  0.059127  0.00411  3.989255  0.002  0.115057  0.058657  0.001436  3.959218  0.0
C  C35  1  0.37038636  0.87472977  0.42789848  1  0.056026  0.008596  3.719888  0.005  0.059261  0.002645  3.970192  0.001  0.059119  0.004112  3.988942  0.002  0.115013  0.058637  0.001436  3.958906  0.0
C  C36  1  0.73293496  0.03367108  0.66943734  1  0.103166  -0.005718  3.627263  -0.005  0.067859  -0.00232  3.871764  -0.002  0.07215  -0.00242  3.886713  -0.002  0.065913  0.064501  -0.00223  3.862877  -0.002
C  C37  1  0.26706338  0.96632790  0.33056041  1  0.103296  -0.005725  3.627511  -0.005  0.067913  -0.002319  3.872104  -0.002  0.072203  -0.002419  3.887054  -0.002  0.065938  0.064561  -0.002229  3.863226  -0.002
C  C38  1  0.59539809  0.10584780  0.82188958  1  0.111869  -0.00857  3.618942  -0.01  0.078716  -0.003904  3.876092  -0.005  0.082533  -0.003588  3.890424  -0.005  0.068799  0.076268  -0.004098  3.866584  -0.005
C  C39  1  0.40458052  0.89412933  0.17811434  1  0.111794  -0.008577  3.618753  -0.01  0.078712  -0.003903  3.875879  -0.005  0.082531  -0.003589  3.890204  -0.005  0.068755  0.076264  -0.004099  3.866383  -0.005
C  C40  1  0.49206388  0.20083641  0.72442441  1  0.120899  0.011894  3.595698  0.008  0.093123  0.003355  3.85177  0.002  0.099935  0.005044  3.865575  0.003  0.067203  0.088402  0.001937  3.8435  0.001
C  C41  1  0.50791035  0.79914910  0.27558393  1  0.120777  0.011897  3.595774  0.008  0.092955  0.003352  3.851934  0.002  0.09977  0.005043  3.865741  0.003  0.067076  0.088227  0.001935  3.843672  0.001
C  C42  1  0.64397689  0.14527447  0.42995036  1  0.620725  0.006305  3.908415  0.006  0.569132  0.000742  4.217861  0.001  0.605243  0.000875  4.212398  0.001  0.213155  0.544717  0.000542  4.220774  0.001
C  C43  1  0.35604542  0.85474237  0.57004981  1  0.620644  0.006302  3.908489  0.006  0.569051  0.000742  4.217918  0.001  0.605154  0.000876  4.212458  0.001  0.212902  0.544644  0.000543  4.220817  0.001
N  N44  1  0.29038261  0.48295635  0.29104589  1  -0.254055  -0.067522  3.329932  -0.087  -0.21498  -0.047365  3.617096  -0.064  -0.238672  -0.038772  3.635627  -0.057  -0.333881  -0.201526  -0.052279  3.607376  -0.068
N  N45  1  0.70962081  0.51704602  0.70895331  1  -0.254068  -0.067527  3.329984  -0.087  -0.214981  -0.047364  3.61712  -0.064  -0.238674  -0.038769  3.635664  -0.057  -0.333888  -0.201514  -0.052276  3.607417  -0.068
N  N46  1  0.08173207  0.67511247  0.10729160  1  -0.260296  0.007924  3.209052  0.006  -0.190717  0.003237  3.469641  0.002  -0.204413  0.003859  3.486957  0.003  -0.297099  -0.18143  0.002573  3.457918  0.002
N  N47  1  0.91825827  0.32488948  0.89271161  1  -0.260447  0.007936  3.209461  0.006  -0.190836  0.003235  3.470036  0.002  -0.20455  0.003857  3.487356  0.003  -0.297149  -0.181543  0.00257  3.458312  0.002
N  N48  1  0.51137618  0.20925725  0.60099657  1  -0.264322  -0.06832  3.351087  -0.088  -0.224479  -0.048311  3.641424  -0.066  -0.247613  -0.039954  3.659179  -0.059  -0.337184  -0.211419  -0.052759  3.632241  -0.069
N  N49  1  0.48862870  0.79074197  0.39900098  1  -0.264315  -0.068328  3.351127  -0.088  -0.224466  -0.048304  3.641427  -0.066  -0.247606  -0.03995  3.659191  -0.059  -0.337147  -0.211376  -0.052751  3.632248  -0.069
N  N50  1  0.71535082  0.02405689  0.79390560  1  -0.261337  0.009002  3.218667  0.007  -0.19333  0.003826  3.480116  0.003  -0.206062  0.004483  3.496345  0.003  -0.299241  -0.18485  0.00325  3.469706  0.002
N  N51  1  0.28462734  0.97592876  0.20610262  1  -0.261262  0.009021  3.218575  0.007  -0.193274  0.003826  3.480036  0.003  -0.206005  0.004487  3.496265  0.003  -0.299155  -0.184792  0.00325  3.469624  0.002
Cl  Cl52  1  0.83495567  0.98071092  0.12314963  1  -0.577611  -5.2e-05  0.978212  0.0  -0.51527  9.8e-05  1.256841  0.0  -0.535527  0.000173  1.236819  0.0  -0.301112  -0.500004  4.1e-05  1.270938  0.0
Cl  Cl53  1  0.16503153  0.01927715  0.87685667  1  -0.577632  -5.2e-05  0.978289  0.0  -0.515324  9.9e-05  1.256996  0.0  -0.535577  0.000174  1.236966  0.0  -0.301098  -0.500059  4.1e-05  1.271089  0.0
Cl  Cl54  1  0.63239856  0.68723577  0.03163969  1  -0.614307  0.000486  0.828446  0.0  -0.560157  0.000442  1.070136  0.0  -0.579276  0.000363  1.052396  0.0  -0.351159  -0.545321  -7.1e-05  1.082828  0.0
Cl  Cl55  1  0.36759490  0.31275783  0.96836729  1  -0.614289  0.000486  0.828401  0.0  -0.560163  0.00044  1.07009  0.0  -0.579282  0.000363  1.052351  0.0  -0.351174  -0.545327  -7.1e-05  1.082782  0.0
O  O56  1  0.28672814  0.45351919  0.53822054  1  -0.576216  -0.095472  2.033799  -0.133  -0.565561  -0.061897  2.336361  -0.094  -0.607604  -0.046182  2.325536  -0.077  -0.318991  -0.538286  -0.071969  2.344633  -0.104
O  O57  1  0.71330610  0.54649485  0.46177586  1  -0.576072  -0.09547  2.034065  -0.133  -0.565451  -0.061898  2.33655  -0.094  -0.607494  -0.046183  2.325743  -0.077  -0.318941  -0.538163  -0.071971  2.344823  -0.104
O  O58  1  0.10940843  0.64085385  0.50435110  1  -0.578257  -0.016419  1.987058  -0.022  -0.534824  -0.007903  2.213824  -0.012  -0.562415  -0.003345  2.207774  -0.006  -0.299072  -0.514534  -0.013141  2.216869  -0.018
O  O59  1  0.89061384  0.35914075  0.49565411  1  -0.578222  -0.01643  1.986749  -0.022  -0.534877  -0.007905  2.213484  -0.012  -0.562471  -0.003345  2.207448  -0.006  -0.299114  -0.51458  -0.013148  2.216509  -0.018
O  O60  1  0.54276715  0.24027261  0.35383770  1  -0.544167  -0.084659  1.98968  -0.116  -0.521708  -0.055735  2.260247  -0.084  -0.56141  -0.042135  2.250505  -0.069  -0.3131  -0.495671  -0.064542  2.267394  -0.092
O  O61  1  0.45726016  0.75974864  0.64616174  1  -0.544073  -0.084662  1.989692  -0.116  -0.521603  -0.055737  2.260224  -0.084  -0.561309  -0.042136  2.250504  -0.069  -0.3129  -0.495539  -0.064547  2.267362  -0.092
O  O62  1  0.75055402  0.07110077  0.39395476  1  -0.591686  -0.011511  1.991539  -0.016  -0.53671  -0.006119  2.209408  -0.009  -0.563854  -0.002665  2.200341  -0.004  -0.294989  -0.5173  -0.009777  2.215018  -0.013
O  O63  1  0.24946431  0.92891701  0.60604787  1  -0.591678  -0.01151  1.991608  -0.016  -0.536706  -0.006121  2.20941  -0.009  -0.563853  -0.002665  2.200384  -0.004  -0.294895  -0.517305  -0.009779  2.215025  -0.013
O  O64  1  0.14747985  0.19875082  0.45451904  1  -0.857573  0.000793  1.895796  -0.001  -0.811754  0.000587  2.080502  -0.001  -0.835097  0.001221  2.046075  0.0  -0.582512  -0.794641  -5.8e-05  2.104176  -0.001
O  O65  1  0.85253625  0.80125827  0.54547214  1  -0.857542  0.00079  1.895699  -0.001  -0.811752  0.000588  2.080353  -0.001  -0.835098  0.001222  2.045921  0.0  -0.582545  -0.794634  -5.7e-05  2.104035  -0.001
O  O66  1  0.00834686  0.76849017  0.79008881  1  -0.81722  -1.9e-05  1.853803  0.0  -0.758385  -3.8e-05  2.036441  0.0  -0.779536  1.3e-05  2.004785  0.0  -0.589293  -0.742902  -8.6e-05  2.05858  0.0
O  O67  1  0.99166434  0.23151351  0.20990889  1  -0.817244  -1.8e-05  1.853928  0.0  -0.758392  -3.9e-05  2.036503  0.0  -0.77954  1.2e-05  2.004857  0.0  -0.589276  -0.742905  -8.6e-05  2.05864  0.0
