# generated using pymatgen
data_Zn2H2C12S2O7F2
_symmetry_space_group_name_H-M   'P 1'
_cell_length_a   19.67358502
_cell_length_b   19.71428033
_cell_length_c   33.37258308
_cell_angle_alpha   79.13399356
_cell_angle_beta   79.25571503
_cell_angle_gamma   63.98607616
_symmetry_Int_Tables_number   1
_chemical_formula_structural   Zn2H2C12S2O7F2
_chemical_formula_sum   'Zn16 H16 C96 S16 O56 F16'
_cell_volume   11344.47171122
_cell_formula_units_Z   8
loop_
 _symmetry_equiv_pos_site_id
 _symmetry_equiv_pos_as_xyz
  1  'x, y, z'
loop_
 _atom_site_type_symbol
 _atom_site_label
 _atom_site_symmetry_multiplicity
 _atom_site_fract_x
 _atom_site_fract_y
 _atom_site_fract_z
 _atom_site_occupancy
 _atom_site_pbe_bader_charge
 _atom_site_pbe_bader_spin_density
 _atom_site_pbe_cm5_charge
 _atom_site_pbe_ddec_charge
 _atom_site_pbe_ddec_spin_density
 _atom_site_pbe_ddec_sum_bond_order
 _atom_site_pbe_magmom
Zn  Zn0  1  0.05594151  0.40026861  0.47840844  1  1.322058  0  0.676171  0.972357  0  2.355529  0
Zn  Zn1  1  0.98378860  0.48291067  0.56070460  1  1.317035  0  0.680618  0.971281  0  2.36949  0
Zn  Zn2  1  0.05915787  0.55997202  0.48256379  1  1.316739  0  0.673977  0.961865  0  2.377098  0
Zn  Zn3  1  0.90141224  0.55528139  0.47938026  1  1.315213  0  0.674212  0.962258  0  2.376541  0
Zn  Zn4  1  0.69442096  0.34970075  0.27208541  1  1.31642  0  0.673026  0.968329  0  2.35693  0
Zn  Zn5  1  0.69057065  0.18928521  0.26683749  1  1.323064  0  0.676636  0.969858  0  2.358964  0
Zn  Zn6  1  0.76813388  0.26687739  0.19076617  1  1.302962  0  0.672801  0.961689  0  2.37044  0
Zn  Zn7  1  0.84900177  0.19612085  0.27265595  1  1.324134  0  0.677421  0.967753  0  2.368183  0
Zn  Zn8  1  0.26611871  0.76589492  0.68922811  1  1.312961  0  0.677066  0.965539  0  2.378264  0
Zn  Zn9  1  0.34895681  0.69503864  0.77141518  1  1.319976  0  0.677015  0.970756  0  2.361024  0
Zn  Zn10  1  0.19382758  0.84725086  0.77094799  1  1.311886  0  0.670518  0.961816  0  2.367276  0
Zn  Zn11  1  0.18994457  0.68822828  0.76617542  1  1.314405  0  0.675655  0.969571  0  2.359781  0
Zn  Zn12  1  0.55971548  0.06108574  0.98356934  1  1.315869  0  0.674038  0.9668  0  2.363518  0
Zn  Zn13  1  0.40145912  0.05416926  0.97777436  1  1.320607  0  0.676108  0.965648  0  2.3712  0
Zn  Zn14  1  0.55454635  0.90147800  0.97793381  1  1.31772  0  0.671735  0.968893  0  2.350383  0
Zn  Zn15  1  0.48338541  0.98471228  0.06035667  1  1.314521  0  0.673674  0.967498  0  2.35634  0
H  H16  1  0.95357869  0.24910253  0.35133584  1  0.105181  0  0.108625  0.119708  0  0.996781  0
H  H17  1  0.74667614  0.45571869  0.35112203  1  0.141879  0  0.117254  0.142392  0  0.978523  0
H  H18  1  0.00080018  0.29785936  0.39940084  1  0.138141  0  0.110229  0.115892  0  0.987351  0
H  H19  1  0.09723101  0.59718332  0.70005140  1  0.110799  0  0.108227  0.119244  0  0.997534  0
H  H20  1  0.20106187  0.70104479  0.59682679  1  0.100064  0  0.118363  0.144272  0  0.976449  0
H  H21  1  0.04981700  0.54991351  0.65129339  1  0.1091  0  0.111359  0.11746  0  0.985347  0
H  H22  1  0.54993260  0.05007159  0.15270850  1  0.095393  0  0.107532  0.118653  0  0.998454  0
H  H23  1  0.65329051  0.15331809  0.04895637  1  0.093814  0  0.117738  0.143169  0  0.977841  0
H  H24  1  0.59862952  0.09846907  0.20019765  1  0.103819  0  0.109828  0.115659  0  0.987231  0
H  H25  1  0.50146846  0.79571768  0.89869135  1  0.094182  0  0.107097  0.117488  0  0.999457  0
H  H26  1  0.29498359  0.00274161  0.89880152  1  0.10619  0  0.118196  0.144324  0  0.975422  0
H  H27  1  0.45202077  0.74921040  0.85062350  1  0.138917  0  0.110372  0.116481  0  0.987113  0
H  H28  1  0.80998464  0.52754843  0.41874665  1  0.648756  0  0.308648  0.358125  0  0.960772  0
H  H29  1  0.13590900  0.63595669  0.52665984  1  0.650921  0  0.308757  0.357497  0  0.960548  0
H  H30  1  0.72320790  0.22325342  0.11428914  1  0.65817  0  0.308767  0.358431  0  0.960119  0
H  H31  1  0.22229707  0.94002463  0.83119809  1  0.648398  0  0.307703  0.356905  0  0.961777  0
C  C32  1  0.06143318  0.31611803  0.56164670  1  1.596561  0  0.217814  0.632062  0  4.216701  0
C  C33  1  0.06956179  0.56988790  0.56951038  1  1.464297  0  0.227794  0.618042  0  4.151938  0
C  C34  1  0.18371130  0.43950204  0.43868161  1  1.617401  0  0.217435  0.63203  0  4.216616  0
C  C35  1  0.93758831  0.68379133  0.43878380  1  1.581696  0  0.217211  0.629711  0  4.219308  0
C  C36  1  0.93064005  0.43011070  0.43051656  1  1.498411  0  0.227482  0.618584  0  4.150298  0
C  C37  1  0.81646754  0.56101459  0.56179101  1  1.589963  0  0.217024  0.630484  0  4.220318  0
C  C38  1  0.56635348  0.31060008  0.31117941  1  1.611583  0  0.218269  0.632008  0  4.216337  0
C  C39  1  0.68084924  0.18002224  0.18055466  1  1.498154  0  0.227047  0.616387  0  4.152013  0
C  C40  1  0.68899537  0.43350067  0.18839061  1  1.596404  0  0.217171  0.631541  0  4.21448  0
C  C41  1  0.93438175  0.18847142  0.18934336  1  1.566691  0  0.217619  0.631591  0  4.216966  0
C  C42  1  0.81855499  0.32112626  0.31978985  1  1.564211  0  0.232206  0.607821  0  4.151789  0
C  C43  1  0.81225820  0.06646867  0.31141943  1  1.588315  0  0.218058  0.630336  0  4.220503  0
C  C44  1  0.43324963  0.68929237  0.68830135  1  1.596289  0  0.217908  0.630348  0  4.222006  0
C  C45  1  0.31945334  0.81973275  0.81938061  1  1.508615  0  0.227531  0.618129  0  4.148824  0
C  C46  1  0.18896796  0.93303550  0.68847514  1  1.595167  0  0.217907  0.630801  0  4.220963  0
C  C47  1  0.06614046  0.81019219  0.81107040  1  1.620064  0  0.217054  0.631277  0  4.218279  0
C  C48  1  0.18057036  0.68031129  0.67990265  1  1.547697  0  0.232125  0.607702  0  4.152636  0
C  C49  1  0.31211736  0.56616748  0.81110614  1  1.582623  0  0.217717  0.631523  0  4.216335  0
C  C50  1  0.43798920  0.18362064  0.93872825  1  1.586781  0  0.218023  0.629601  0  4.221023  0
C  C51  1  0.42998030  0.93057654  0.93021427  1  1.55491  0  0.231317  0.605255  0  4.150309  0
C  C52  1  0.68323915  0.93955785  0.93874663  1  1.607328  0  0.218327  0.631433  0  4.217201  0
C  C53  1  0.56078144  0.81721168  0.06146029  1  1.592542  0  0.217148  0.6295  0  4.216828  0
C  C54  1  0.56978168  0.07047889  0.06933236  1  1.544261  0  0.231162  0.605558  0  4.152126  0
C  C55  1  0.31625878  0.06161287  0.06093584  1  1.575716  0  0.218658  0.631394  0  4.220244  0
C  C56  1  0.90096431  0.40341763  0.40219942  1  -0.005132  0  -0.036377  -0.193973  0  3.981067  0
C  C57  1  0.84733325  0.34971031  0.34845528  1  -0.031509  0  -0.010343  -0.004023  0  3.991773  0
C  C58  1  0.82827590  0.44865332  0.38842074  1  0.517193  0  0.097814  0.321424  0  4.050319  0
C  C59  1  0.91943506  0.30451047  0.36195271  1  0.011058  0  -0.097204  -0.133801  0  4.00024  0
C  C60  1  0.80236516  0.42083045  0.36152517  1  -0.039635  0  -0.090708  -0.210632  0  3.906761  0
C  C61  1  0.94532447  0.33160050  0.38847389  1  -0.04843  0  -0.080019  -0.061219  0  4.003948  0
C  C62  1  0.09848685  0.59867488  0.59712868  1  0.066674  0  -0.035834  -0.193347  0  3.984596  0
C  C63  1  0.15187754  0.65184129  0.65116644  1  -0.084198  0  -0.010962  -0.004802  0  3.992363  0
C  C64  1  0.14171818  0.64183438  0.58144703  1  0.529248  0  0.097737  0.320303  0  4.054256  0
C  C65  1  0.10908932  0.60908901  0.66696033  1  -0.019904  0  -0.09646  -0.133012  0  4.002322  0
C  C66  1  0.16798141  0.66802368  0.60896757  1  0.050083  0  -0.090107  -0.210366  0  3.903062  0
C  C67  1  0.08300462  0.58310314  0.63999709  1  -0.061382  0  -0.080149  -0.061282  0  4.001649  0
C  C68  1  0.30469671  0.45285232  0.40078173  1  0.550115  0  0.105544  0.258184  0  4.066372  0
C  C69  1  0.44529847  0.29715786  0.34917382  1  0.547981  0  0.104798  0.256533  0  4.068051  0
C  C70  1  0.25828248  0.41452409  0.41391490  1  -0.079882  0  -0.035297  -0.247226  0  3.967248  0
C  C71  1  0.49168992  0.33547593  0.33604720  1  -0.078274  0  -0.033825  -0.245114  0  3.963448  0
C  C72  1  0.37697219  0.33939329  0.37280966  1  -0.139401  0  -0.02831  -0.117702  0  4.11785  0
C  C73  1  0.37302179  0.41061930  0.37716553  1  -0.138181  0  -0.028805  -0.119783  0  4.118529  0
C  C74  1  0.72489849  0.57670080  0.62891244  1  0.640698  0  0.105931  0.259919  0  4.068821  0
C  C75  1  0.52487659  0.67337648  0.62113061  1  0.642262  0  0.10601  0.25806  0  4.068808  0
C  C76  1  0.74191662  0.58583278  0.58650518  1  -0.095974  0  -0.035675  -0.249036  0  3.970413  0
C  C77  1  0.50788291  0.66429788  0.66352494  1  -0.093663  0  -0.033391  -0.243932  0  3.964768  0
C  C78  1  0.60385246  0.64163555  0.60815826  1  -0.168671  0  -0.028295  -0.11832  0  4.118615  0
C  C79  1  0.64595967  0.60838288  0.64189019  1  -0.166389  0  -0.028768  -0.121464  0  4.121587  0
C  C80  1  0.07698821  0.22450201  0.62887610  1  0.551513  0  0.106725  0.260349  0  4.066309  0
C  C81  1  0.17340650  0.02480725  0.62132171  1  0.59911  0  0.10622  0.25889  0  4.066737  0
C  C82  1  0.08611611  0.24159565  0.58645981  1  -0.086697  0  -0.03561  -0.248142  0  3.968715  0
C  C83  1  0.16429916  0.00769590  0.66371943  1  -0.096486  0  -0.034097  -0.245578  0  3.965586  0
C  C84  1  0.14178796  0.10368570  0.60828188  1  -0.136719  0  -0.028255  -0.118974  0  4.12044  0
C  C85  1  0.10859979  0.14565202  0.64194744  1  -0.063836  0  -0.028927  -0.121045  0  4.120437  0
C  C86  1  0.84495270  0.80112510  0.39718229  1  0.583368  0  0.105212  0.259156  0  4.065378  0
C  C87  1  0.90510383  0.94879665  0.35288590  1  0.584034  0  0.104748  0.256741  0  4.06655  0
C  C88  1  0.91306924  0.75815486  0.41386269  1  -0.101833  0  -0.035358  -0.247947  0  3.969474  0
C  C89  1  0.83700028  0.99177774  0.33623737  1  -0.100367  0  -0.033115  -0.243739  0  3.962371  0
C  C90  1  0.90868889  0.87910566  0.37511465  1  -0.11584  0  -0.028006  -0.118513  0  4.116905  0
C  C91  1  0.84143189  0.87067766  0.37484028  1  -0.11454  0  -0.028531  -0.120593  0  4.11973  0
C  C92  1  0.65297124  0.15266198  0.15161491  1  0.006021  0  -0.036318  -0.194072  0  3.981138  0
C  C93  1  0.59876776  0.09894872  0.09801863  1  -0.016905  0  -0.010466  -0.00398  0  3.989329  0
C  C94  1  0.66854882  0.16844159  0.10835822  1  0.534946  0  0.098036  0.322017  0  4.050319  0
C  C95  1  0.58302702  0.08311051  0.14084445  1  -0.026847  0  -0.097461  -0.134304  0  4.002988  0
C  C96  1  0.64104229  0.14106596  0.08201635  1  0.060108  0  -0.09033  -0.210012  0  3.902784  0
C  C97  1  0.61003630  0.10988647  0.16698818  1  -0.061917  0  -0.0807  -0.062088  0  4.004819  0
C  C98  1  0.67311872  0.52531487  0.12109289  1  0.548219  0  0.105386  0.258275  0  4.064716  0
C  C99  1  0.57668591  0.72508274  0.12871821  1  0.644492  0  0.105204  0.258133  0  4.067023  0
C  C100  1  0.66401725  0.50803842  0.16350193  1  -0.094416  0  -0.035551  -0.24793  0  3.964833  0
C  C101  1  0.58569158  0.74244021  0.08633857  1  -0.093068  0  -0.034116  -0.244795  0  3.959746  0
C  C102  1  0.60830634  0.64613462  0.14172315  1  -0.18514  0  -0.028776  -0.119417  0  4.119691  0
C  C103  1  0.64149561  0.60423816  0.10804089  1  -0.063751  0  -0.029217  -0.120219  0  4.118969  0
C  C104  1  0.08092507  0.12452647  0.17705039  1  0.576171  0  0.105505  0.258441  0  4.066989  0
C  C105  1  0.16953398  0.12492933  0.07315624  1  0.592554  0  0.105556  0.25752  0  4.066806  0
C  C106  1  0.00878709  0.16338731  0.16438567  1  -0.099985  0  -0.035458  -0.248166  0  3.96699  0
C  C107  1  0.24162834  0.08626234  0.08586212  1  -0.113958  0  -0.033719  -0.244526  0  3.962122  0
C  C108  1  0.11048468  0.13914485  0.10614055  1  -0.143793  0  -0.02856  -0.11898  0  4.116781  0
C  C109  1  0.13993299  0.11014076  0.14408066  1  -0.165997  0  -0.030106  -0.12073  0  4.120887  0
C  C110  1  0.34654121  0.84911856  0.84771082  1  -0.007018  0  -0.03608  -0.192973  0  3.979175  0
C  C111  1  0.40107003  0.90204627  0.90151709  1  -0.035967  0  -0.010287  -0.003491  0  3.98777  0
C  C112  1  0.30155512  0.92160767  0.86149502  1  0.51467  0  0.097368  0.320786  0  4.049733  0
C  C113  1  0.44595494  0.83010942  0.88804006  1  0.017789  0  -0.098314  -0.13496  0  4.004328  0
C  C114  1  0.32974293  0.94719295  0.88839515  1  0.020503  0  -0.090278  -0.210449  0  3.901305  0
C  C115  1  0.41851445  0.80457594  0.86149917  1  -0.062682  0  -0.080583  -0.062194  0  4.004745  0
C  C116  1  0.40490567  0.44893390  0.85280042  1  0.582763  0  0.104093  0.257476  0  4.067721  0
C  C117  1  0.34505830  0.30110679  0.89722086  1  0.585489  0  0.104341  0.256819  0  4.067891  0
C  C118  1  0.33679329  0.49178946  0.83611196  1  -0.105203  0  -0.03556  -0.248032  0  3.968809  0
C  C119  1  0.41319249  0.25824569  0.91385094  1  -0.103911  0  -0.033525  -0.244064  0  3.964806  0
C  C120  1  0.34141268  0.37074844  0.87489733  1  -0.115771  0  -0.028891  -0.119387  0  4.120057  0
C  C121  1  0.40860078  0.37930771  0.87512772  1  -0.115938  0  -0.029349  -0.121035  0  4.12144  0
C  C122  1  0.94518301  0.79691582  0.84922551  1  0.583706  0  0.104618  0.257311  0  4.068795  0
C  C123  1  0.80455101  0.95270920  0.90081754  1  0.564665  0  0.105026  0.256576  0  4.066422  0
C  C124  1  0.99168627  0.83512563  0.83605873  1  -0.134349  0  -0.03517  -0.246913  0  3.965129  0
C  C125  1  0.75802801  0.91451277  0.91391996  1  -0.081428  0  -0.033777  -0.243658  0  3.959924  0
C  C126  1  0.87294160  0.91037745  0.87722357  1  -0.145368  0  -0.028737  -0.117723  0  4.116427  0
C  C127  1  0.87685614  0.83917992  0.87285650  1  -0.114727  0  -0.02965  -0.121137  0  4.120573  0
S  S128  1  0.29849570  0.32487704  0.39725475  1  0.319699  0  0.100591  0.181172  0  2.745105  0
S  S129  1  0.45153531  0.42507715  0.35273477  1  0.323644  0  0.10353  0.18531  0  2.745262  0
S  S130  1  0.66016080  0.63403862  0.56165535  1  0.306774  0  0.102582  0.184774  0  2.746255  0
S  S131  1  0.58957444  0.61604549  0.68838617  1  0.307248  0  0.102627  0.18443  0  2.746761  0
S  S132  1  0.13422507  0.16002522  0.56173400  1  0.307346  0  0.100817  0.182156  0  2.747236  0
S  S133  1  0.11620155  0.08921175  0.68848260  1  0.302623  0  0.103209  0.185418  0  2.745001  0
S  S134  1  0.97457738  0.80316413  0.40215506  1  0.312072  0  0.103156  0.185401  0  2.7437  0
S  S135  1  0.77558484  0.94669423  0.34780582  1  0.313388  0  0.103103  0.184763  0  2.745528  0
S  S136  1  0.61583420  0.58963441  0.18825094  1  0.306775  0  0.099987  0.181298  0  2.746203  0
S  S137  1  0.63380014  0.66089164  0.06154541  1  0.301047  0  0.101173  0.182462  0  2.744895  0
S  S138  1  0.01253518  0.18301429  0.11104911  1  0.351329  0  0.10226  0.184242  0  2.74282  0
S  S139  1  0.23789702  0.06648874  0.13917026  1  0.33968  0  0.100658  0.181355  0  2.746257  0
S  S140  1  0.27546175  0.44658658  0.84784435  1  0.308522  0  0.101163  0.18265  0  2.747018  0
S  S141  1  0.47454958  0.30338125  0.90217046  1  0.310969  0  0.102402  0.183946  0  2.746502  0
S  S142  1  0.95153887  0.92474560  0.85280132  1  0.320815  0  0.100855  0.181869  0  2.744139  0
S  S143  1  0.79821047  0.82487078  0.89726438  1  0.317985  0  0.099969  0.180544  0  2.746427  0
O  O144  1  0.00044611  0.49888890  0.50022942  1  -1.225632  0  -0.571017  -1.030672  0  2.53416  0
O  O145  1  0.07825735  0.31516127  0.52268161  1  -1.179304  0  -0.319844  -0.547886  0  2.322464  0
O  O146  1  0.03137906  0.53144142  0.58525693  1  -1.153133  0  -0.308765  -0.532857  0  2.343236  0
O  O147  1  0.15576483  0.50582352  0.44985042  1  -1.160353  0  -0.315035  -0.53617  0  2.32862  0
O  O148  1  0.02594963  0.37436990  0.58084527  1  -1.16615  0  -0.312879  -0.534265  0  2.329639  0
O  O149  1  0.15363656  0.39176733  0.44670524  1  -1.170118  0  -0.319241  -0.547542  0  2.321652  0
O  O150  1  0.08515749  0.58589779  0.53027887  1  -1.18102  0  -0.312322  -0.561166  0  2.372698  0
O  O151  1  0.00429448  0.65707536  0.45004751  1  -1.170894  0  -0.320439  -0.546156  0  2.325097  0
O  O152  1  0.88723127  0.49653766  0.44231258  1  -1.175875  0  -0.312016  -0.560914  0  2.373543  0
O  O153  1  0.89111701  0.65257467  0.44702438  1  -1.158679  0  -0.314286  -0.535447  0  2.327823  0
O  O154  1  0.99609806  0.38750439  0.44179577  1  -1.169895  0  -0.309861  -0.535132  0  2.339165  0
O  O155  1  0.87502261  0.52584314  0.58093882  1  -1.154197  0  -0.311685  -0.533175  0  2.330671  0
O  O156  1  0.81530462  0.57746394  0.52277738  1  -1.174917  0  -0.321161  -0.547608  0  2.327019  0
O  O157  1  0.74989231  0.25054235  0.25073486  1  -1.222594  0  -0.570482  -1.030977  0  2.525521  0
O  O158  1  0.59603950  0.35862077  0.30322660  1  -1.161716  0  -0.318414  -0.545183  0  2.319897  0
O  O159  1  0.66543923  0.16405972  0.21893663  1  -1.180412  0  -0.30955  -0.533443  0  2.338173  0
O  O160  1  0.72489319  0.37506952  0.16928995  1  -1.156101  0  -0.315292  -0.536911  0  2.324543  0
O  O161  1  0.59432834  0.24437735  0.29999020  1  -1.159318  0  -0.312762  -0.534096  0  2.325197  0
O  O162  1  0.67215191  0.43449569  0.22731976  1  -1.177912  0  -0.318679  -0.545917  0  2.320841  0
O  O163  1  0.72002662  0.21922716  0.16475819  1  -1.161083  0  -0.311451  -0.560425  0  2.368589  0
O  O164  1  0.87641395  0.22359916  0.16927059  1  -1.161228  0  -0.321576  -0.547772  0  2.321789  0
O  O165  1  0.86224021  0.25551786  0.30887161  1  -1.171463  0  -0.311188  -0.541159  0  2.342595  0
O  O166  1  0.93382219  0.17346633  0.22821638  1  -1.135215  0  -0.312202  -0.534257  0  2.327676  0
O  O167  1  0.75286490  0.36440433  0.30856903  1  -1.176022  0  -0.313584  -0.544839  0  2.338672  0
O  O168  1  0.74574208  0.09281608  0.30001507  1  -1.168045  0  -0.318569  -0.545052  0  2.322584  0
O  O169  1  0.85853235  0.09778384  0.30360594  1  -1.155888  0  -0.311116  -0.531352  0  2.326125  0
O  O170  1  0.24996336  0.74910377  0.74967763  1  -1.217665  0  -0.570473  -1.03143  0  2.528741  0
O  O171  1  0.37494468  0.72461872  0.66899852  1  -1.154685  0  -0.311123  -0.530916  0  2.33078  0
O  O172  1  0.36226249  0.75473035  0.80786663  1  -1.178849  0  -0.309203  -0.534434  0  2.339222  0
O  O173  1  0.17218601  0.93388942  0.72744955  1  -1.177507  0  -0.321581  -0.548157  0  2.321314  0
O  O174  1  0.43440015  0.67287030  0.72726001  1  -1.175623  0  -0.31884  -0.545612  0  2.32324  0
O  O175  1  0.22431885  0.87493015  0.66923211  1  -1.155725  0  -0.310521  -0.530536  0  2.329969  0
O  O176  1  0.25254817  0.86284281  0.80782055  1  -1.17584  0  -0.312382  -0.561658  0  2.366989  0
O  O177  1  0.09617643  0.85806204  0.80320916  1  -1.178614  0  -0.321787  -0.548493  0  2.323369  0
O  O178  1  0.16464548  0.66365612  0.71831274  1  -1.15467  0  -0.312375  -0.543513  0  2.338582  0
O  O179  1  0.09397426  0.74427621  0.79952777  1  -1.16612  0  -0.312506  -0.534982  0  2.32476  0
O  O180  1  0.21868476  0.71895349  0.66369483  1  -1.169988  0  -0.311299  -0.541069  0  2.346391  0
O  O181  1  0.35858609  0.59736267  0.80297694  1  -1.15075  0  -0.31391  -0.535703  0  2.326014  0
O  O182  1  0.24552697  0.59257420  0.79977466  1  -1.172785  0  -0.319392  -0.546014  0  2.321298  0
O  O183  1  0.50017928  0.99991310  0.99993295  1  -1.225763  0  -0.569855  -1.032634  0  2.520134  0
O  O184  1  0.50460491  0.15718854  0.94997494  1  -1.170628  0  -0.318932  -0.544533  0  2.322241  0
O  O185  1  0.38662766  0.99612032  0.94128669  1  -1.163364  0  -0.311296  -0.540006  0  2.339912  0
O  O186  1  0.65323779  0.89177055  0.94661044  1  -1.157698  0  -0.319595  -0.546825  0  2.317387  0
O  O187  1  0.39155092  0.15249839  0.94672937  1  -1.151001  0  -0.31162  -0.53114  0  2.327003  0
O  O188  1  0.65550696  0.00567982  0.94998762  1  -1.160405  0  -0.312517  -0.53305  0  2.325078  0
O  O189  1  0.49574611  0.88706487  0.94133304  1  -1.173566  0  -0.312919  -0.544541  0  2.333639  0
O  O190  1  0.57732454  0.81609996  0.02252862  1  -1.177732  0  -0.318506  -0.544942  0  2.317179  0
O  O191  1  0.53119853  0.03229762  0.08565725  1  -1.163301  0  -0.312198  -0.54289  0  2.336512  0
O  O192  1  0.52548971  0.87545011  0.08065759  1  -1.155187  0  -0.312115  -0.532678  0  2.321618  0
O  O193  1  0.58582569  0.08662072  0.03088490  1  -1.172805  0  -0.311816  -0.541801  0  2.3387  0
O  O194  1  0.31649368  0.07714207  0.02212001  1  -1.129513  0  -0.312092  -0.531865  0  2.327818  0
O  O195  1  0.37411369  0.02664369  0.08100985  1  -1.169492  0  -0.318436  -0.545094  0  2.319808  0
O  O196  1  0.78212978  0.51786200  0.39992947  1  -1.15373  0  -0.353352  -0.439361  0  2.2413  0
O  O197  1  0.15915414  0.65921600  0.54097949  1  -1.144926  0  -0.353498  -0.438516  0  2.242261  0
O  O198  1  0.70893011  0.20894270  0.09098613  1  -1.157913  0  -0.35384  -0.440062  0  2.242526  0
O  O199  1  0.23217034  0.96784494  0.84992177  1  -1.154536  0  -0.354088  -0.440068  0  2.241083  0
F  F200  1  0.28790566  0.52278122  0.40921979  1  -0.616834  0  -0.082714  -0.099333  0  1.348446  0
F  F201  1  0.46205027  0.22722526  0.34072871  1  -0.616473  0  -0.083962  -0.101036  0  1.347661  0
F  F202  1  0.77689542  0.54168734  0.65553328  1  -0.620003  0  -0.082937  -0.099806  0  1.349208  0
F  F203  1  0.47296629  0.70840731  0.59446317  1  -0.620361  0  -0.08236  -0.099042  0  1.3498  0
F  F204  1  0.04204256  0.27634667  0.65543164  1  -0.614535  0  -0.082992  -0.099799  0  1.347821  0
F  F205  1  0.20830185  0.97305895  0.59471477  1  -0.61832  0  -0.08311  -0.099711  0  1.348114  0
F  F206  1  0.78743057  0.78012850  0.40138674  1  -0.61251  0  -0.083113  -0.100301  0  1.34663  0
F  F207  1  0.96260394  0.96976567  0.34882856  1  -0.612013  0  -0.082535  -0.099265  0  1.347771  0
F  F208  1  0.70811794  0.47349925  0.09449994  1  -0.617403  0  -0.08401  -0.10058  0  1.34637  0
F  F209  1  0.54179644  0.77671703  0.15541940  1  -0.619419  0  -0.084977  -0.10221  0  1.347434  0
F  F210  1  0.09487845  0.10226743  0.21637786  1  -0.619863  0  -0.084266  -0.101269  0  1.347187  0
F  F211  1  0.15555421  0.14730550  0.03385364  1  -0.614686  0  -0.08251  -0.098961  0  1.348355  0
F  F212  1  0.46237460  0.47003590  0.84864720  1  -0.612091  0  -0.084483  -0.101595  0  1.347026  0
F  F213  1  0.28755169  0.28010982  0.90137094  1  -0.610465  0  -0.08297  -0.099781  0  1.347535  0
F  F214  1  0.96194509  0.72698108  0.84076933  1  -0.617403  0  -0.084043  -0.100941  0  1.348227  0
F  F215  1  0.78787074  0.02264419  0.90921472  1  -0.61532  0  -0.083464  -0.1001  0  1.347884  0
