# generated using pymatgen
data_ZnH24C21(NO2)2
_symmetry_space_group_name_H-M   'P 1'
_cell_length_a   10.04626153
_cell_length_b   10.81714425
_cell_length_c   11.89762030
_cell_angle_alpha   81.25996877
_cell_angle_beta   90.45556358
_cell_angle_gamma   71.63926327
_symmetry_Int_Tables_number   1
_chemical_formula_structural   ZnH24C21(NO2)2
_chemical_formula_sum   'Zn2 H48 C42 N4 O8'
_cell_volume   1210.71767448
_cell_formula_units_Z   2
loop_
 _symmetry_equiv_pos_site_id
 _symmetry_equiv_pos_as_xyz
  1  'x, y, z'
loop_
 _atom_site_type_symbol
 _atom_site_label
 _atom_site_symmetry_multiplicity
 _atom_site_fract_x
 _atom_site_fract_y
 _atom_site_fract_z
 _atom_site_occupancy
 _atom_site_hle17_bader_spin_density
 _atom_site_hle17_ddec_charge
 _atom_site_hle17_ddec_spin_density
 _atom_site_hle17_ddec_sum_bond_order
 _atom_site_hle17_magmom
 _atom_site_hse06_10hf_bader_spin_density
 _atom_site_hse06_10hf_ddec_charge
 _atom_site_hse06_10hf_ddec_spin_density
 _atom_site_hse06_10hf_ddec_sum_bond_order
 _atom_site_hse06_10hf_magmom
 _atom_site_hse06_bader_spin_density
 _atom_site_hse06_ddec_charge
 _atom_site_hse06_ddec_spin_density
 _atom_site_hse06_ddec_sum_bond_order
 _atom_site_hse06_magmom
 _atom_site_pbe_bader_spin_density
 _atom_site_pbe_cm5_charge
 _atom_site_pbe_ddec_charge
 _atom_site_pbe_ddec_spin_density
 _atom_site_pbe_ddec_sum_bond_order
 _atom_site_pbe_magmom
Zn  Zn0  1  0.70383801  0.08878788  0.49059059  1  0  0.981162  0  1.891956  0  0  0.787506  0  2.36994  0  0  0.834781  0  2.315593  0  0  0.687228  0.754737  0  2.406773  0
Zn  Zn1  1  0.29615472  0.91120909  0.50940707  1  0  0.981261  0  1.891843  0  0  0.787606  0  2.369824  0  0  0.834881  0  2.31547  0  0  0.687284  0.754826  0  2.406651  0
H  H2  1  0.00128915  0.30610628  0.57649260  1  0  0.055184  0  0.939661  0  0  0.066599  0  1.004257  0  0  0.067759  0  1.004948  0  0  0.090189  0.065732  0  1.003934  0
H  H3  1  0.99870347  0.69389663  0.42350426  1  0  0.055123  0  0.939639  0  0  0.06656  0  1.004217  0  0  0.067721  0  1.004906  0  0  0.090162  0.065694  0  1.003895  0
H  H4  1  0.89259275  0.34376932  0.76582423  1  0  0.059092  0  0.960447  0  0  0.075469  0  1.026393  0  0  0.076493  0  1.026462  0  0  0.081093  0.074693  0  1.02629  0
H  H5  1  0.10740248  0.65623463  0.23417082  1  0  0.059152  0  0.96048  0  0  0.075518  0  1.02643  0  0  0.076532  0  1.026507  0  0  0.081117  0.074746  0  1.026316  0
H  H6  1  0.94195065  0.47673836  0.69181645  1  0  0.04571  0  0.952839  0  0  0.062148  0  1.023953  0  0  0.062625  0  1.024835  0  0  0.076202  0.061671  0  1.023496  0
H  H7  1  0.05804430  0.52326359  0.30818055  1  0  0.045664  0  0.952877  0  0  0.062132  0  1.023964  0  0  0.062597  0  1.024858  0  0  0.076192  0.061652  0  1.023506  0
H  H8  1  0.64389251  0.45703734  0.70277781  1  0  0.084139  0  0.929265  0  0  0.102429  0  0.98573  0  0  0.10437  0  0.984443  0  0  0.091587  0.10087  0  0.986927  0
H  H9  1  0.35610236  0.54297052  0.29722176  1  0  0.084186  0  0.929196  0  0  0.102472  0  0.985674  0  0  0.104412  0  0.984386  0  0  0.091601  0.100911  0  0.986878  0
H  H10  1  0.70757693  0.56304103  0.76996672  1  0  0.052677  0  0.963139  0  0  0.067816  0  1.030001  0  0  0.068729  0  1.030073  0  0  0.077635  0.06699  0  1.030139  0
H  H11  1  0.29242329  0.43696295  0.23003169  1  0  0.0527  0  0.963177  0  0  0.067856  0  1.030027  0  0  0.06877  0  1.030091  0  0  0.077649  0.067035  0  1.03016  0
H  H12  1  0.74944270  0.67458174  0.57767609  1  0  0.053889  0  0.938209  0  0  0.06677  0  1.000764  0  0  0.067431  0  1.002513  0  0  0.089618  0.066566  0  0.999219  0
H  H13  1  0.25055254  0.32542512  0.42232529  1  0  0.053869  0  0.938186  0  0  0.066769  0  1.000783  0  0  0.067428  0  1.002538  0  0  0.089597  0.066568  0  0.999234  0
H  H14  1  0.61062304  0.49183113  0.48714251  1  0  0.075579  0  0.931216  0  0  0.096501  0  0.986607  0  0  0.096893  0  0.987986  0  0  0.093322  0.095308  0  0.987451  0
H  H15  1  0.38937076  0.50817972  0.51285414  1  0  0.075638  0  0.931162  0  0  0.096511  0  0.986602  0  0  0.096896  0  0.987994  0  0  0.093355  0.095326  0  0.987443  0
H  H16  1  0.65106042  0.62317894  0.40383341  1  0  0.065561  0  0.939981  0  0  0.084837  0  0.999134  0  0  0.086101  0  0.99872  0  0  0.087679  0.083989  0  0.999289  0
H  H17  1  0.34893708  0.37682996  0.59616519  1  0  0.065583  0  0.940121  0  0  0.08482  0  0.999282  0  0  0.086105  0  0.998844  0  0  0.087692  0.083961  0  0.999448  0
H  H18  1  0.90384452  0.51815410  0.45922027  1  0  0.053701  0  0.972828  0  0  0.072431  0  1.040359  0  0  0.073008  0  1.041019  0  0  0.08224  0.071423  0  1.041254  0
H  H19  1  0.09615304  0.48184888  0.54077576  1  0  0.05371  0  0.972837  0  0  0.072466  0  1.040336  0  0  0.073044  0  1.040993  0  0  0.082259  0.071457  0  1.04123  0
H  H20  1  0.83839686  0.40542962  0.40111122  1  0  0.069215  0  0.953108  0  0  0.086176  0  1.016593  0  0  0.087782  0  1.015678  0  0  0.086961  0.085243  0  1.016904  0
H  H21  1  0.16159536  0.59457725  0.59888512  1  0  0.069231  0  0.953065  0  0  0.08616  0  1.016606  0  0  0.087766  0  1.015691  0  0  0.086928  0.08523  0  1.016913  0
H  H22  1  0.66301571  0.85250396  0.40087048  1  0  0.094587  0  0.976365  0  0  0.098278  0  1.048586  0  0  0.102128  0  1.044673  0  0  0.117058  0.095415  0  1.051418  0
H  H23  1  0.33699197  0.14747333  0.59913403  1  0  0.094613  0  0.976399  0  0  0.098292  0  1.048594  0  0  0.102137  0  1.044689  0  0  0.117087  0.095431  0  1.051447  0
H  H24  1  0.73103046  0.74177700  0.23225122  1  0  0.109641  0  0.948771  0  0  0.122007  0  1.004243  0  0  0.124922  0  1.003925  0  0  0.112197  0.119955  0  1.004522  0
H  H25  1  0.26899467  0.25820153  0.76774979  1  0  0.109685  0  0.948688  0  0  0.122055  0  1.004149  0  0  0.12497  0  1.003831  0  0  0.112254  0.119988  0  1.004445  0
H  H26  1  0.94830207  0.02236499  0.12233557  1  0  0.104747  0  0.944443  0  0  0.11687  0  1.001786  0  0  0.119998  0  1.001398  0  0  0.108005  0.114642  0  1.002206  0
H  H27  1  0.05170536  0.97763006  0.87767497  1  0  0.104705  0  0.944402  0  0  0.116861  0  1.001722  0  0  0.119987  0  1.001333  0  0  0.10801  0.114632  0  1.002141  0
H  H28  1  0.86485452  0.12603509  0.29350800  1  0  0.082709  0  0.953025  0  0  0.091968  0  1.016721  0  0  0.094193  0  1.014652  0  0  0.12129  0.090326  0  1.018156  0
H  H29  1  0.13514885  0.87394897  0.70650652  1  0  0.082751  0  0.952963  0  0  0.092028  0  1.016647  0  0  0.094255  0  1.014577  0  0  0.121305  0.090409  0  1.018053  0
H  H30  1  0.95776092  0.85468185  0.57099985  1  0  0.092692  0  0.973851  0  0  0.096813  0  1.044435  0  0  0.100319  0  1.041278  0  0  0.116659  0.094183  0  1.046645  0
H  H31  1  0.04223377  0.14531808  0.42899994  1  0  0.092665  0  0.973845  0  0  0.096794  0  1.044428  0  0  0.100297  0  1.041278  0  0  0.116649  0.094163  0  1.046635  0
H  H32  1  0.03795617  0.68710586  0.74490033  1  0  0.107508  0  0.943308  0  0  0.120144  0  0.999125  0  0  0.123539  0  0.997766  0  0  0.1111  0.117663  0  1.000309  0
H  H33  1  0.96203853  0.31289113  0.25509649  1  0  0.107468  0  0.943365  0  0  0.1201  0  0.999187  0  0  0.123495  0  0.997829  0  0  0.11108  0.117619  0  1.000369  0
H  H34  1  0.62080403  0.83168504  0.86469248  1  0  0.11059  0  0.932809  0  0  0.125081  0  0.982033  0  0  0.128272  0  0.981667  0  0  0.11353  0.122837  0  0.982388  0
H  H35  1  0.37919395  0.16831690  0.13530957  1  0  0.110631  0  0.932774  0  0  0.125096  0  0.982028  0  0  0.128287  0  0.981662  0  0  0.113525  0.122854  0  0.982384  0
H  H36  1  0.55778792  0.99736189  0.68708709  1  0  0.083187  0  0.939995  0  0  0.09317  0  1.001674  0  0  0.095155  0  1.000077  0  0  0.122407  0.091787  0  1.002671  0
H  H37  1  0.44220901  0.00264302  0.31291456  1  0  0.08317  0  0.940081  0  0  0.09316  0  1.001746  0  0  0.095145  0  1.000148  0  0  0.122407  0.091775  0  1.002745  0
H  H38  1  0.85719616  0.89180668  0.98148684  1  0  0.08292  0  0.927733  0  0  0.102675  0  0.983981  0  0  0.103529  0  0.984451  0  0  0.099071  0.102099  0  0.983657  0
H  H39  1  0.14281073  0.10819537  0.01851521  1  0  0.082792  0  0.927733  0  0  0.102567  0  0.984011  0  0  0.10342  0  0.984481  0  0  0.099007  0.101987  0  0.983693  0
H  H40  1  0.00722695  0.77864752  0.05869570  1  0  0.08795  0  0.913004  0  0  0.109537  0  0.966145  0  0  0.110712  0  0.965558  0  0  0.103346  0.108661  0  0.966592  0
H  H41  1  0.99278351  0.22135561  0.94130116  1  0  0.087873  0  0.912993  0  0  0.109512  0  0.96613  0  0  0.110688  0  0.96554  0  0  0.103354  0.108636  0  0.966577  0
H  H42  1  0.72213646  0.73134954  0.03863312  1  0  0.066375  0  0.928128  0  0  0.087333  0  0.982726  0  0  0.088111  0  0.982932  0  0  0.095504  0.086747  0  0.982628  0
H  H43  1  0.27786995  0.26865947  0.96136548  1  0  0.066383  0  0.928235  0  0  0.087363  0  0.982786  0  0  0.088144  0  0.98299  0  0  0.095513  0.086776  0  0.982689  0
H  H44  1  0.87602629  0.61774406  0.11094209  1  0  0.066971  0  0.934547  0  0  0.08726  0  0.99431  0  0  0.087909  0  0.994759  0  0  0.094518  0.086743  0  0.994038  0
H  H45  1  0.12397561  0.38225796  0.88905659  1  0  0.067012  0  0.934512  0  0  0.08727  0  0.994288  0  0  0.08792  0  0.994739  0  0  0.09452  0.086756  0  0.994013  0
H  H46  1  0.00021973  0.60494914  0.93192186  1  0  0.075117  0  0.937422  0  0  0.093132  0  0.997948  0  0  0.094109  0  0.997835  0  0  0.095657  0.092411  0  0.998044  0
H  H47  1  0.99978123  0.39504698  0.06807172  1  0  0.075161  0  0.93736  0  0  0.093157  0  0.997906  0  0  0.094133  0  0.997793  0  0  0.095662  0.092436  0  0.998002  0
H  H48  1  0.84517765  0.56281107  0.92172794  1  0  0.0918  0  0.918069  0  0  0.114618  0  0.968314  0  0  0.115403  0  0.968564  0  0  0.10548  0.114032  0  0.96819  0
H  H49  1  0.15481672  0.43718983  0.07827509  1  0  0.091812  0  0.918053  0  0  0.114628  0  0.968291  0  0  0.115412  0  0.968541  0  0  0.105482  0.114042  0  0.968167  0
C  C50  1  0.88784951  0.35525764  0.58317356  1  0  -0.112942  0  3.626788  0  0  -0.108873  0  3.863266  0  0  -0.114954  0  3.879059  0  0  -0.092395  -0.104831  0  3.852513  0
C  C51  1  0.11214642  0.64474433  0.41682176  1  0  -0.113018  0  3.626859  0  0  -0.108934  0  3.863306  0  0  -0.115009  0  3.879088  0  0  -0.092443  -0.104892  0  3.852551  0
C  C52  1  0.86700855  0.42101992  0.69016628  1  0  -0.115191  0  3.692594  0  0  -0.161706  0  3.955116  0  0  -0.162395  0  3.969929  0  0  -0.172597  -0.16101  0  3.944754  0
C  C53  1  0.13298704  0.57898304  0.30982975  1  0  -0.115179  0  3.692708  0  0  -0.161697  0  3.955207  0  0  -0.162376  0  3.970027  0  0  -0.172577  -0.160997  0  3.944836  0
C  C54  1  0.71732089  0.51425051  0.69445109  1  0  -0.123853  0  3.695578  0  0  -0.166624  0  3.949586  0  0  -0.167146  0  3.963047  0  0  -0.172642  -0.166042  0  3.940193  0
C  C55  1  0.28267628  0.48575642  0.30554525  1  0  -0.123897  0  3.695565  0  0  -0.166683  0  3.949699  0  0  -0.1672  0  3.963145  0  0  -0.172668  -0.166114  0  3.940317  0
C  C56  1  0.67469704  0.61788714  0.58681876  1  0  -0.112374  0  3.657784  0  0  -0.108467  0  3.892196  0  0  -0.114831  0  3.908666  0  0  -0.0952  -0.104205  0  3.880621  0
C  C57  1  0.32529950  0.38211878  0.41317939  1  0  -0.112334  0  3.657607  0  0  -0.10858  0  3.892279  0  0  -0.114959  0  3.908786  0  0  -0.095199  -0.104319  0  3.880708  0
C  C58  1  0.68431992  0.54911700  0.48150710  1  0  -0.107948  0  3.649051  0  0  -0.150622  0  3.903198  0  0  -0.151297  0  3.917164  0  0  -0.162592  -0.149643  0  3.894116  0
C  C59  1  0.31567559  0.45089187  0.51849150  1  0  -0.108045  0  3.649259  0  0  -0.150586  0  3.903404  0  0  -0.151268  0  3.917366  0  0  -0.162598  -0.149605  0  3.894335  0
C  C60  1  0.83365799  0.45770750  0.47394615  1  0  -0.118591  0  3.66948  0  0  -0.166367  0  3.93026  0  0  -0.166633  0  3.943659  0  0  -0.169114  -0.16575  0  3.921228  0
C  C61  1  0.16633656  0.54229841  0.52605032  1  0  -0.118596  0  3.669597  0  0  -0.166396  0  3.930383  0  0  -0.166664  0  3.943786  0  0  -0.169131  -0.16578  0  3.921347  0
C  C62  1  0.82075304  0.24507563  0.58907969  1  0  0.653329  0  3.837647  0  0  0.607823  0  4.135098  0  0  0.639619  0  4.130612  0  0  0.196302  0.586263  0  4.137223  0
C  C63  1  0.17923688  0.75493217  0.41091989  1  0  0.653611  0  3.837463  0  0  0.608096  0  4.134884  0  0  0.639891  0  4.130392  0  0  0.196474  0.586534  0  4.137013  0
C  C64  1  0.52937197  0.71807564  0.58887517  1  0  0.646915  0  3.86173  0  0  0.598019  0  4.165077  0  0  0.630024  0  4.1604  0  0  0.193255  0.576184  0  4.167709  0
C  C65  1  0.47062463  0.28192730  0.41112338  1  0  0.647104  0  3.8616  0  0  0.598212  0  4.165009  0  0  0.630221  0  4.160322  0  0  0.193285  0.57638  0  4.16764  0
C  C66  1  0.72664140  0.88711963  0.33683896  1  0  0.122617  0  3.694442  0  0  0.090141  0  3.950397  0  0  0.09763  0  3.967532  0  0  0.048993  0.085472  0  3.938608  0
C  C67  1  0.27337380  0.11286171  0.66316502  1  0  0.122395  0  3.694393  0  0  0.089933  0  3.950398  0  0  0.097429  0  3.967534  0  0  0.048755  0.085244  0  3.938613  0
C  C68  1  0.76492209  0.82606389  0.24171355  1  0  -0.173139  0  3.703089  0  0  -0.190925  0  3.948129  0  0  -0.200163  0  3.97077  0  0  -0.083405  -0.184949  0  3.932693  0
C  C69  1  0.23509894  0.17392348  0.75828879  1  0  -0.172913  0  3.702905  0  0  -0.190773  0  3.947853  0  0  -0.200012  0  3.97049  0  0  -0.083253  -0.184785  0  3.93243  0
C  C70  1  0.84566502  0.87294913  0.16108329  1  0  0.161543  0  3.709692  0  0  0.177003  0  3.948241  0  0  0.18285  0  3.970855  0  0  0.017934  0.173344  0  3.932639  0
C  C71  1  0.15435189  0.12704710  0.83891870  1  0  0.161243  0  3.709902  0  0  0.176964  0  3.948196  0  0  0.182808  0  3.970814  0  0  0.017847  0.173307  0  3.932588  0
C  C72  1  0.88400089  0.98202765  0.18115321  1  0  -0.168321  0  3.703795  0  0  -0.186022  0  3.948089  0  0  -0.194949  0  3.969856  0  0  -0.081531  -0.180317  0  3.933361  0
C  C73  1  0.11600472  0.01797240  0.81884910  1  0  -0.168279  0  3.703914  0  0  -0.186066  0  3.948179  0  0  -0.194987  0  3.96994  0  0  -0.081562  -0.180363  0  3.933457  0
C  C74  1  0.84004078  0.03951675  0.27649809  1  0  0.147755  0  3.696654  0  0  0.114626  0  3.944186  0  0  0.122756  0  3.962057  0  0  0.054814  0.10948  0  3.931791  0
C  C75  1  0.15996609  0.96047138  0.72351001  1  0  0.147754  0  3.696616  0  0  0.114555  0  3.944255  0  0  0.122687  0  3.962133  0  0  0.054769  0.109389  0  3.931846  0
C  C76  1  0.88517047  0.84714481  0.63776483  1  0  0.132786  0  3.692995  0  0  0.0981  0  3.950296  0  0  0.105919  0  3.967176  0  0  0.050614  0.093136  0  3.938278  0
C  C77  1  0.11482988  0.15285321  0.36223606  1  0  0.13283  0  3.69299  0  0  0.098138  0  3.950297  0  0  0.105957  0  3.967178  0  0  0.050647  0.093176  0  3.938275  0
C  C78  1  0.92987159  0.75359166  0.73581097  1  0  -0.179201  0  3.712556  0  0  -0.197645  0  3.963598  0  0  -0.206843  0  3.985477  0  0  -0.082984  -0.191891  0  3.948966  0
C  C79  1  0.07012347  0.24640434  0.26418682  1  0  -0.179119  0  3.712546  0  0  -0.197571  0  3.96356  0  0  -0.206761  0  3.985419  0  0  -0.082974  -0.191816  0  3.948927  0
C  C80  1  0.83713306  0.74575918  0.82151362  1  0  0.156091  0  3.721567  0  0  0.17063  0  3.962299  0  0  0.1763  0  3.985232  0  0  0.015058  0.167204  0  3.946654  0
C  C81  1  0.16286559  0.25424081  0.17848616  1  0  0.155907  0  3.721717  0  0  0.170506  0  3.962344  0  0  0.176177  0  3.985277  0  0  0.015004  0.16708  0  3.946697  0
C  C82  1  0.69966833  0.83375306  0.80272657  1  0  -0.165321  0  3.689805  0  0  -0.182115  0  3.935264  0  0  -0.190891  0  3.956456  0  0  -0.077461  -0.176582  0  3.920898  0
C  C83  1  0.30032797  0.16624791  0.19727140  1  0  -0.165246  0  3.689839  0  0  -0.182034  0  3.935274  0  0  -0.190812  0  3.956466  0  0  -0.077412  -0.176503  0  3.920909  0
C  C84  1  0.66269137  0.92575892  0.70347428  1  0  0.159794  0  3.685145  0  0  0.125576  0  3.936999  0  0  0.134415  0  3.953603  0  0  0.061141  0.120128  0  3.925385  0
C  C85  1  0.33730757  0.07424305  0.29652525  1  0  0.159803  0  3.685209  0  0  0.125581  0  3.937067  0  0  0.134421  0  3.953669  0  0  0.061141  0.120133  0  3.925452  0
C  C86  1  0.89118622  0.81247023  0.05601599  1  0  -0.166359  0  3.714259  0  0  -0.211964  0  3.972051  0  0  -0.21339  0  3.983883  0  0  -0.154709  -0.21083  0  3.963592  0
C  C87  1  0.10882564  0.18752895  0.94398224  1  0  -0.16592  0  3.714125  0  0  -0.211737  0  3.971989  0  0  -0.213162  0  3.983826  0  0  -0.154604  -0.2106  0  3.963525  0
C  C88  1  0.83763111  0.69901732  0.03870641  1  0  -0.093895  0  3.70067  0  0  -0.138103  0  3.969007  0  0  -0.13842  0  3.982321  0  0  -0.159979  -0.137702  0  3.959654  0
C  C89  1  0.16237675  0.30098477  0.96129310  1  0  -0.094102  0  3.701006  0  0  -0.13826  0  3.969313  0  0  -0.138579  0  3.982628  0  0  -0.160026  -0.137858  0  3.959958  0
C  C90  1  0.88487279  0.64571833  0.92839594  1  0  -0.163099  0  3.703673  0  0  -0.209663  0  3.963978  0  0  -0.211142  0  3.97631  0  0  -0.153757  -0.208502  0  3.955212  0
C  C91  1  0.11512819  0.35428070  0.07160398  1  0  -0.163085  0  3.703723  0  0  -0.209659  0  3.963972  0  0  -0.211138  0  3.976304  0  0  -0.153764  -0.208497  0  3.955204  0
N  N92  1  0.76308666  0.99270417  0.35370293  1  0  -0.325305  0  3.306598  0  0  -0.242663  0  3.585655  0  0  -0.261889  0  3.599403  0  0  -0.330628  -0.229791  0  3.576011  0
N  N93  1  0.23692152  0.00728301  0.64630278  1  0  -0.325248  0  3.306423  0  0  -0.242579  0  3.585481  0  0  -0.261821  0  3.599237  0  0  -0.330521  -0.229691  0  3.575835  0
N  N94  1  0.75385584  0.93300187  0.62253943  1  0  -0.327402  0  3.319974  0  0  -0.244009  0  3.59947  0  0  -0.263136  0  3.612701  0  0  -0.328812  -0.231121  0  3.589812  0
N  N95  1  0.24614350  0.06699615  0.37745978  1  0  -0.327443  0  3.320068  0  0  -0.244061  0  3.59959  0  0  -0.263186  0  3.612815  0  0  -0.328816  -0.23117  0  3.589928  0
O  O96  1  0.83800499  0.18675857  0.49877499  1  0  -0.680321  0  2.042056  0  0  -0.602356  0  2.315378  0  0  -0.632039  0  2.300946  0  0  -0.350336  -0.581621  0  2.324279  0
O  O97  1  0.16197672  0.81324713  0.50122569  1  0  -0.680525  0  2.04207  0  0  -0.602507  0  2.315324  0  0  -0.632188  0  2.300888  0  0  -0.350406  -0.581771  0  2.324225  0
O  O98  1  0.75613943  0.21568315  0.67227010  1  0  -0.610561  0  1.868253  0  0  -0.569793  0  2.074802  0  0  -0.590826  0  2.067541  0  0  -0.341047  -0.555412  0  2.079253  0
O  O99  1  0.24385715  0.78432274  0.32773142  1  0  -0.610663  0  1.868146  0  0  -0.569905  0  2.074697  0  0  -0.590939  0  2.067433  0  0  -0.34111  -0.555522  0  2.07915  0
O  O100  1  0.44620547  0.70423159  0.66321150  1  0  -0.613664  0  1.869241  0  0  -0.570349  0  2.080083  0  0  -0.592063  0  2.072276  0  0  -0.339331  -0.555149  0  2.085017  0
O  O101  1  0.55378892  0.29576636  0.33678856  1  0  -0.613745  0  1.869218  0  0  -0.5704  0  2.080044  0  0  -0.592112  0  2.07223  0  0  -0.339361  -0.5552  0  2.084979  0
O  O102  1  0.49847741  0.81860320  0.50502349  1  0  -0.676048  0  2.020161  0  0  -0.601242  0  2.296888  0  0  -0.630795  0  2.281989  0  0  -0.349191  -0.580605  0  2.306432  0
O  O103  1  0.50151591  0.18139772  0.49497448  1  0  -0.676125  0  2.020236  0  0  -0.601287  0  2.296933  0  0  -0.630841  0  2.282039  0  0  -0.349158  -0.580654  0  2.306483  0
