# generated using pymatgen
data_Zn4H24C48N2O17
_symmetry_space_group_name_H-M   'P 1'
_cell_length_a   18.48360853
_cell_length_b   18.48355602
_cell_length_c   28.89656536
_cell_angle_alpha   108.62559261
_cell_angle_beta   108.62544246
_cell_angle_gamma   90.06689582
_symmetry_Int_Tables_number   1
_chemical_formula_structural   Zn4H24C48N2O17
_chemical_formula_sum   'Zn8 H48 C96 N4 O34'
_cell_volume   8806.57934421
_cell_formula_units_Z   2
loop_
 _symmetry_equiv_pos_site_id
 _symmetry_equiv_pos_as_xyz
  1  'x, y, z'
loop_
 _atom_site_type_symbol
 _atom_site_label
 _atom_site_symmetry_multiplicity
 _atom_site_fract_x
 _atom_site_fract_y
 _atom_site_fract_z
 _atom_site_occupancy
 _atom_site_pbe_bader_charge
 _atom_site_pbe_bader_spin_density
 _atom_site_pbe_cm5_charge
 _atom_site_pbe_ddec_charge
 _atom_site_pbe_ddec_spin_density
 _atom_site_pbe_ddec_sum_bond_order
 _atom_site_pbe_magmom
Zn  Zn0  1  0.43605163  0.02214673  0.04408563  1  1.306794  0  0.669534  0.957044  0  2.395966  0
Zn  Zn1  1  0.02214734  0.43605106  0.04408559  1  1.306786  0  0.669556  0.957103  0  2.396031  0
Zn  Zn2  1  0.60792904  0.02189378  0.04405762  1  1.310659  0  0.669202  0.956358  0  2.396922  0
Zn  Zn3  1  0.02189445  0.60792975  0.04405745  1  1.310632  0  0.669266  0.956474  0  2.396813  0
Zn  Zn4  1  0.47791681  0.89091155  0.95561268  1  1.315245  0  0.669572  0.957685  0  2.374661  0
Zn  Zn5  1  0.06465149  0.47769783  0.95561093  1  1.320382  0  0.669624  0.957758  0  2.374755  0
Zn  Zn6  1  0.47769906  0.06465162  0.95561091  1  1.320422  0  0.669667  0.95782  0  2.3747  0
Zn  Zn7  1  0.89091182  0.47791659  0.95561336  1  1.315343  0  0.669569  0.957682  0  2.374635  0
H  H8  1  0.21147327  0.30807240  0.89188535  1  0.02977  0  0.097935  0.108443  0  0.98155  0
H  H9  1  0.58387728  0.21133348  0.89190244  1  0.031714  0  0.098452  0.109175  0  0.979915  0
H  H10  1  0.68045591  0.58386805  0.89192002  1  0.061675  0  0.098239  0.108916  0  0.98072  0
H  H11  1  0.30803285  0.68057485  0.89190933  1  0.056838  0  0.098423  0.10904  0  0.980361  0
H  H12  1  0.21133586  0.58387520  0.89190221  1  0.031721  0  0.098426  0.109156  0  0.979914  0
H  H13  1  0.58386769  0.68045741  0.89192109  1  0.061684  0  0.098218  0.108893  0  0.980725  0
H  H14  1  0.68057618  0.30803077  0.89190893  1  0.056839  0  0.098428  0.109044  0  0.980368  0
H  H15  1  0.30807116  0.21147310  0.89188410  1  0.029761  0  0.097974  0.108511  0  0.981642  0
H  H16  1  0.28319246  0.37975956  0.94253626  1  0.063114  0  0.096523  0.105008  0  0.987086  0
H  H17  1  0.56285489  0.28297882  0.94255878  1  0.043622  0  0.096602  0.105203  0  0.987581  0
H  H18  1  0.65938427  0.56283120  0.94257139  1  0.065309  0  0.096698  0.105376  0  0.98741  0
H  H19  1  0.37970130  0.65952685  0.94255460  1  0.060963  0  0.096442  0.10462  0  0.987638  0
H  H20  1  0.28298219  0.56285163  0.94255812  1  0.043575  0  0.096572  0.105176  0  0.987608  0
H  H21  1  0.56283137  0.65938584  0.94257220  1  0.065305  0  0.096668  0.105315  0  0.987382  0
H  H22  1  0.65952895  0.37969845  0.94255486  1  0.061063  0  0.09647  0.104671  0  0.987557  0
H  H23  1  0.37975885  0.28319198  0.94253572  1  0.063135  0  0.096534  0.10503  0  0.987089  0
H  H24  1  0.84752348  0.44108422  0.54863263  1  0.141572  0  0.120119  0.126018  0  0.974984  0
H  H25  1  0.10750236  0.70110447  0.54858956  1  0.127464  0  0.120151  0.125637  0  0.975372  0
H  H26  1  0.70103709  0.10752569  0.54858727  1  0.127146  0  0.120108  0.125582  0  0.975434  0
H  H27  1  0.44111696  0.84745911  0.54863261  1  0.141211  0  0.120143  0.126006  0  0.975003  0
H  H28  1  0.76709477  0.15008431  0.30131290  1  0.031599  0  0.112282  0.120289  0  0.97608  0
H  H29  1  0.15126630  0.53427492  0.30132928  1  0.079805  0  0.112215  0.11997  0  0.976055  0
H  H30  1  0.53427709  0.15129176  0.30132977  1  0.079906  0  0.112129  0.11997  0  0.975797  0
H  H31  1  0.15011122  0.76709360  0.30131420  1  0.031626  0  0.112289  0.120309  0  0.976081  0
H  H32  1  0.71822380  0.10145666  0.20409813  1  0.086851  0  0.111968  0.116892  0  0.989519  0
H  H33  1  0.10264494  0.48592183  0.20411766  1  0.123756  0  0.111872  0.116069  0  0.989272  0
H  H34  1  0.48592120  0.10267201  0.20411801  1  0.124163  0  0.111928  0.116234  0  0.98907  0
H  H35  1  0.10147886  0.71822496  0.20409971  1  0.086738  0  0.111971  0.116891  0  0.989642  0
H  H36  1  0.96536936  0.34836772  0.69797305  1  0.071552  0  0.111776  0.119795  0  0.976947  0
H  H37  1  0.34953401  0.73260372  0.69798426  1  0.101762  0  0.11203  0.120367  0  0.977123  0
H  H38  1  0.73260271  0.34956320  0.69798482  1  0.101031  0  0.111975  0.120401  0  0.977032  0
H  H39  1  0.34839718  0.96537118  0.69797313  1  0.071442  0  0.11189  0.119944  0  0.976704  0
H  H40  1  0.01371662  0.39693105  0.79512831  1  0.123468  0  0.110589  0.115124  0  0.991572  0
H  H41  1  0.39815398  0.78141449  0.79514260  1  0.09085  0  0.110511  0.114887  0  0.991142  0
H  H42  1  0.78141351  0.39818143  0.79514304  1  0.091263  0  0.110471  0.11487  0  0.991266  0
H  H43  1  0.39696124  0.01371865  0.79512873  1  0.123244  0  0.110581  0.115167  0  0.991744  0
H  H44  1  0.26538295  0.17032032  0.05682294  1  0.076983  0  0.106904  0.113802  0  0.995104  0
H  H45  1  0.88648600  0.26549603  0.05683684  1  0.080825  0  0.106888  0.113406  0  0.99412  0
H  H46  1  0.79146189  0.88652186  0.05686982  1  0.074357  0  0.106827  0.113847  0  0.994693  0
H  H47  1  0.17029435  0.79126818  0.05683373  1  0.075218  0  0.107059  0.114198  0  0.995047  0
H  H48  1  0.26549661  0.88648465  0.05683623  1  0.080868  0  0.106864  0.113436  0  0.994083  0
H  H49  1  0.88652133  0.79146123  0.05686953  1  0.074377  0  0.106842  0.113902  0  0.994677  0
H  H50  1  0.79126961  0.17029421  0.05683520  1  0.075149  0  0.107094  0.114259  0  0.995144  0
H  H51  1  0.17032338  0.26538323  0.05682435  1  0.0771  0  0.106925  0.113814  0  0.995125  0
H  H52  1  0.79845038  0.39201499  0.45044903  1  0.12169  0  0.120261  0.125907  0  0.974232  0
H  H53  1  0.05846449  0.65207380  0.45040771  1  0.143989  0  0.120343  0.126115  0  0.973964  0
H  H54  1  0.65201136  0.05848798  0.45040470  1  0.145084  0  0.120334  0.126132  0  0.974041  0
H  H55  1  0.39204751  0.79837792  0.45044911  1  0.119742  0  0.120353  0.125936  0  0.974281  0
C  C56  1  0.42944655  0.92943380  0.85889395  1  1.567519  0  0.228907  0.606155  0  4.165779  0
C  C57  1  0.92943244  0.42944393  0.85889357  1  1.567511  0  0.228835  0.60603  0  4.166015  0
C  C58  1  0.76361725  0.26359055  0.52719061  1  -0.063435  0  0.00464  0.032503  0  4.000611  0
C  C59  1  0.26359203  0.76362120  0.52719213  1  -0.061994  0  0.004705  0.032744  0  4.000477  0
C  C60  1  0.81634214  0.38387113  0.52679002  1  -0.090726  0  -0.060494  -0.068251  0  3.927918  0
C  C61  1  0.14289073  0.71050630  0.52677564  1  0.071478  0  -0.060083  -0.066213  0  3.926677  0
C  C62  1  0.71045617  0.14290893  0.52677402  1  0.07216  0  -0.060058  -0.06595  0  3.926727  0
C  C63  1  0.38389278  0.81629640  0.52679011  1  -0.090616  0  -0.060568  -0.068361  0  3.927926  0
C  C64  1  0.78910191  0.35664473  0.47229364  1  0.073358  0  -0.059686  -0.066334  0  3.925931  0
C  C65  1  0.11566267  0.68326671  0.47228273  1  -0.132063  0  -0.061028  -0.068647  0  3.924854  0
C  C66  1  0.68322015  0.11567895  0.47228094  1  -0.132936  0  -0.060783  -0.068778  0  3.92505  0
C  C67  1  0.35666898  0.78905032  0.47229301  1  0.075282  0  -0.059753  -0.066315  0  3.926122  0
C  C68  1  0.74937329  0.28359498  0.44495319  1  -0.020203  0  -0.002832  -0.057643  0  3.980881  0
C  C69  1  0.16138507  0.69565567  0.44494518  1  0.034013  0  -0.002468  -0.057428  0  3.980273  0
C  C70  1  0.69563306  0.16139202  0.44494344  1  0.033882  0  -0.002498  -0.057304  0  3.980341  0
C  C71  1  0.28360942  0.74934277  0.44495289  1  -0.020876  0  -0.002759  -0.057494  0  3.981061  0
C  C72  1  0.73598992  0.23596534  0.47191432  1  0.080488  0  0.00456  0.030506  0  4.000734  0
C  C73  1  0.23596942  0.73598916  0.47191533  1  0.080982  0  0.004479  0.030271  0  4.000779  0
C  C74  1  0.72086674  0.25614510  0.38740870  1  1.277526  0  0.243978  0.436584  0  4.099134  0
C  C75  1  0.13133208  0.66661105  0.38740754  1  1.294617  0  0.244701  0.438293  0  4.096611  0
C  C76  1  0.66659286  0.13133569  0.38740506  1  1.295584  0  0.244435  0.438067  0  4.096341  0
C  C77  1  0.25615862  0.72084149  0.38740933  1  1.278787  0  0.243986  0.436519  0  4.099059  0
C  C78  1  0.70562378  0.13938401  0.27976054  1  -0.029917  0  -0.080557  -0.148787  0  3.973117  0
C  C79  1  0.14043623  0.57418430  0.27977047  1  0.064406  0  -0.081282  -0.149117  0  3.972589  0
C  C80  1  0.57418457  0.14044939  0.27976984  1  0.064329  0  -0.081238  -0.148992  0  3.972233  0
C  C81  1  0.13939870  0.70562428  0.27976184  1  -0.029861  0  -0.080579  -0.148904  0  3.972961  0
C  C82  1  0.67854969  0.11253257  0.22580416  1  0.073881  0  -0.074886  -0.07032  0  3.962863  0
C  C83  1  0.11331536  0.54729770  0.22581459  1  -0.118092  0  -0.074277  -0.068748  0  3.960857  0
C  C84  1  0.54729880  0.11333288  0.22581438  1  -0.118474  0  -0.074316  -0.069047  0  3.960863  0
C  C85  1  0.11254523  0.67854857  0.22580463  1  0.073896  0  -0.074907  -0.070298  0  3.963056  0
C  C86  1  0.59931305  0.09932686  0.19858911  1  0.019734  0  -0.014635  -0.041783  0  3.97377  0
C  C87  1  0.09932463  0.59931323  0.19858886  1  0.019857  0  -0.014614  -0.041828  0  3.973781  0
C  C88  1  0.65320986  0.15323573  0.30636943  1  0.328939  0  0.093815  0.201615  0  4.011778  0
C  C89  1  0.15323740  0.65320761  0.30636963  1  0.328864  0  0.093791  0.201735  0  4.011535  0
C  C90  1  0.57031809  0.07035312  0.14064857  1  1.543156  0  0.228624  0.604396  0  4.171038  0
C  C91  1  0.07035206  0.57031852  0.14064861  1  1.543159  0  0.228603  0.60438  0  4.17105  0
C  C92  1  0.92541939  0.35919992  0.71951076  1  0.07485  0  -0.080694  -0.148188  0  3.971505  0
C  C93  1  0.36024573  0.79408776  0.71951915  1  0.024006  0  -0.081409  -0.150776  0  3.974586  0
C  C94  1  0.79408741  0.36026022  0.71951893  1  0.024857  0  -0.081382  -0.150811  0  3.974766  0
C  C95  1  0.35921924  0.92542168  0.71951193  1  0.074886  0  -0.080764  -0.148365  0  3.971245  0
C  C96  1  0.95230820  0.38632697  0.77349343  1  -0.050331  0  -0.075939  -0.073654  0  3.96376  0
C  C97  1  0.38711014  0.82117774  0.77349637  1  -0.055612  0  -0.075511  -0.071824  0  3.962373  0
C  C98  1  0.82117612  0.38712451  0.77349621  1  -0.056119  0  -0.075356  -0.071663  0  3.96256  0
C  C99  1  0.38634335  0.95231061  0.77349371  1  -0.050216  0  -0.076007  -0.073786  0  3.963999  0
C  C100  1  0.90040864  0.40039120  0.80082631  1  -0.011269  0  -0.01548  -0.040274  0  3.968143  0
C  C101  1  0.40039322  0.90040964  0.80082653  1  -0.011297  0  -0.015428  -0.040198  0  3.96777  0
C  C102  1  0.84640339  0.34636788  0.69281657  1  0.244858  0  0.093939  0.199021  0  4.004487  0
C  C103  1  0.34637041  0.84640541  0.69281693  1  0.2451  0  0.093907  0.19909  0  4.00425  0
C  C104  1  0.36145682  0.86256313  0.00022977  1  1.549419  0  0.226701  0.609435  0  4.17577  0
C  C105  1  0.13770641  0.36135983  0.00017880  1  1.550642  0  0.226605  0.608503  0  4.17779  0
C  C106  1  0.63871035  0.13761932  0.00019056  1  1.564794  0  0.227419  0.609866  0  4.179069  0
C  C107  1  0.86248673  0.63884086  0.00022699  1  1.572056  0  0.226652  0.60825  0  4.176824  0
C  C108  1  0.36135783  0.13770302  0.00017641  1  1.550901  0  0.226532  0.6083  0  4.178271  0
C  C109  1  0.13762042  0.63870880  0.00018997  1  1.565177  0  0.227375  0.60985  0  4.179286  0
C  C110  1  0.63884200  0.86248734  0.00022767  1  1.572019  0  0.226642  0.608234  0  4.17689  0
C  C111  1  0.86256546  0.36145410  0.00022977  1  1.547628  0  0.226696  0.609461  0  4.175593  0
C  C112  1  0.29335393  0.23995280  0.96859997  1  0.022716  0  -0.003315  0.063412  0  3.886609  0
C  C113  1  0.72870453  0.29335528  0.96862534  1  0.036918  0  -0.002165  0.065493  0  3.882784  0
C  C114  1  0.67528330  0.72867861  0.96864857  1  0.098362  0  -0.002591  0.064574  0  3.88204  0
C  C115  1  0.23990263  0.67525258  0.96862153  1  -0.013022  0  -0.002264  0.064682  0  3.884769  0
C  C116  1  0.29335846  0.72870243  0.96862582  1  0.036639  0  -0.002152  0.06545  0  3.882703  0
C  C117  1  0.72867833  0.67528316  0.96864836  1  -0.022687  0  -0.002562  0.064641  0  3.882041  0
C  C118  1  0.67525456  0.23989884  0.96862077  1  -0.012497  0  -0.002244  0.064625  0  3.884824  0
C  C119  1  0.23995433  0.29335384  0.96860062  1  -0.097905  0  -0.003337  0.063294  0  3.886626  0
C  C120  1  0.30435790  0.19436828  0.99992926  1  -0.020807  0  -0.012986  -0.07797  0  3.980072  0
C  C121  1  0.80559935  0.30440402  0.99996476  1  -0.09608  0  -0.013615  -0.080188  0  3.980608  0
C  C122  1  0.69560357  0.80558984  0.99998391  1  -0.027138  0  -0.013427  -0.0789  0  3.97895  0
C  C123  1  0.19432415  0.69552729  0.99995380  1  0.011617  0  -0.013714  -0.078883  0  3.981006  0
C  C124  1  0.30440691  0.80559801  0.99996528  1  -0.095651  0  -0.013716  -0.080269  0  3.98055  0
C  C125  1  0.80558926  0.69560326  0.99998383  1  -0.027134  0  -0.013437  -0.078895  0  3.978877  0
C  C126  1  0.69552938  0.19432113  0.99995317  1  0.011419  0  -0.013721  -0.078877  0  3.981044  0
C  C127  1  0.19437076  0.30435892  0.99993053  1  -0.020873  0  -0.012999  -0.077925  0  3.980001  0
C  C128  1  0.25831413  0.20502063  0.03179834  1  0.066094  0  -0.083327  -0.099103  0  3.979915  0
C  C129  1  0.82676033  0.25836930  0.03182666  1  0.032004  0  -0.083123  -0.09738  0  3.97852  0
C  C130  1  0.77349991  0.82679448  0.03185809  1  0.00731  0  -0.083105  -0.098935  0  3.981393  0
C  C131  1  0.20501610  0.77341164  0.03182148  1  -0.066626  0  -0.082824  -0.099713  0  3.980888  0
C  C132  1  0.25837123  0.82675844  0.03182682  1  0.032012  0  -0.083091  -0.097401  0  3.978626  0
C  C133  1  0.82679389  0.77349948  0.03185780  1  -0.116656  0  -0.083108  -0.099073  0  3.98145  0
C  C134  1  0.77341309  0.20501403  0.03182205  1  -0.066662  0  -0.082828  -0.099737  0  3.980935  0
C  C135  1  0.20502212  0.25831351  0.03179880  1  -0.05782  0  -0.083243  -0.099042  0  3.980053  0
C  C136  1  0.25889716  0.31937002  0.92869478  1  -0.052211  0  -0.151452  -0.199629  0  3.892944  0
C  C137  1  0.60938501  0.25876772  0.92871357  1  0.00742  0  -0.152415  -0.201067  0  3.890013  0
C  C138  1  0.66984887  0.60937099  0.92873096  1  -0.094607  0  -0.152332  -0.201012  0  3.891104  0
C  C139  1  0.31933782  0.66993450  0.92872053  1  -0.042413  0  -0.152251  -0.200408  0  3.890372  0
C  C140  1  0.25877087  0.60938280  0.92871380  1  0.007578  0  -0.15232  -0.20097  0  3.88996  0
C  C141  1  0.60937149  0.66985020  0.92873126  1  -0.006317  0  -0.152266  -0.200862  0  3.890967  0
C  C142  1  0.66993592  0.31933436  0.92871973  1  -0.042431  0  -0.152315  -0.200471  0  3.890276  0
C  C143  1  0.31936933  0.25889604  0.92869396  1  0.036448  0  -0.151498  -0.199803  0  3.893117  0
C  C144  1  0.77866539  0.24342089  0.61168912  1  1.299789  0  0.24483  0.434242  0  4.09495  0
C  C145  1  0.36824402  0.83300473  0.61170360  1  1.314952  0  0.244105  0.431663  0  4.098855  0
C  C146  1  0.83302488  0.36823074  0.61170293  1  1.315539  0  0.244133  0.431713  0  4.098682  0
C  C147  1  0.24341260  0.77869478  0.61169012  1  1.299557  0  0.244706  0.434289  0  4.095128  0
C  C148  1  0.80396239  0.33818153  0.55416133  1  0.012405  0  -0.003299  -0.059077  0  3.98398  0
C  C149  1  0.21594831  0.75022556  0.55414529  1  0.010846  0  -0.003364  -0.060414  0  3.98425  0
C  C150  1  0.75019695  0.21595747  0.55414486  1  0.010681  0  -0.003509  -0.060577  0  3.983963  0
C  C151  1  0.33819469  0.80393919  0.55416228  1  0.011469  0  -0.003332  -0.059147  0  3.983813  0
N  N152  1  0.81840427  0.31837691  0.63681756  1  -1.181319  0  -0.22885  -0.210857  0  3.554329  0
N  N153  1  0.31837893  0.81840775  0.63681813  1  -1.181256  0  -0.228797  -0.210778  0  3.554382  0
N  N154  1  0.68119705  0.18120901  0.36233120  1  -1.214018  0  -0.228198  -0.225326  0  3.578303  0
N  N155  1  0.18121244  0.68119308  0.36233210  1  -1.213959  0  -0.228168  -0.225284  0  3.578108  0
O  O156  1  0.49969191  0.99970707  0.99945862  1  -1.234535  0  -0.572064  -1.025786  0  2.541026  0
O  O157  1  0.99970763  0.49969156  0.99945903  1  -1.234497  0  -0.572066  -1.025799  0  2.541043  0
O  O158  1  0.44051706  0.00227595  0.88129227  1  -1.150086  0  -0.315002  -0.548603  0  2.335673  0
O  O159  1  0.87896410  0.44077834  0.88128994  1  -1.179508  0  -0.315665  -0.548977  0  2.334476  0
O  O160  1  0.44077745  0.87896409  0.88128971  1  -1.179392  0  -0.315694  -0.54903  0  2.334404  0
O  O161  1  0.00227481  0.44051439  0.88129246  1  -1.15004  0  -0.314948  -0.548525  0  2.33565  0
O  O162  1  0.49750176  0.05927833  0.11824872  1  -1.151916  0  -0.315098  -0.546594  0  2.341255  0
O  O163  1  0.05927471  0.49750314  0.11824848  1  -1.151882  0  -0.315091  -0.546643  0  2.341319  0
O  O164  1  0.62072007  0.05901545  0.11822770  1  -1.177606  0  -0.314683  -0.546157  0  2.34038  0
O  O165  1  0.05901728  0.62072200  0.11822800  1  -1.177634  0  -0.314729  -0.546175  0  2.340279  0
O  O166  1  0.39858455  0.83764974  0.96884850  1  -1.153831  0  -0.311509  -0.543421  0  2.329626  0
O  O167  1  0.13119669  0.39839947  0.96872664  1  -1.15157  0  -0.311954  -0.543157  0  2.327528  0
O  O168  1  0.57020409  0.13121532  0.96882515  1  -1.17259  0  -0.312472  -0.544484  0  2.330214  0
O  O169  1  0.83753947  0.57034807  0.96879498  1  -1.171719  0  -0.311608  -0.543146  0  2.328067  0
O  O170  1  0.39839858  0.13119465  0.96872544  1  -1.151605  0  -0.311842  -0.542992  0  2.327661  0
O  O171  1  0.13121500  0.57020245  0.96882383  1  -1.172511  0  -0.312444  -0.544455  0  2.330328  0
O  O172  1  0.57034916  0.83754059  0.96879537  1  -1.171646  0  -0.311616  -0.543185  0  2.328107  0
O  O173  1  0.83765051  0.39858288  0.96884878  1  -1.152249  0  -0.311582  -0.543508  0  2.329463  0
O  O174  1  0.66279575  0.10043850  0.03148030  1  -1.170935  0  -0.314657  -0.543585  0  2.34267  0
O  O175  1  0.93091810  0.66293566  0.03159993  1  -1.175949  0  -0.314595  -0.543529  0  2.340253  0
O  O176  1  0.36865237  0.93100773  0.03154229  1  -1.172292  0  -0.31469  -0.543773  0  2.339696  0
O  O177  1  0.10064223  0.36861227  0.03155193  1  -1.175074  0  -0.314409  -0.543979  0  2.341769  0
O  O178  1  0.66293656  0.93091822  0.03160111  1  -1.175991  0  -0.314614  -0.543515  0  2.340258  0
O  O179  1  0.93100958  0.36865044  0.03154150  1  -1.172052  0  -0.314668  -0.54378  0  2.339757  0
O  O180  1  0.36860840  0.10063779  0.03154906  1  -1.175317  0  -0.314469  -0.54396  0  2.34192  0
O  O181  1  0.10043981  0.66279340  0.03147985  1  -1.171366  0  -0.314664  -0.543642  0  2.342749  0
O  O182  1  0.76903118  0.20397655  0.63676367  1  -1.092421  0  -0.273282  -0.429695  0  2.065763  0
O  O183  1  0.43277092  0.86766620  0.63679053  1  -1.097903  0  -0.273186  -0.428859  0  2.069925  0
O  O184  1  0.86770664  0.43274948  0.63678908  1  -1.098152  0  -0.27322  -0.428904  0  2.069834  0
O  O185  1  0.20396082  0.76907887  0.63676666  1  -1.092011  0  -0.273165  -0.429776  0  2.065729  0
O  O186  1  0.73041842  0.29561653  0.36232335  1  -1.088087  0  -0.271536  -0.427379  0  2.066769  0
O  O187  1  0.06681243  0.63194763  0.36232210  1  -1.097472  0  -0.272247  -0.428166  0  2.0651  0
O  O188  1  0.63191223  0.06682337  0.36232015  1  -1.097992  0  -0.272043  -0.427997  0  2.064682  0
O  O189  1  0.29563677  0.73037295  0.36232477  1  -1.088595  0  -0.271546  -0.427333  0  2.066672  0
