# generated using pymatgen
data_Ag2H12C18SN2O7
_symmetry_space_group_name_H-M   'P 1'
_cell_length_a   8.12770011
_cell_length_b   10.54303097
_cell_length_c   11.26776870
_cell_angle_alpha   105.09515190
_cell_angle_beta   97.14906882
_cell_angle_gamma   101.58894063
_symmetry_Int_Tables_number   1
_chemical_formula_structural   Ag2H12C18SN2O7
_chemical_formula_sum   'Ag4 H24 C36 S2 N4 O14'
_cell_volume   897.13014138
_cell_formula_units_Z   2
loop_
 _symmetry_equiv_pos_site_id
 _symmetry_equiv_pos_as_xyz
  1  'x, y, z'
loop_
 _atom_site_type_symbol
 _atom_site_label
 _atom_site_symmetry_multiplicity
 _atom_site_fract_x
 _atom_site_fract_y
 _atom_site_fract_z
 _atom_site_occupancy
 _atom_site_pbe_bader_spin_density
 _atom_site_pbe_cm5_charge
 _atom_site_pbe_ddec_charge
 _atom_site_pbe_ddec_spin_density
 _atom_site_pbe_ddec_sum_bond_order
 _atom_site_pbe_magmom
Ag  Ag0  1  0.87694553  0.06167309  0.96058949  1  0  0.412251  0.448404  0  1.92188  0
Ag  Ag1  1  0.12305798  0.93831696  0.03941259  1  0  0.412271  0.448417  0  1.921896  0
Ag  Ag2  1  0.11619629  0.38032010  0.00344974  1  0  0.490492  0.346448  0  2.003289  0
Ag  Ag3  1  0.88380379  0.61968211  0.99654775  1  0  0.490499  0.346466  0  2.003329  0
H  H4  1  0.53081499  0.90093893  0.76514074  1  0  0.350234  0.399247  0  0.832617  0
H  H5  1  0.46919023  0.09906841  0.23487000  1  0  0.350261  0.399208  0  0.832754  0
H  H6  1  0.39916050  0.71121269  0.34563736  1  0  0.108285  0.112186  0  1.030014  0
H  H7  1  0.60084172  0.28879667  0.65437001  1  0  0.10828  0.112217  0  1.029933  0
H  H8  1  0.81247144  0.02308544  0.60014153  1  0  0.109441  0.122739  0  1.008274  0
H  H9  1  0.18754018  0.97691474  0.39986817  1  0  0.109505  0.122844  0  1.008201  0
H  H10  1  0.93323219  0.06495885  0.41764200  1  0  0.102096  0.103461  0  1.030994  0
H  H11  1  0.06677973  0.93503826  0.58236523  1  0  0.102136  0.103558  0  1.030907  0
H  H12  1  0.84346235  0.29359701  0.15387357  1  0  0.117076  0.096332  0  1.008617  0
H  H13  1  0.15653017  0.70640824  0.84611589  1  0  0.117082  0.096276  0  1.008755  0
H  H14  1  0.83353014  0.29968972  0.37263037  1  0  0.106633  0.125593  0  1.059768  0
H  H15  1  0.16645788  0.70030951  0.62736256  1  0  0.106669  0.125613  0  1.059808  0
H  H16  1  0.38719703  0.41348828  0.44826922  1  0  0.104992  0.106974  0  1.049612  0
H  H17  1  0.61278996  0.58650795  0.55172734  1  0  0.104973  0.106882  0  1.049617  0
H  H18  1  0.37264871  0.40426985  0.22409653  1  0  0.123338  0.108177  0  0.992278  0
H  H19  1  0.62734448  0.59573041  0.77590337  1  0  0.123335  0.108183  0  0.992298  0
H  H20  1  0.37336196  0.48927021  0.63534929  1  0  0.108645  0.114127  0  1.023846  0
H  H21  1  0.62662979  0.51072490  0.36463861  1  0  0.108648  0.114078  0  1.023909  0
H  H22  1  0.36333938  0.49977226  0.85673042  1  0  0.12077  0.104437  0  1.015333  0
H  H23  1  0.63665919  0.50022484  0.14325950  1  0  0.120758  0.104325  0  1.015424  0
H  H24  1  0.85754519  0.28029214  0.76479572  1  0  0.11828  0.096723  0  1.016712  0
H  H25  1  0.14245949  0.71970494  0.23519924  1  0  0.118267  0.096662  0  1.016664  0
H  H26  1  0.84561719  0.26120401  0.53966833  1  0  0.10626  0.115281  0  1.057188  0
H  H27  1  0.15438119  0.73878909  0.46032863  1  0  0.106252  0.115231  0  1.057088  0
C  C28  1  0.81754389  0.95360426  0.17770855  1  0  0.20648  0.568231  0  4.220975  0
C  C29  1  0.18246008  0.04639901  0.82229845  1  0  0.206318  0.568308  0  4.220662  0
C  C30  1  0.72913484  0.91996979  0.27944093  1  0  0.005473  0.007746  0  3.891102  0
C  C31  1  0.27087140  0.08003647  0.72056345  1  0  0.005572  0.007854  0  3.890874  0
C  C32  1  0.57556799  0.82121722  0.25913091  1  0  -0.013396  -0.098488  0  3.889769  0
C  C33  1  0.42444189  0.17879314  0.74088189  1  0  -0.01346  -0.098567  0  3.889828  0
C  C34  1  0.51301343  0.79264919  0.36165104  1  0  -0.076192  -0.096264  0  3.950426  0
C  C35  1  0.48699179  0.20735815  0.63835970  1  0  -0.076205  -0.096267  0  3.950044  0
C  C36  1  0.59581310  0.86526300  0.48437849  1  0  -0.024474  -0.058981  0  4.018927  0
C  C37  1  0.40418797  0.13473523  0.51563059  1  0  -0.024493  -0.05908  0  4.018892  0
C  C38  1  0.74643567  0.96660133  0.50497125  1  0  -0.083778  -0.091423  0  3.95443  0
C  C39  1  0.25357383  0.03339986  0.49503670  1  0  -0.08389  -0.091557  0  3.954761  0
C  C40  1  0.81264351  0.99063471  0.40291836  1  0  -0.087775  -0.108208  0  3.964402  0
C  C41  1  0.18736572  0.00936544  0.59708577  1  0  -0.087791  -0.108358  0  3.964454  0
C  C42  1  0.52140806  0.83256714  0.58935012  1  0  0.231725  0.568665  0  4.136479  0
C  C43  1  0.47860356  0.16744413  0.41065242  1  0  0.23181  0.568734  0  4.136423  0
C  C44  1  0.96127043  0.32012252  0.22247655  1  0  0.045024  0.085263  0  3.950815  0
C  C45  1  0.03873043  0.67988165  0.77751349  1  0  0.044864  0.085163  0  3.950974  0
C  C46  1  0.95761448  0.32279759  0.34581514  1  0  -0.082308  -0.162624  0  3.910853  0
C  C47  1  0.04237973  0.67720160  0.65417839  1  0  -0.082249  -0.16254  0  3.910722  0
C  C48  1  0.11107920  0.35999837  0.43267475  1  0  0.011831  0.104823  0  3.955423  0
C  C49  1  0.88891688  0.63999875  0.56731583  1  0  0.011777  0.104787  0  3.955562  0
C  C50  1  0.26339557  0.38859185  0.38745641  1  0  -0.084467  -0.166978  0  3.94459  0
C  C51  1  0.73660086  0.61140627  0.61253266  1  0  -0.08445  -0.16694  0  3.944727  0
C  C52  1  0.25743290  0.38264464  0.26264770  1  0  0.046219  0.097535  0  3.901906  0
C  C53  1  0.74256721  0.61735755  0.73734801  1  0  0.046243  0.09758  0  3.902039  0
C  C54  1  0.11164299  0.36992624  0.56584007  1  0  0.011293  0.101303  0  3.964818  0
C  C55  1  0.88834336  0.63006795  0.43415506  1  0  0.011211  0.101155  0  3.965198  0
C  C56  1  0.25695467  0.43856555  0.65853928  1  0  -0.077195  -0.154472  0  3.924254  0
C  C57  1  0.74303770  0.56143160  0.34145093  1  0  -0.077104  -0.154318  0  3.924173  0
C  C58  1  0.25183586  0.44713456  0.78302093  1  0  0.048668  0.089556  0  3.91004  0
C  C59  1  0.74816026  0.55286254  0.21696698  1  0  0.048681  0.089703  0  3.909864  0
C  C60  1  0.96873537  0.32443238  0.73113153  1  0  0.046107  0.095847  0  3.920189  0
C  C61  1  0.03125777  0.67555973  0.26886290  1  0  0.046216  0.096011  0  3.920039  0
C  C62  1  0.96446836  0.31332855  0.60550105  1  0  -0.080555  -0.165415  0  3.916013  0
C  C63  1  0.03551947  0.68666261  0.39449529  1  0  -0.080516  -0.165304  0  3.915947  0
S  S64  1  0.45262151  0.72540428  0.10525336  1  0  0.497422  1.168052  0  6.220618  0
S  S65  1  0.54737625  0.27459495  0.89475030  1  0  0.497368  1.167977  0  6.220493  0
N  N66  1  0.10847367  0.35139011  0.18132708  1  0  -0.355487  -0.190844  0  3.656561  0
N  N67  1  0.89153022  0.64861611  0.81866906  1  0  -0.355409  -0.190785  0  3.656506  0
N  N68  1  0.11003764  0.39018488  0.81878507  1  0  -0.354398  -0.182147  0  3.648016  0
N  N69  1  0.88995595  0.60980818  0.18120164  1  0  -0.354528  -0.182358  0  3.648183  0
O  O70  1  0.74816131  0.01449316  0.11011491  1  0  -0.31332  -0.486874  0  2.325869  0
O  O71  1  0.25184355  0.98550501  0.88988921  1  0  -0.313241  -0.486859  0  2.325679  0
O  O72  1  0.96123016  0.92256106  0.17726500  1  0  -0.320605  -0.521086  0  2.41468  0
O  O73  1  0.03876884  0.07743817  0.82273878  1  0  -0.32052  -0.521144  0  2.414571  0
O  O74  1  0.57363120  0.71206549  0.01965948  1  0  -0.348785  -0.591801  0  2.217206  0
O  O75  1  0.42637418  0.28793067  0.98034866  1  0  -0.348774  -0.591796  0  2.217039  0
O  O76  1  0.33082063  0.80492315  0.07785433  1  0  -0.365204  -0.612269  0  2.320116  0
O  O77  1  0.66918002  0.19508113  0.92214903  1  0  -0.365187  -0.61224  0  2.320116  0
O  O78  1  0.36707863  0.59666408  0.12310507  1  0  -0.35387  -0.620845  0  2.316947  0
O  O79  1  0.63291748  0.40333828  0.87690892  1  0  -0.353886  -0.620841  0  2.316904  0
O  O80  1  0.40434847  0.73273134  0.57708103  1  0  -0.289354  -0.508416  0  2.210988  0
O  O81  1  0.59564369  0.26727000  0.42292701  1  0  -0.289332  -0.508343  0  2.211356  0
O  O82  1  0.59403717  0.92340496  0.70150599  1  0  -0.317887  -0.469985  0  2.327202  0
O  O83  1  0.40596181  0.07659427  0.29849868  1  0  -0.317943  -0.469962  0  2.327297  0
