# generated using pymatgen
data_ZnH6C7N5Cl
_symmetry_space_group_name_H-M   'P 1'
_cell_length_a   8.77440653
_cell_length_b   9.15568686
_cell_length_c   11.98923449
_cell_angle_alpha   89.99995365
_cell_angle_beta   94.17454609
_cell_angle_gamma   90.00029597
_symmetry_Int_Tables_number   1
_chemical_formula_structural   ZnH6C7N5Cl
_chemical_formula_sum   'Zn4 H24 C28 N20 Cl4'
_cell_volume   960.60841273
_cell_formula_units_Z   4
loop_
 _symmetry_equiv_pos_site_id
 _symmetry_equiv_pos_as_xyz
  1  'x, y, z'
loop_
 _atom_site_type_symbol
 _atom_site_label
 _atom_site_symmetry_multiplicity
 _atom_site_fract_x
 _atom_site_fract_y
 _atom_site_fract_z
 _atom_site_occupancy
 _atom_site_hle17_bader_spin_density
 _atom_site_hle17_ddec_charge
 _atom_site_hle17_ddec_spin_density
 _atom_site_hle17_ddec_sum_bond_order
 _atom_site_hle17_magmom
 _atom_site_hse06_10hf_bader_spin_density
 _atom_site_hse06_10hf_ddec_charge
 _atom_site_hse06_10hf_ddec_spin_density
 _atom_site_hse06_10hf_ddec_sum_bond_order
 _atom_site_hse06_10hf_magmom
 _atom_site_hse06_bader_spin_density
 _atom_site_hse06_ddec_charge
 _atom_site_hse06_ddec_spin_density
 _atom_site_hse06_ddec_sum_bond_order
 _atom_site_hse06_magmom
 _atom_site_pbe_bader_spin_density
 _atom_site_pbe_cm5_charge
 _atom_site_pbe_ddec_charge
 _atom_site_pbe_ddec_spin_density
 _atom_site_pbe_ddec_sum_bond_order
 _atom_site_pbe_magmom
Zn  Zn0  1  0.15826009  0.26703193  0.58974307  1  0  0.860182  0  2.062321  0  0  0.666683  0  2.552165  0  0  0.706017  0  2.507805  0  0  0.651042  0.639586  0  2.58258  0
Zn  Zn1  1  0.34174152  0.76703402  0.91025572  1  0  0.860268  0  2.062295  0  0  0.666751  0  2.552154  0  0  0.706079  0  2.507794  0  0  0.651067  0.639657  0  2.582556  0
Zn  Zn2  1  0.84173693  0.73297037  0.41025618  1  0  0.860154  0  2.062324  0  0  0.66666  0  2.552176  0  0  0.705991  0  2.507823  0  0  0.651022  0.639567  0  2.582592  0
Zn  Zn3  1  0.65826007  0.23296936  0.08974378  1  0  0.860153  0  2.062384  0  0  0.666663  0  2.552242  0  0  0.705993  0  2.507884  0  0  0.651032  0.639574  0  2.58266  0
H  H4  1  0.03072981  0.68311608  0.76995076  1  0  0.121233  0  0.936001  0  0  0.130685  0  1.004565  0  0  0.132912  0  1.002985  0  0  0.109763  0.129164  0  1.005558  0
H  H5  1  0.46927249  0.18312084  0.73005395  1  0  0.1212  0  0.935986  0  0  0.130647  0  1.004577  0  0  0.13287  0  1.003001  0  0  0.10974  0.129123  0  1.005574  0
H  H6  1  0.96927063  0.31688293  0.23005284  1  0  0.121271  0  0.935957  0  0  0.130711  0  1.004539  0  0  0.132935  0  1.002964  0  0  0.10977  0.129189  0  1.005535  0
H  H7  1  0.53072682  0.81688254  0.26994542  1  0  0.12124  0  0.935968  0  0  0.130699  0  1.00454  0  0  0.132922  0  1.002965  0  0  0.109768  0.129176  0  1.00554  0
H  H8  1  0.98663151  0.55709738  0.66171366  1  0  0.124368  0  0.941798  0  0  0.136161  0  1.006882  0  0  0.138214  0  1.005579  0  0  0.103113  0.134578  0  1.008049  0
H  H9  1  0.51336907  0.05709977  0.83828952  1  0  0.124329  0  0.941858  0  0  0.136121  0  1.00694  0  0  0.13818  0  1.005631  0  0  0.103094  0.134533  0  1.008116  0
H  H10  1  0.01336664  0.44290491  0.33828816  1  0  0.124339  0  0.941832  0  0  0.136127  0  1.006914  0  0  0.13819  0  1.005603  0  0  0.103102  0.134541  0  1.00809  0
H  H11  1  0.48663252  0.94290362  0.16171082  1  0  0.124343  0  0.941848  0  0  0.136144  0  1.006933  0  0  0.138198  0  1.00563  0  0  0.103093  0.134556  0  1.008104  0
H  H12  1  0.15129779  0.33684847  0.89053118  1  0  0.115568  0  0.951797  0  0  0.122049  0  1.016762  0  0  0.125013  0  1.016978  0  0  0.101276  0.119807  0  1.016979  0
H  H13  1  0.34869961  0.83685529  0.60947401  1  0  0.115545  0  0.951826  0  0  0.122023  0  1.016778  0  0  0.124988  0  1.016992  0  0  0.101268  0.119767  0  1.017019  0
H  H14  1  0.84870836  0.66315164  0.10947357  1  0  0.115549  0  0.95179  0  0  0.122006  0  1.016765  0  0  0.124969  0  1.016983  0  0  0.101284  0.119764  0  1.016981  0
H  H15  1  0.65129512  0.16314919  0.39052678  1  0  0.115548  0  0.951764  0  0  0.122033  0  1.016704  0  0  0.124998  0  1.01692  0  0  0.101278  0.119783  0  1.016944  0
H  H16  1  0.99395955  0.20020918  0.01937627  1  0  0.082996  0  0.950441  0  0  0.085236  0  1.023166  0  0  0.088539  0  1.019557  0  0  0.116583  0.082682  0  1.025944  0
H  H17  1  0.50602926  0.70021062  0.48062911  1  0  0.082967  0  0.950305  0  0  0.085215  0  1.023068  0  0  0.088517  0  1.019452  0  0  0.116566  0.082664  0  1.025846  0
H  H18  1  0.00604317  0.79979203  0.98062830  1  0  0.082911  0  0.950384  0  0  0.085168  0  1.023129  0  0  0.088467  0  1.019523  0  0  0.116575  0.082618  0  1.025904  0
H  H19  1  0.49396090  0.29979058  0.51937061  1  0  0.082923  0  0.950391  0  0  0.085178  0  1.023137  0  0  0.088476  0  1.019529  0  0  0.116576  0.082626  0  1.025913  0
H  H20  1  0.74356581  0.58267754  0.78359204  1  0  0.121212  0  0.944417  0  0  0.12708  0  1.007861  0  0  0.130748  0  1.006609  0  0  0.111065  0.12445  0  1.008864  0
H  H21  1  0.75644177  0.08267580  0.71640984  1  0  0.121162  0  0.944425  0  0  0.127085  0  1.007812  0  0  0.130759  0  1.006552  0  0  0.111071  0.124454  0  1.008824  0
H  H22  1  0.25644263  0.41732257  0.21640867  1  0  0.121138  0  0.944419  0  0  0.127059  0  1.007815  0  0  0.130742  0  1.006548  0  0  0.111049  0.124431  0  1.008818  0
H  H23  1  0.24355753  0.91732431  0.28358954  1  0  0.121191  0  0.944486  0  0  0.127126  0  1.007851  0  0  0.130812  0  1.00658  0  0  0.111072  0.124497  0  1.008854  0
H  H24  1  0.60508576  0.43699390  0.91531602  1  0  0.071635  0  0.977008  0  0  0.072582  0  1.055417  0  0  0.075183  0  1.052772  0  0  0.10806  0.070323  0  1.058008  0
H  H25  1  0.89491228  0.93698896  0.58468429  1  0  0.071635  0  0.977069  0  0  0.072586  0  1.055463  0  0  0.075182  0  1.052832  0  0  0.108062  0.070324  0  1.05805  0
H  H26  1  0.39492039  0.56300730  0.08468540  1  0  0.07161  0  0.977045  0  0  0.072561  0  1.055453  0  0  0.075176  0  1.052769  0  0  0.10804  0.070302  0  1.058041  0
H  H27  1  0.10508131  0.06300787  0.41531311  1  0  0.071612  0  0.977038  0  0  0.072564  0  1.055445  0  0  0.075172  0  1.05278  0  0  0.10805  0.070306  0  1.058033  0
C  C28  1  0.20863926  0.53623624  0.73750917  1  0  0.369544  0  3.727464  0  0  0.339724  0  3.997225  0  0  0.353638  0  4.012643  0  0  0.229363  0.330627  0  3.986449  0
C  C29  1  0.29136111  0.03623681  0.76249220  1  0  0.369471  0  3.727577  0  0  0.339758  0  3.997212  0  0  0.353673  0  4.01263  0  0  0.229383  0.330665  0  3.986423  0
C  C30  1  0.79136004  0.46376714  0.26248854  1  0  0.369615  0  3.727503  0  0  0.339827  0  3.997212  0  0  0.353742  0  4.012631  0  0  0.229407  0.330736  0  3.986428  0
C  C31  1  0.70863819  0.96376657  0.23750968  1  0  0.369548  0  3.727478  0  0  0.339913  0  3.997009  0  0  0.35383  0  4.012421  0  0  0.229454  0.330817  0  3.986234  0
C  C32  1  0.04401333  0.56785006  0.74616281  1  0  -0.26907  0  3.721432  0  0  -0.307708  0  3.952628  0  0  -0.310931  0  3.960842  0  0  -0.147404  -0.305483  0  3.946902  0
C  C33  1  0.45598949  0.06785473  0.75384117  1  0  -0.268985  0  3.721359  0  0  -0.30765  0  3.952571  0  0  -0.310876  0  3.960775  0  0  -0.147408  -0.30542  0  3.946844  0
C  C34  1  0.95598939  0.43215114  0.25383925  1  0  -0.269126  0  3.721315  0  0  -0.307753  0  3.952528  0  0  -0.310989  0  3.960733  0  0  -0.147456  -0.305523  0  3.946807  0
C  C35  1  0.54400867  0.93214865  0.24615898  1  0  -0.26901  0  3.721357  0  0  -0.307746  0  3.952626  0  0  -0.310975  0  3.960844  0  0  -0.147415  -0.305508  0  3.946896  0
C  C36  1  0.03025130  0.36305483  0.89226311  1  0  -0.168337  0  3.691379  0  0  -0.189156  0  3.945318  0  0  -0.197985  0  3.968178  0  0  -0.08752  -0.183659  0  3.930096  0
C  C37  1  0.46974739  0.86306007  0.60773963  1  0  -0.168284  0  3.691372  0  0  -0.189028  0  3.945318  0  0  -0.197855  0  3.968178  0  0  -0.087504  -0.183539  0  3.930086  0
C  C38  1  0.96975485  0.63694419  0.10773997  1  0  -0.168303  0  3.691353  0  0  -0.189065  0  3.94532  0  0  -0.197897  0  3.968178  0  0  -0.087528  -0.183571  0  3.9301  0
C  C39  1  0.53024849  0.13694332  0.39225873  1  0  -0.168255  0  3.691314  0  0  -0.189019  0  3.945265  0  0  -0.197852  0  3.968124  0  0  -0.0875  -0.183526  0  3.930033  0
C  C40  1  0.96144905  0.47340827  0.82544809  1  0  0.173958  0  3.70092  0  0  0.190041  0  3.936166  0  0  0.19544  0  3.95844  0  0  0.018278  0.186607  0  3.921084  0
C  C41  1  0.53855375  0.97341347  0.67455411  1  0  0.173896  0  3.700842  0  0  0.189925  0  3.936168  0  0  0.195323  0  3.958441  0  0  0.018248  0.186495  0  3.921075  0
C  C42  1  0.03855482  0.52658966  0.17455320  1  0  0.173939  0  3.70069  0  0  0.189991  0  3.935988  0  0  0.195402  0  3.958245  0  0  0.018271  0.186552  0  3.920913  0
C  C43  1  0.46144441  0.02658991  0.32544520  1  0  0.173902  0  3.700776  0  0  0.18994  0  3.936124  0  0  0.195349  0  3.958385  0  0  0.018256  0.186508  0  3.921042  0
C  C44  1  0.94350896  0.28552273  0.96488453  1  0  0.142405  0  3.680225  0  0  0.110286  0  3.932347  0  0  0.118247  0  3.94975  0  0  0.047696  0.105287  0  3.920387  0
C  C45  1  0.55648484  0.78552709  0.53511981  1  0  0.142459  0  3.680115  0  0  0.110274  0  3.932313  0  0  0.118239  0  3.949713  0  0  0.047694  0.105268  0  3.92035  0
C  C46  1  0.05649491  0.71447738  0.03511926  1  0  0.142543  0  3.680244  0  0  0.110321  0  3.93239  0  0  0.118285  0  3.949792  0  0  0.047658  0.105318  0  3.920423  0
C  C47  1  0.44350989  0.21447630  0.46487932  1  0  0.142509  0  3.680024  0  0  0.11031  0  3.932184  0  0  0.118275  0  3.949583  0  0  0.04769  0.105311  0  3.920216  0
C  C48  1  0.80538754  0.49929015  0.83333475  1  0  -0.153882  0  3.690864  0  0  -0.171529  0  3.935326  0  0  -0.180255  0  3.957057  0  0  -0.078244  -0.165815  0  3.92061  0
C  C49  1  0.69461312  0.99929177  0.66666732  1  0  -0.153821  0  3.690798  0  0  -0.171498  0  3.935246  0  0  -0.180229  0  3.956977  0  0  -0.078246  -0.165792  0  3.920543  0
C  C50  1  0.19461976  0.50070996  0.16666422  1  0  -0.153813  0  3.690832  0  0  -0.17152  0  3.935335  0  0  -0.180266  0  3.957064  0  0  -0.078204  -0.165808  0  3.920626  0
C  C51  1  0.30538047  0.00070834  0.33333174  1  0  -0.153925  0  3.690919  0  0  -0.171623  0  3.935389  0  0  -0.180372  0  3.957115  0  0  -0.078268  -0.165917  0  3.920683  0
C  C52  1  0.72630303  0.41813161  0.90732353  1  0  0.128981  0  3.721342  0  0  0.09616  0  3.972653  0  0  0.103389  0  3.991496  0  0  0.041469  0.091585  0  3.959863  0
C  C53  1  0.77369491  0.91813152  0.59267678  1  0  0.128969  0  3.721379  0  0  0.096154  0  3.972707  0  0  0.10338  0  3.991553  0  0  0.041445  0.091583  0  3.959909  0
C  C54  1  0.27369855  0.58186631  0.09267763  1  0  0.129017  0  3.721682  0  0  0.096156  0  3.972986  0  0  0.103387  0  3.991842  0  0  0.041428  0.091581  0  3.960193  0
C  C55  1  0.22630096  0.08186859  0.40732158  1  0  0.12902  0  3.721521  0  0  0.096167  0  3.972847  0  0  0.103396  0  3.991702  0  0  0.041449  0.091593  0  3.96005  0
N  N56  1  0.26344149  0.43326544  0.67172644  1  0  -0.339111  0  3.229544  0  0  -0.26682  0  3.536665  0  0  -0.28524  0  3.547019  0  0  -0.249628  -0.25432  0  3.529367  0
N  N57  1  0.23655986  0.93326601  0.82827307  1  0  -0.339149  0  3.229688  0  0  -0.266909  0  3.536814  0  0  -0.285328  0  3.547168  0  0  -0.249662  -0.254414  0  3.529513  0
N  N58  1  0.73656010  0.56673794  0.32827056  1  0  -0.339176  0  3.229659  0  0  -0.266859  0  3.536703  0  0  -0.285279  0  3.547061  0  0  -0.249629  -0.254356  0  3.529397  0
N  N59  1  0.76343944  0.06673847  0.17172714  1  0  -0.339165  0  3.229728  0  0  -0.266904  0  3.536744  0  0  -0.285323  0  3.5471  0  0  -0.249665  -0.254406  0  3.529446  0
N  N60  1  0.41828609  0.44116692  0.68439400  1  0  -0.082269  0  2.953906  0  0  -0.075235  0  3.244689  0  0  -0.074568  0  3.255269  0  0  -0.08862  -0.075618  0  3.237342  0
N  N61  1  0.08171416  0.94116345  0.81560461  1  0  -0.08224  0  2.953956  0  0  -0.075204  0  3.244742  0  0  -0.074538  0  3.25532  0  0  -0.0886  -0.075587  0  3.237398  0
N  N62  1  0.58171550  0.55883756  0.31560299  1  0  -0.082271  0  2.953952  0  0  -0.075243  0  3.244738  0  0  -0.074582  0  3.255325  0  0  -0.08861  -0.075625  0  3.237387  0
N  N63  1  0.91828400  0.05883884  0.18439471  1  0  -0.082351  0  2.953983  0  0  -0.075325  0  3.244788  0  0  -0.074664  0  3.255374  0  0  -0.08866  -0.075707  0  3.237436  0
N  N64  1  0.79362505  0.31324611  0.97303923  1  0  -0.334016  0  3.317029  0  0  -0.243761  0  3.588381  0  0  -0.263236  0  3.60382  0  0  -0.341289  -0.230618  0  3.577622  0
N  N65  1  0.70636890  0.81324794  0.52696093  1  0  -0.333998  0  3.316936  0  0  -0.243748  0  3.588326  0  0  -0.263223  0  3.60377  0  0  -0.341217  -0.230599  0  3.57756  0
N  N66  1  0.20637996  0.68675181  0.02696212  1  0  -0.334124  0  3.317322  0  0  -0.243716  0  3.588547  0  0  -0.263192  0  3.603987  0  0  -0.3412  -0.230568  0  3.57778  0
N  N67  1  0.29362240  0.18675217  0.47303635  1  0  -0.334035  0  3.316997  0  0  -0.243693  0  3.588285  0  0  -0.263168  0  3.603725  0  0  -0.341222  -0.23054  0  3.57751  0
N  N68  1  0.32757870  0.60626730  0.79027539  1  0  -0.34898  0  3.196015  0  0  -0.280958  0  3.501236  0  0  -0.299522  0  3.513384  0  0  -0.241468  -0.268305  0  3.492791  0
N  N69  1  0.17242434  0.10626734  0.70972441  1  0  -0.348894  0  3.195984  0  0  -0.280929  0  3.501208  0  0  -0.299487  0  3.513341  0  0  -0.241479  -0.268279  0  3.492765  0
N  N70  1  0.67242403  0.39373608  0.20972334  1  0  -0.348915  0  3.196136  0  0  -0.280935  0  3.501388  0  0  -0.299494  0  3.513527  0  0  -0.241456  -0.268288  0  3.492955  0
N  N71  1  0.82757496  0.89373714  0.29027496  1  0  -0.348956  0  3.196023  0  0  -0.281024  0  3.501242  0  0  -0.299572  0  3.513361  0  0  -0.241504  -0.268376  0  3.492809  0
N  N72  1  0.45634309  0.54520505  0.75497535  1  0  -0.056764  0  2.983866  0  0  -0.049239  0  3.281076  0  0  -0.048289  0  3.293198  0  0  -0.077819  -0.049764  0  3.27252  0
N  N73  1  0.04365848  0.04520331  0.74502357  1  0  -0.056774  0  2.983825  0  0  -0.049242  0  3.281046  0  0  -0.048291  0  3.29317  0  0  -0.077809  -0.049766  0  3.272494  0
N  N74  1  0.54365850  0.45479725  0.24502248  1  0  -0.056784  0  2.983869  0  0  -0.049251  0  3.281089  0  0  -0.048304  0  3.293217  0  0  -0.077846  -0.049776  0  3.272539  0
N  N75  1  0.95633968  0.95479898  0.25497574  1  0  -0.056663  0  2.983781  0  0  -0.049129  0  3.280995  0  0  -0.04818  0  3.293123  0  0  -0.077774  -0.049648  0  3.272434  0
Cl  Cl76  1  0.91718514  0.29249780  0.52420109  1  0  -0.559653  0  0.879706  0  0  -0.492287  0  1.141349  0  0  -0.507324  0  1.119687  0  0  -0.325707  -0.481117  0  1.156441  0
Cl  Cl77  1  0.58281785  0.79249963  0.97579790  1  0  -0.559671  0  0.879688  0  0  -0.492298  0  1.141318  0  0  -0.507335  0  1.119655  0  0  -0.325717  -0.481131  0  1.156403  0
Cl  Cl78  1  0.08281188  0.70750340  0.47579899  1  0  -0.55964  0  0.879702  0  0  -0.492265  0  1.141335  0  0  -0.507298  0  1.119677  0  0  -0.325693  -0.481098  0  1.156436  0
Cl  Cl79  1  0.41718489  0.20750266  0.02419749  1  0  -0.55965  0  0.879693  0  0  -0.49228  0  1.141334  0  0  -0.507315  0  1.119675  0  0  -0.325699  -0.481111  0  1.156429  0
