# generated using pymatgen
data_NaMgH2C3O7
_symmetry_space_group_name_H-M   'P 1'
_cell_length_a   5.91196563
_cell_length_b   7.04823700
_cell_length_c   15.55939208
_cell_angle_alpha   90.00028908
_cell_angle_beta   89.99985136
_cell_angle_gamma   101.13946827
_symmetry_Int_Tables_number   1
_chemical_formula_structural   NaMgH2C3O7
_chemical_formula_sum   'Na4 Mg4 H8 C12 O28'
_cell_volume   636.12838586
_cell_formula_units_Z   4
loop_
 _symmetry_equiv_pos_site_id
 _symmetry_equiv_pos_as_xyz
  1  'x, y, z'
loop_
 _atom_site_type_symbol
 _atom_site_label
 _atom_site_symmetry_multiplicity
 _atom_site_fract_x
 _atom_site_fract_y
 _atom_site_fract_z
 _atom_site_occupancy
 _atom_site_hle17_bader_spin_density
 _atom_site_hle17_ddec_charge
 _atom_site_hle17_ddec_spin_density
 _atom_site_hle17_ddec_sum_bond_order
 _atom_site_hle17_magmom
 _atom_site_hse06_10hf_bader_spin_density
 _atom_site_hse06_10hf_ddec_charge
 _atom_site_hse06_10hf_ddec_spin_density
 _atom_site_hse06_10hf_ddec_sum_bond_order
 _atom_site_hse06_10hf_magmom
 _atom_site_hse06_bader_spin_density
 _atom_site_hse06_ddec_charge
 _atom_site_hse06_ddec_spin_density
 _atom_site_hse06_ddec_sum_bond_order
 _atom_site_hse06_magmom
 _atom_site_pbe_bader_spin_density
 _atom_site_pbe_cm5_charge
 _atom_site_pbe_ddec_charge
 _atom_site_pbe_ddec_spin_density
 _atom_site_pbe_ddec_sum_bond_order
 _atom_site_pbe_magmom
Na  Na0  1  0.53302196  0.69321107  0.17996707  1  0  0.911337  0  0.364684  0  0  0.86272  0  0.51749  0  0  0.874704  0  0.494877  0  0  0.710773  0.854005  0  0.533598  0
Na  Na1  1  0.46696824  0.80678700  0.67996813  1  0  0.911333  0  0.364676  0  0  0.862716  0  0.517477  0  0  0.874703  0  0.49486  0  0  0.710758  0.853998  0  0.533587  0
Na  Na2  1  0.46697687  0.30678673  0.82003216  1  0  0.911335  0  0.36468  0  0  0.862712  0  0.517488  0  0  0.874695  0  0.494879  0  0  0.710752  0.853995  0  0.533598  0
Na  Na3  1  0.53303126  0.19321369  0.32003174  1  0  0.911344  0  0.364669  0  0  0.862723  0  0.517474  0  0  0.874715  0  0.494847  0  0  0.710769  0.854005  0  0.533588  0
Mg  Mg4  1  0.27368685  0.71043365  0.90023379  1  0  1.474367  0  1.157936  0  0  1.368798  0  1.412468  0  0  1.392287  0  1.377234  0  0  0.824789  1.352306  0  1.436871  0
Mg  Mg5  1  0.72630913  0.78956671  0.40023405  1  0  1.474291  0  1.158035  0  0  1.368763  0  1.412499  0  0  1.39225  0  1.377267  0  0  0.824788  1.35227  0  1.436902  0
Mg  Mg6  1  0.72631401  0.28956559  0.09976608  1  0  1.474353  0  1.157956  0  0  1.368786  0  1.412489  0  0  1.392258  0  1.377287  0  0  0.824783  1.352294  0  1.436892  0
Mg  Mg7  1  0.27369003  0.21043254  0.59976583  1  0  1.474238  0  1.158117  0  0  1.368708  0  1.412587  0  0  1.392181  0  1.377384  0  0  0.824763  1.352215  0  1.436989  0
H  H8  1  0.83570227  0.64056579  0.02652128  1  0  0.454964  0  0.830347  0  0  0.423222  0  0.893156  0  0  0.434264  0  0.8769  0  0  0.311821  0.415405  0  0.904661  0
H  H9  1  0.16429370  0.85943068  0.52652147  1  0  0.454986  0  0.830307  0  0  0.423243  0  0.89312  0  0  0.434287  0  0.876861  0  0  0.311837  0.415425  0  0.904626  0
H  H10  1  0.16429690  0.35943345  0.97347860  1  0  0.454996  0  0.830298  0  0  0.423256  0  0.893103  0  0  0.434299  0  0.876846  0  0  0.31185  0.415439  0  0.904608  0
H  H11  1  0.83570175  0.14056712  0.47347840  1  0  0.454981  0  0.830323  0  0  0.423241  0  0.893129  0  0  0.434284  0  0.87687  0  0  0.311842  0.415424  0  0.904632  0
H  H12  1  0.95669679  0.64684333  0.12055961  1  0  0.437944  0  0.862282  0  0  0.404628  0  0.929323  0  0  0.416485  0  0.912025  0  0  0.302207  0.396247  0  0.941529  0
H  H13  1  0.04329774  0.85315701  0.62055990  1  0  0.437918  0  0.862299  0  0  0.404611  0  0.929331  0  0  0.416467  0  0.912035  0  0  0.302201  0.396231  0  0.941536  0
H  H14  1  0.04330441  0.35315736  0.87943963  1  0  0.437917  0  0.862315  0  0  0.4046  0  0.929358  0  0  0.416457  0  0.912061  0  0  0.302204  0.396219  0  0.941564  0
H  H15  1  0.95669974  0.14684223  0.37944062  1  0  0.437941  0  0.86228  0  0  0.404613  0  0.929337  0  0  0.416471  0  0.912039  0  0  0.302214  0.396233  0  0.941542  0
C  C16  1  0.49798869  0.92691781  0.03707874  1  0  0.553163  0  3.949309  0  0  0.507007  0  4.24782  0  0  0.536275  0  4.237929  0  0  0.20585  0.487172  0  4.254096  0
C  C17  1  0.50201669  0.57308311  0.53707731  1  0  0.553358  0  3.94921  0  0  0.507173  0  4.247758  0  0  0.536442  0  4.237867  0  0  0.205935  0.487337  0  4.254031  0
C  C18  1  0.50201960  0.07308433  0.96292306  1  0  0.553391  0  3.949359  0  0  0.507221  0  4.247878  0  0  0.53649  0  4.237987  0  0  0.205927  0.487384  0  4.254155  0
C  C19  1  0.49798620  0.42691758  0.46292129  1  0  0.553175  0  3.949242  0  0  0.507031  0  4.247742  0  0  0.5363  0  4.237851  0  0  0.205858  0.487197  0  4.254016  0
C  C20  1  0.19933705  0.78560148  0.35154410  1  0  0.591753  0  3.889655  0  0  0.540153  0  4.19518  0  0  0.570313  0  4.184572  0  0  0.232506  0.519637  0  4.201997  0
C  C21  1  0.80065951  0.71439259  0.85154526  1  0  0.591905  0  3.889619  0  0  0.54033  0  4.195032  0  0  0.570493  0  4.184418  0  0  0.23257  0.519792  0  4.20188  0
C  C22  1  0.80066145  0.21439488  0.64845514  1  0  0.591639  0  3.889807  0  0  0.540102  0  4.195189  0  0  0.570264  0  4.184576  0  0  0.232456  0.519571  0  4.202038  0
C  C23  1  0.19934271  0.28560520  0.14845526  1  0  0.591945  0  3.889649  0  0  0.540383  0  4.195013  0  0  0.570545  0  4.184399  0  0  0.232606  0.519836  0  4.201877  0
C  C24  1  0.05262552  0.75348929  0.26771824  1  0  0.57122  0  3.907582  0  0  0.525724  0  4.207913  0  0  0.554328  0  4.20012  0  0  0.222995  0.50631  0  4.212746  0
C  C25  1  0.94736463  0.74651114  0.76771740  1  0  0.57115  0  3.908051  0  0  0.52577  0  4.208167  0  0  0.554373  0  4.200373  0  0  0.223028  0.506373  0  4.212978  0
C  C26  1  0.94737229  0.24651140  0.73228100  1  0  0.571257  0  3.907545  0  0  0.525801  0  4.207742  0  0  0.554405  0  4.199947  0  0  0.222996  0.506372  0  4.212613  0
C  C27  1  0.05263587  0.25349389  0.23228312  1  0  0.571008  0  3.908174  0  0  0.525654  0  4.208217  0  0  0.554257  0  4.200424  0  0  0.22298  0.506258  0  4.213035  0
O  O28  1  0.39002927  0.75558801  0.02457233  1  0  -0.655943  0  1.99882  0  0  -0.605012  0  2.230702  0  0  -0.625202  0  2.218614  0  0  -0.35565  -0.591178  0  2.238824  0
O  O29  1  0.60996738  0.74441134  0.52457182  1  0  -0.656005  0  1.998911  0  0  -0.605076  0  2.23081  0  0  -0.625264  0  2.21872  0  0  -0.355695  -0.591243  0  2.238931  0
O  O30  1  0.60997093  0.24440835  0.97542884  1  0  -0.656041  0  1.999031  0  0  -0.605113  0  2.230928  0  0  -0.625297  0  2.218838  0  0  -0.355667  -0.59128  0  2.239051  0
O  O31  1  0.39003315  0.25558646  0.47542742  1  0  -0.655931  0  1.998798  0  0  -0.605012  0  2.230673  0  0  -0.625199  0  2.218583  0  0  -0.355637  -0.591178  0  2.238794  0
O  O32  1  0.60414365  0.99012036  0.10506021  1  0  -0.688544  0  2.051427  0  0  -0.640915  0  2.288724  0  0  -0.661638  0  2.27748  0  0  -0.383668  -0.626658  0  2.29616  0
O  O33  1  0.39585502  0.50987549  0.60505938  1  0  -0.688551  0  2.051231  0  0  -0.640929  0  2.28855  0  0  -0.661655  0  2.277306  0  0  -0.383675  -0.626672  0  2.295984  0
O  O34  1  0.39585688  0.00987744  0.89494160  1  0  -0.688598  0  2.051301  0  0  -0.640964  0  2.288592  0  0  -0.661692  0  2.27735  0  0  -0.383688  -0.626706  0  2.296028  0
O  O35  1  0.60414348  0.49012087  0.39493986  1  0  -0.688528  0  2.051377  0  0  -0.64091  0  2.288668  0  0  -0.661637  0  2.277423  0  0  -0.383665  -0.626654  0  2.296105  0
O  O36  1  0.41612844  0.82215977  0.34316003  1  0  -0.720094  0  2.074677  0  0  -0.668814  0  2.325944  0  0  -0.689545  0  2.312059  0  0  -0.365878  -0.654516  0  2.335228  0
O  O37  1  0.58385901  0.67783856  0.84315939  1  0  -0.720229  0  2.074535  0  0  -0.668974  0  2.325806  0  0  -0.68971  0  2.311922  0  0  -0.36597  -0.654669  0  2.335102  0
O  O38  1  0.58386937  0.17784093  0.65683985  1  0  -0.720058  0  2.074728  0  0  -0.668807  0  2.325954  0  0  -0.689536  0  2.312068  0  0  -0.365876  -0.654502  0  2.335244  0
O  O39  1  0.41614016  0.32216069  0.15684113  1  0  -0.720222  0  2.074573  0  0  -0.668976  0  2.325841  0  0  -0.689707  0  2.311957  0  0  -0.365963  -0.654667  0  2.335142  0
O  O40  1  0.08458765  0.77370698  0.42107835  1  0  -0.652475  0  2.016817  0  0  -0.591291  0  2.237072  0  0  -0.614448  0  2.225919  0  0  -0.30693  -0.575306  0  2.24445  0
O  O41  1  0.91540655  0.72629360  0.92107943  1  0  -0.652494  0  2.016863  0  0  -0.591338  0  2.237114  0  0  -0.614495  0  2.22596  0  0  -0.306905  -0.575348  0  2.244504  0
O  O42  1  0.91540847  0.22629371  0.57892024  1  0  -0.652406  0  2.016855  0  0  -0.591258  0  2.237075  0  0  -0.614413  0  2.225924  0  0  -0.306883  -0.575267  0  2.244458  0
O  O43  1  0.08459498  0.27370854  0.07892109  1  0  -0.652488  0  2.016851  0  0  -0.591338  0  2.237088  0  0  -0.614491  0  2.225934  0  0  -0.306931  -0.575343  0  2.244483  0
O  O44  1  0.84345143  0.77098356  0.27594248  1  0  -0.711798  0  2.048061  0  0  -0.658763  0  2.289868  0  0  -0.679817  0  2.277328  0  0  -0.399291  -0.644207  0  2.298226  0
O  O45  1  0.15654140  0.72901406  0.77594174  1  0  -0.711866  0  2.048271  0  0  -0.658829  0  2.289934  0  0  -0.679881  0  2.277387  0  0  -0.399344  -0.64428  0  2.298289  0
O  O46  1  0.15654741  0.22901424  0.72405675  1  0  -0.711805  0  2.048092  0  0  -0.658766  0  2.289815  0  0  -0.679818  0  2.277275  0  0  -0.399288  -0.644204  0  2.298181  0
O  O47  1  0.84346216  0.27098952  0.22405878  1  0  -0.711787  0  2.048339  0  0  -0.658778  0  2.290027  0  0  -0.679829  0  2.277484  0  0  -0.399333  -0.644227  0  2.29838  0
O  O48  1  0.14695244  0.71211625  0.19953296  1  0  -0.620368  0  2.019964  0  0  -0.57568  0  2.252453  0  0  -0.598664  0  2.242814  0  0  -0.353455  -0.559721  0  2.258725  0
O  O49  1  0.85304106  0.78788202  0.69953296  1  0  -0.620272  0  2.020204  0  0  -0.575642  0  2.252632  0  0  -0.598627  0  2.242995  0  0  -0.353421  -0.559686  0  2.258891  0
O  O50  1  0.85304673  0.28788299  0.80046628  1  0  -0.620376  0  2.019945  0  0  -0.575711  0  2.252396  0  0  -0.598695  0  2.242758  0  0  -0.353451  -0.559744  0  2.258676  0
O  O51  1  0.14695844  0.21211867  0.30046757  1  0  -0.620278  0  2.02019  0  0  -0.575637  0  2.252586  0  0  -0.598623  0  2.242952  0  0  -0.35341  -0.559679  0  2.258849  0
O  O52  1  0.81836645  0.58572976  0.08549654  1  0  -0.945512  0  1.848515  0  0  -0.89178  0  2.043405  0  0  -0.909341  0  2.007033  0  0  -0.64608  -0.879494  0  2.068904  0
O  O53  1  0.18162959  0.91426877  0.58549748  1  0  -0.945519  0  1.848503  0  0  -0.89181  0  2.043371  0  0  -0.909372  0  2.006999  0  0  -0.646099  -0.879525  0  2.068869  0
O  O54  1  0.18163305  0.41427093  0.91450269  1  0  -0.945515  0  1.848498  0  0  -0.891786  0  2.043382  0  0  -0.90935  0  2.007009  0  0  -0.646104  -0.879501  0  2.068881  0
O  O55  1  0.81836755  0.08572903  0.41450304  1  0  -0.945509  0  1.848508  0  0  -0.891779  0  2.043416  0  0  -0.909346  0  2.007041  0  0  -0.646101  -0.879495  0  2.068914  0
