# generated using pymatgen
data_Zn2Te2H14C5N2
_symmetry_space_group_name_H-M   'P 1'
_cell_length_a   6.82560709
_cell_length_b   6.90853940
_cell_length_c   13.18686912
_cell_angle_alpha   105.15660169
_cell_angle_beta   89.99825423
_cell_angle_gamma   90.00002480
_symmetry_Int_Tables_number   1
_chemical_formula_structural   Zn2Te2H14C5N2
_chemical_formula_sum   'Zn4 Te4 H28 C10 N4'
_cell_volume   600.19613849
_cell_formula_units_Z   2
loop_
 _symmetry_equiv_pos_site_id
 _symmetry_equiv_pos_as_xyz
  1  'x, y, z'
loop_
 _atom_site_type_symbol
 _atom_site_label
 _atom_site_symmetry_multiplicity
 _atom_site_fract_x
 _atom_site_fract_y
 _atom_site_fract_z
 _atom_site_occupancy
 _atom_site_hle17_bader_spin_density
 _atom_site_hle17_ddec_charge
 _atom_site_hle17_ddec_spin_density
 _atom_site_hle17_ddec_sum_bond_order
 _atom_site_hle17_magmom
 _atom_site_hse06_10hf_bader_spin_density
 _atom_site_hse06_10hf_ddec_charge
 _atom_site_hse06_10hf_ddec_spin_density
 _atom_site_hse06_10hf_ddec_sum_bond_order
 _atom_site_hse06_10hf_magmom
 _atom_site_hse06_bader_spin_density
 _atom_site_hse06_ddec_charge
 _atom_site_hse06_ddec_spin_density
 _atom_site_hse06_ddec_sum_bond_order
 _atom_site_hse06_magmom
 _atom_site_pbe_bader_spin_density
 _atom_site_pbe_cm5_charge
 _atom_site_pbe_ddec_charge
 _atom_site_pbe_ddec_spin_density
 _atom_site_pbe_ddec_sum_bond_order
 _atom_site_pbe_magmom
Zn  Zn0  1  0.75874315  0.63085287  0.57138822  1  0  0.577088  0  2.262179  0  0  0.453523  0  2.693529  0  0  0.491647  0  2.666252  0  0  0.309847  0.427915  0  2.711658  0
Zn  Zn1  1  0.25875271  0.36915272  0.42861450  1  0  0.577122  0  2.262038  0  0  0.453549  0  2.69337  0  0  0.491681  0  2.666097  0  0  0.309872  0.427945  0  2.71147  0
Zn  Zn2  1  0.25867194  0.94057879  0.57144835  1  0  0.57687  0  2.26325  0  0  0.45328  0  2.694794  0  0  0.491411  0  2.667457  0  0  0.309792  0.427664  0  2.712991  0
Zn  Zn3  1  0.75868621  0.05942074  0.42855731  1  0  0.576789  0  2.26334  0  0  0.45322  0  2.694815  0  0  0.491353  0  2.667484  0  0  0.309758  0.427612  0  2.712998  0
Te  Te4  1  0.38046352  0.60072393  0.60741976  1  0  -0.702636  0  2.300577  0  0  -0.607208  0  2.787957  0  0  -0.644342  0  2.761471  0  0  -0.285952  -0.5814  0  2.80646  0
Te  Te5  1  0.88047149  0.39928078  0.39258342  1  0  -0.702605  0  2.300534  0  0  -0.607193  0  2.787915  0  0  -0.644335  0  2.761436  0  0  -0.285942  -0.581385  0  2.806404  0
Te  Te6  1  0.88035008  0.00680612  0.60740180  1  0  -0.703208  0  2.30126  0  0  -0.607803  0  2.788772  0  0  -0.644904  0  2.762229  0  0  -0.286231  -0.581928  0  2.807264  0
Te  Te7  1  0.38037103  0.99319546  0.39261004  1  0  -0.70316  0  2.30127  0  0  -0.607732  0  2.788765  0  0  -0.64484  0  2.762225  0  0  -0.286207  -0.58185  0  2.807242  0
H  H8  1  0.03714615  0.57367053  0.69413785  1  0  0.265894  0  0.951968  0  0  0.257478  0  1.012237  0  0  0.264184  0  1.007727  0  0  0.254393  0.252534  0  1.015785  0
H  H9  1  0.53716276  0.42632022  0.30585828  1  0  0.265839  0  0.952082  0  0  0.257454  0  1.012262  0  0  0.264163  0  1.007752  0  0  0.254389  0.252513  0  1.015796  0
H  H10  1  0.53687304  0.12043293  0.69420583  1  0  0.265662  0  0.951799  0  0  0.257225  0  1.012136  0  0  0.263931  0  1.007612  0  0  0.254408  0.252305  0  1.01562  0
H  H11  1  0.03690405  0.87957283  0.30579091  1  0  0.265673  0  0.951681  0  0  0.257221  0  1.012043  0  0  0.263925  0  1.007525  0  0  0.25445  0.252299  0  1.015531  0
H  H12  1  0.86833521  0.40231935  0.69339914  1  0  0.266977  0  0.946958  0  0  0.257161  0  1.0104  0  0  0.264118  0  1.005293  0  0  0.255308  0.251741  0  1.014943  0
H  H13  1  0.36835434  0.59767052  0.30659757  1  0  0.266965  0  0.947049  0  0  0.25715  0  1.01048  0  0  0.264111  0  1.00537  0  0  0.255272  0.251723  0  1.01502  0
H  H14  1  0.36851153  0.29128050  0.69310054  1  0  0.266577  0  0.948645  0  0  0.256815  0  1.011791  0  0  0.26379  0  1.006697  0  0  0.255038  0.251436  0  1.016211  0
H  H15  1  0.86853989  0.70872286  0.30689807  1  0  0.266535  0  0.948573  0  0  0.256716  0  1.011852  0  0  0.263693  0  1.00674  0  0  0.254942  0.251336  0  1.016273  0
H  H16  1  0.65622445  0.64625155  0.80490925  1  0  0.047236  0  0.940606  0  0  0.062655  0  1.008761  0  0  0.063484  0  1.00823  0  0  0.087453  0.061928  0  1.009338  0
H  H17  1  0.15624056  0.35373520  0.19509679  1  0  0.047198  0  0.940664  0  0  0.062668  0  1.008775  0  0  0.063496  0  1.008253  0  0  0.087511  0.06194  0  1.009347  0
H  H18  1  0.15565204  0.16018129  0.80480630  1  0  0.046906  0  0.940504  0  0  0.062992  0  1.008401  0  0  0.06382  0  1.007896  0  0  0.087616  0.06228  0  1.008927  0
H  H19  1  0.65567901  0.83984147  0.19520330  1  0  0.04686  0  0.940402  0  0  0.062887  0  1.008369  0  0  0.06371  0  1.007873  0  0  0.087474  0.062175  0  1.008896  0
H  H20  1  0.82838659  0.83451043  0.80102075  1  0  0.047221  0  0.940518  0  0  0.06469  0  1.005494  0  0  0.065574  0  1.005007  0  0  0.086898  0.064023  0  1.005823  0
H  H21  1  0.32841263  0.16547818  0.19897937  1  0  0.047242  0  0.94029  0  0  0.06475  0  1.005286  0  0  0.065642  0  1.004791  0  0  0.086936  0.06408  0  1.005616  0
H  H22  1  0.32697627  0.96741425  0.80119210  1  0  0.047518  0  0.940308  0  0  0.065548  0  1.005016  0  0  0.066413  0  1.004585  0  0  0.087156  0.064897  0  1.005305  0
H  H23  1  0.82701295  0.03259688  0.19880970  1  0  0.047592  0  0.940404  0  0  0.065614  0  1.005112  0  0  0.066517  0  1.004635  0  0  0.087206  0.064949  0  1.005399  0
H  H24  1  0.07351432  0.67526143  0.89624901  1  0  0.061508  0  0.931297  0  0  0.080684  0  0.991245  0  0  0.08175  0  0.991194  0  0  0.085742  0.079899  0  0.991315  0
H  H25  1  0.57353098  0.32471420  0.10373615  1  0  0.061571  0  0.931198  0  0  0.080749  0  0.991157  0  0  0.081819  0  0.991095  0  0  0.085773  0.079961  0  0.991232  0
H  H26  1  0.57308739  0.22175567  0.89596147  1  0  0.061689  0  0.931179  0  0  0.080764  0  0.990943  0  0  0.081815  0  0.990899  0  0  0.085861  0.079979  0  0.991031  0
H  H27  1  0.07310524  0.77824101  0.10402286  1  0  0.061632  0  0.931094  0  0  0.080763  0  0.990834  0  0  0.081816  0  0.99079  0  0  0.085864  0.07998  0  0.990919  0
H  H28  1  0.90385937  0.48305225  0.89916477  1  0  0.059963  0  0.93522  0  0  0.078382  0  0.99744  0  0  0.079357  0  0.997462  0  0  0.08524  0.077629  0  0.997523  0
H  H29  1  0.40388027  0.51693881  0.10083540  1  0  0.05992  0  0.935208  0  0  0.078378  0  0.997401  0  0  0.079344  0  0.99743  0  0  0.085226  0.077625  0  0.997484  0
H  H30  1  0.40313613  0.41673462  0.89917262  1  0  0.059781  0  0.935798  0  0  0.078237  0  0.997694  0  0  0.079215  0  0.997701  0  0  0.085155  0.077456  0  0.997858  0
H  H31  1  0.90315309  0.58327149  0.10082665  1  0  0.059872  0  0.935736  0  0  0.078339  0  0.997633  0  0  0.079318  0  0.997641  0  0  0.085192  0.077556  0  0.997799  0
H  H32  1  0.66704494  0.74470314  0.99993233  1  0  0.05226  0  0.934829  0  0  0.072481  0  0.994442  0  0  0.073106  0  0.994962  0  0  0.085669  0.071994  0  0.994121  0
H  H33  1  0.16704013  0.25530745  0.00008148  1  0  0.052335  0  0.934772  0  0  0.072581  0  0.994358  0  0  0.07319  0  0.994896  0  0  0.085684  0.072087  0  0.99404  0
H  H34  1  0.84084699  0.93328884  0.00015909  1  0  0.054607  0  0.928421  0  0  0.07693  0  0.983127  0  0  0.077521  0  0.983771  0  0  0.086786  0.076414  0  0.982782  0
H  H35  1  0.34083940  0.06671024  0.99983779  1  0  0.054627  0  0.928451  0  0  0.076976  0  0.983138  0  0  0.077563  0  0.98378  0  0  0.086782  0.076431  0  0.982824  0
C  C36  1  0.81438338  0.67606619  0.80211223  1  0  0.07881  0  3.659689  0  0  0.024753  0  3.920869  0  0  0.02888  0  3.934204  0  0  -0.083313  0.022041  0  3.911665  0
C  C37  1  0.31440076  0.32392850  0.19788970  1  0  0.078905  0  3.659423  0  0  0.024751  0  3.920758  0  0  0.028864  0  3.934114  0  0  -0.083388  0.022037  0  3.911551  0
C  C38  1  0.31368935  0.12694387  0.80209583  1  0  0.079096  0  3.660326  0  0  0.023199  0  3.923484  0  0  0.027251  0  3.936898  0  0  -0.083432  0.020513  0  3.914248  0
C  C39  1  0.81372201  0.87306887  0.19790486  1  0  0.079081  0  3.660167  0  0  0.023207  0  3.923353  0  0  0.027247  0  3.936757  0  0  -0.083274  0.020538  0  3.914115  0
C  C40  1  0.91571036  0.64244618  0.89927707  1  0  -0.137717  0  3.706553  0  0  -0.177414  0  3.969634  0  0  -0.179495  0  3.98542  0  0  -0.16853  -0.175782  0  3.958621  0
C  C41  1  0.41572095  0.35754029  0.10072305  1  0  -0.137685  0  3.706584  0  0  -0.177436  0  3.969767  0  0  -0.1795  0  3.985551  0  0  -0.168498  -0.175801  0  3.958738  0
C  C42  1  0.41523759  0.25742174  0.89916105  1  0  -0.138439  0  3.70726  0  0  -0.177323  0  3.969878  0  0  -0.179376  0  3.985671  0  0  -0.169145  -0.175746  0  3.958931  0
C  C43  1  0.91525314  0.74257838  0.10083114  1  0  -0.138517  0  3.707205  0  0  -0.177484  0  3.969935  0  0  -0.179545  0  3.985739  0  0  -0.169184  -0.175915  0  3.959004  0
C  C44  1  0.82615376  0.77392806  0.00004162  1  0  -0.096813  0  3.720229  0  0  -0.133813  0  3.980146  0  0  -0.135441  0  3.997347  0  0  -0.163365  -0.132516  0  3.968225  0
C  C45  1  0.32614916  0.22608006  0.99996052  1  0  -0.097043  0  3.720262  0  0  -0.134099  0  3.980255  0  0  -0.135712  0  3.997435  0  0  -0.163378  -0.13277  0  3.968321  0
N  N46  1  0.88832296  0.55349646  0.70087593  1  0  -0.56873  0  3.181147  0  0  -0.502031  0  3.410377  0  0  -0.522268  0  3.410589  0  0  -0.631282  -0.488079  0  3.410684  0
N  N47  1  0.38833813  0.44649332  0.29911670  1  0  -0.568733  0  3.181219  0  0  -0.502016  0  3.410478  0  0  -0.522267  0  3.410707  0  0  -0.631322  -0.488051  0  3.410776  0
N  N48  1  0.38810072  0.14767559  0.70082088  1  0  -0.568073  0  3.181494  0  0  -0.50115  0  3.411556  0  0  -0.521386  0  3.411754  0  0  -0.631126  -0.487143  0  3.411789  0
N  N49  1  0.88813111  0.85233508  0.29918227  1  0  -0.568065  0  3.181196  0  0  -0.50107  0  3.41126  0  0  -0.521307  0  3.411472  0  0  -0.631123  -0.487069  0  3.411487  0
