# generated using pymatgen
data_CdH4C6(SeN2)2
_symmetry_space_group_name_H-M   'P 1'
_cell_length_a   8.67474928
_cell_length_b   9.37252607
_cell_length_c   29.28770000
_cell_angle_alpha   89.00116861
_cell_angle_beta   87.84124184
_cell_angle_gamma   62.43362021
_symmetry_Int_Tables_number   1
_chemical_formula_structural   CdH4C6(SeN2)2
_chemical_formula_sum   'Cd8 H32 C48 Se16 N32'
_cell_volume   2109.39131315
_cell_formula_units_Z   8
loop_
 _symmetry_equiv_pos_site_id
 _symmetry_equiv_pos_as_xyz
  1  'x, y, z'
loop_
 _atom_site_type_symbol
 _atom_site_label
 _atom_site_symmetry_multiplicity
 _atom_site_fract_x
 _atom_site_fract_y
 _atom_site_fract_z
 _atom_site_occupancy
 _atom_site_hle17_bader_spin_density
 _atom_site_hle17_ddec_charge
 _atom_site_hle17_ddec_spin_density
 _atom_site_hle17_ddec_sum_bond_order
 _atom_site_hle17_magmom
 _atom_site_hse06_10hf_bader_spin_density
 _atom_site_hse06_10hf_ddec_charge
 _atom_site_hse06_10hf_ddec_spin_density
 _atom_site_hse06_10hf_ddec_sum_bond_order
 _atom_site_hse06_10hf_magmom
 _atom_site_hse06_bader_spin_density
 _atom_site_hse06_ddec_charge
 _atom_site_hse06_ddec_spin_density
 _atom_site_hse06_ddec_sum_bond_order
 _atom_site_hse06_magmom
 _atom_site_pbe_bader_charge
 _atom_site_pbe_bader_spin_density
 _atom_site_pbe_cm5_charge
 _atom_site_pbe_ddec_charge
 _atom_site_pbe_ddec_spin_density
 _atom_site_pbe_ddec_sum_bond_order
 _atom_site_pbe_magmom
Cd  Cd0  1  0.82108745  0.33598432  0.62755435  1  0  0.875629  0  2.024986  0  0  0.695805  0  2.490135  0  0  0.743386  0  2.452961  0  1.101913  0  0.659918  0.662795  0  2.515016  0
Cd  Cd1  1  0.84291823  0.33597229  0.87245881  1  0  0.875584  0  2.024644  0  0  0.695803  0  2.489716  0  0  0.743392  0  2.45254  0  1.101837  0  0.659918  0.662804  0  2.514567  0
Cd  Cd2  1  0.17891104  0.66401776  0.37244542  1  0  0.875577  0  2.02499  0  0  0.695768  0  2.490135  0  0  0.743355  0  2.452958  0  1.101965  0  0.659905  0.662756  0  2.515018  0
Cd  Cd3  1  0.15707569  0.66402739  0.12754238  1  0  0.875632  0  2.02454  0  0  0.695841  0  2.48961  0  0  0.743429  0  2.452434  0  1.101697  0  0.659918  0.662834  0  2.514474  0
Cd  Cd4  1  0.50000042  0.00000000  0.49999991  1  0  0.633945  0  2.076033  0  0  0.466339  0  2.516146  0  0  0.513355  0  2.491663  0  0.90005  0  0.487256  0.434025  0  2.5319  0
Cd  Cd5  1  0.50000097  0.00000120  0.99999990  1  0  0.634105  0  2.075942  0  0  0.466439  0  2.516052  0  0  0.513466  0  2.491552  0  0.900841  0  0.487498  0.434113  0  2.531828  0
Cd  Cd6  1  0.51617376  0.96761843  0.74999850  1  0  1.118896  0  1.893654  0  0  0.924755  0  2.374592  0  0  0.973214  0  2.327263  0  1.304578  0  0.83511  0.890909  0  2.406679  0
Cd  Cd7  1  0.48382768  0.03238004  0.25000023  1  0  1.118887  0  1.893699  0  0  0.924771  0  2.374621  0  0  0.973227  0  2.327294  0  1.304528  0  0.835107  0.890924  0  2.40671  0
H  H8  1  0.72398533  0.65731379  0.56054022  1  0  0.052894  0  0.98238  0  0  0.050867  0  1.066757  0  0  0.053483  0  1.063445  0  0.138973  0  0.108591  0.048927  0  1.06909  0
H  H9  1  0.61861754  0.65734388  0.93947081  1  0  0.053091  0  0.982345  0  0  0.050992  0  1.066757  0  0  0.053608  0  1.063448  0  0.142573  0  0.108664  0.049054  0  1.069089  0
H  H10  1  0.27601492  0.34268709  0.43945920  1  0  0.052884  0  0.9824  0  0  0.050863  0  1.066766  0  0  0.053479  0  1.063455  0  0.13899  0  0.108597  0.048923  0  1.069099  0
H  H11  1  0.38138501  0.34265700  0.06052994  1  0  0.053058  0  0.982262  0  0  0.051034  0  1.066627  0  0  0.05365  0  1.063319  0  0.142543  0  0.108708  0.049095  0  1.068959  0
H  H12  1  0.23261738  0.83070704  0.50711071  1  0  0.073021  0  0.983467  0  0  0.074117  0  1.062049  0  0  0.076246  0  1.060063  0  0.14398  0  0.101842  0.072503  0  1.063472  0
H  H13  1  0.93645367  0.83095618  0.99286344  1  0  0.072952  0  0.983693  0  0  0.07401  0  1.062393  0  0  0.076088  0  1.060556  0  0.141561  0  0.101782  0.072414  0  1.063768  0
H  H14  1  0.76738111  0.16929504  0.49288974  1  0  0.072992  0  0.983481  0  0  0.074099  0  1.062043  0  0  0.076227  0  1.06006  0  0.143981  0  0.101829  0.072481  0  1.063482  0
H  H15  1  0.06355008  0.16904229  0.00713595  1  0  0.072946  0  0.983651  0  0  0.073996  0  1.062357  0  0  0.076075  0  1.060517  0  0.141421  0  0.101755  0.0724  0  1.063732  0
H  H16  1  0.17549936  0.63282806  0.55619937  1  0  0.11611  0  0.978523  0  0  0.119585  0  1.047717  0  0  0.123574  0  1.046563  0  0.117253  0  0.100182  0.116723  0  1.048752  0
H  H17  1  0.19152403  0.63295926  0.94381233  1  0  0.115832  0  0.978715  0  0  0.119306  0  1.047988  0  0  0.123275  0  1.046854  0  0.118879  0  0.100037  0.116445  0  1.049011  0
H  H18  1  0.82450259  0.36717402  0.44380173  1  0  0.116132  0  0.978573  0  0  0.119619  0  1.04775  0  0  0.123608  0  1.046596  0  0.11723  0  0.100209  0.116758  0  1.048785  0
H  H19  1  0.80847741  0.36703922  0.05618639  1  0  0.115818  0  0.978712  0  0  0.119256  0  1.048029  0  0  0.123217  0  1.0469  0  0.118904  0  0.100025  0.116399  0  1.049039  0
H  H20  1  0.41169407  0.45683989  0.60979023  1  0  0.078882  0  0.956327  0  0  0.084574  0  1.026757  0  0  0.086578  0  1.024234  0  0.121158  0  0.112946  0.083052  0  1.028561  0
H  H21  1  0.13140326  0.45687840  0.89024049  1  0  0.078919  0  0.956292  0  0  0.084444  0  1.026922  0  0  0.086451  0  1.024397  0  0.128273  0  0.112842  0.082919  0  1.028737  0
H  H22  1  0.58830732  0.54316099  0.39021019  1  0  0.078886  0  0.95633  0  0  0.084581  0  1.026756  0  0  0.086586  0  1.024234  0  0.121187  0  0.112953  0.08306  0  1.028559  0
H  H23  1  0.86859408  0.54312368  0.10975759  1  0  0.078764  0  0.956501  0  0  0.084365  0  1.027039  0  0  0.086374  0  1.024509  0  0.128426  0  0.112823  0.082839  0  1.028859  0
H  H24  1  0.17691133  0.20521362  0.68932089  1  0  0.068718  0  0.953162  0  0  0.068221  0  1.034657  0  0  0.070716  0  1.030819  0  0.138282  0  0.118041  0.066264  0  1.037574  0
H  H25  1  0.61785007  0.20525094  0.81068141  1  0  0.068813  0  0.953003  0  0  0.068255  0  1.034596  0  0  0.070749  0  1.030759  0  0.149206  0  0.118079  0.066294  0  1.037518  0
H  H26  1  0.82308660  0.79478726  0.31067889  1  0  0.068734  0  0.953139  0  0  0.068225  0  1.034634  0  0  0.070717  0  1.0308  0  0.138299  0  0.118047  0.066268  0  1.03755  0
H  H27  1  0.38215253  0.79474754  0.18931867  1  0  0.068859  0  0.952985  0  0  0.068309  0  1.034571  0  0  0.070802  0  1.030736  0  0.149177  0  0.118103  0.066348  0  1.037493  0
H  H28  1  0.36254829  0.72610469  0.72733671  1  0  0.077465  0  0.976893  0  0  0.082889  0  1.04765  0  0  0.08534  0  1.04499  0  0.152497  0  0.10693  0.080994  0  1.049621  0
H  H29  1  0.91131451  0.72615524  0.77264973  1  0  0.077612  0  0.97671  0  0  0.083091  0  1.047402  0  0  0.085465  0  1.04482  0  0.136973  0  0.106999  0.081217  0  1.04935  0
H  H30  1  0.63744443  0.27389740  0.27266380  1  0  0.077426  0  0.976919  0  0  0.082835  0  1.047704  0  0  0.085277  0  1.045053  0  0.152472  0  0.106909  0.080941  0  1.049676  0
H  H31  1  0.08868638  0.27384203  0.22735037  1  0  0.07755  0  0.976739  0  0  0.083054  0  1.04741  0  0  0.08543  0  1.044826  0  0.136997  0  0.106967  0.081163  0  1.049372  0
H  H32  1  0.13576605  0.70520925  0.67971906  1  0  0.114779  0  0.975284  0  0  0.120453  0  1.041356  0  0  0.12407  0  1.040839  0  0.11261  0  0.101797  0.117782  0  1.04201  0
H  H33  1  0.15901314  0.70523934  0.82026198  1  0  0.114861  0  0.97513  0  0  0.120556  0  1.041185  0  0  0.124171  0  1.040668  0  0.122138  0  0.101812  0.117877  0  1.041848  0
H  H34  1  0.86422782  0.29479283  0.32028144  1  0  0.114779  0  0.975336  0  0  0.120449  0  1.041407  0  0  0.124049  0  1.040908  0  0.11262  0  0.10179  0.117779  0  1.04206  0
H  H35  1  0.84098715  0.29475913  0.17973779  1  0  0.11491  0  0.975084  0  0  0.120593  0  1.041159  0  0  0.124208  0  1.040643  0  0.122163  0  0.10183  0.117915  0  1.041823  0
H  H36  1  0.92699254  0.95892253  0.63840556  1  0  0.095056  0  0.943355  0  0  0.10282  0  1.005495  0  0  0.104977  0  1.003311  0  0.155517  0  0.120365  0.101133  0  1.007174  0
H  H37  1  0.11407562  0.95892614  0.86159250  1  0  0.09521  0  0.943245  0  0  0.102977  0  1.005366  0  0  0.10514  0  1.003169  0  0.157468  0  0.120433  0.101287  0  1.007046  0
H  H38  1  0.07300710  0.04107955  0.36159453  1  0  0.095053  0  0.943373  0  0  0.102819  0  1.005515  0  0  0.104976  0  1.003332  0  0.15551  0  0.120394  0.101131  0  1.007193  0
H  H39  1  0.88592351  0.04107233  0.13840796  1  0  0.095203  0  0.943247  0  0  0.102989  0  1.005351  0  0  0.105153  0  1.003152  0  0.157476  0  0.120429  0.101268  0  1.007067  0
C  C40  1  0.82471703  0.67007661  0.67694878  1  0  0.240088  0  3.816284  0  0  0.230943  0  4.119992  0  0  0.252754  0  4.130664  0  0.684629  0  0.103185  0.215905  0  4.112617  0
C  C41  1  0.50519668  0.67005855  0.82304462  1  0  0.240017  0  3.816315  0  0  0.230874  0  4.120013  0  0  0.252682  0  4.130689  0  0.686589  0  0.103129  0.215841  0  4.112626  0
C  C42  1  0.17528582  0.32990983  0.32305000  1  0  0.240142  0  3.816228  0  0  0.231003  0  4.119931  0  0  0.252815  0  4.130602  0  0.684768  0  0.103235  0.215965  0  4.112556  0
C  C43  1  0.49480241  0.32994233  0.17695583  1  0  0.239961  0  3.816349  0  0  0.230818  0  4.120053  0  0  0.252626  0  4.130731  0  0.686548  0  0.103127  0.215786  0  4.112663  0
C  C44  1  0.55108082  0.27681850  0.70592361  1  0  0.237974  0  3.819396  0  0  0.22604  0  4.12404  0  0  0.248198  0  4.136756  0  0.681017  0  0.09869  0.210821  0  4.114942  0
C  C45  1  0.17207833  0.27680887  0.79407824  1  0  0.237768  0  3.819319  0  0  0.225829  0  4.124014  0  0  0.247992  0  4.136717  0  0.693143  0  0.098649  0.210613  0  4.114927  0
C  C46  1  0.44891827  0.72318238  0.29407650  1  0  0.237962  0  3.819388  0  0  0.226026  0  4.124038  0  0  0.248187  0  4.136747  0  0.681095  0  0.098666  0.210807  0  4.114939  0
C  C47  1  0.82792718  0.72318840  0.20592387  1  0  0.237776  0  3.819292  0  0  0.225844  0  4.123984  0  0  0.248007  0  4.136691  0  0.693553  0  0.098656  0.210627  0  4.114896  0
C  C48  1  0.04558308  0.21602302  0.52220491  1  0  0.227552  0  3.808171  0  0  0.218005  0  4.107071  0  0  0.240517  0  4.116946  0  0.688714  0  0.102342  0.202479  0  4.100218  0
C  C49  1  0.73843873  0.21600376  0.97781946  1  0  0.227258  0  3.808856  0  0  0.217707  0  4.10773  0  0  0.240224  0  4.117561  0  0.678295  0  0.102176  0.202184  0  4.100898  0
C  C50  1  0.95441887  0.78397906  0.47779482  1  0  0.227592  0  3.80811  0  0  0.218048  0  4.107007  0  0  0.240561  0  4.116879  0  0.688729  0  0.102308  0.202524  0  4.100155  0
C  C51  1  0.26156447  0.78399351  0.02218199  1  0  0.227302  0  3.808741  0  0  0.217752  0  4.107618  0  0  0.240269  0  4.117449  0  0.678345  0  0.102194  0.202229  0  4.100782  0
C  C52  1  0.57297778  0.15603876  0.59784780  1  0  0.237576  0  3.799107  0  0  0.22763  0  4.099095  0  0  0.250353  0  4.11032  0  0.670968  0  0.104393  0.212033  0  4.091187  0
C  C53  1  0.27092294  0.15617958  0.90218607  1  0  0.237686  0  3.799137  0  0  0.227778  0  4.099053  0  0  0.250499  0  4.110245  0  0.675299  0  0.104535  0.212181  0  4.09115  0
C  C54  1  0.42702106  0.84397416  0.40215054  1  0  0.237654  0  3.798919  0  0  0.227705  0  4.098921  0  0  0.250424  0  4.110136  0  0.670718  0  0.104354  0.212109  0  4.091014  0
C  C55  1  0.72906591  0.84381408  0.09781385  1  0  0.237687  0  3.799319  0  0  0.22778  0  4.099233  0  0  0.250503  0  4.110428  0  0.675533  0  0.10451  0.212183  0  4.091327  0
C  C56  1  0.60048590  0.65254399  0.55969941  1  0  0.30562  0  3.68181  0  0  0.255395  0  3.943066  0  0  0.270354  0  3.956707  0  1.075931  0  0.180313  0.245656  0  3.933604  0
C  C57  1  0.74687299  0.65259935  0.94030959  1  0  0.304766  0  3.682172  0  0  0.254574  0  3.943468  0  0  0.269534  0  3.957104  0  1.046125  0  0.17984  0.244829  0  3.934017  0
C  C58  1  0.39951429  0.34745930  0.44030068  1  0  0.305511  0  3.681814  0  0  0.255326  0  3.943063  0  0  0.270285  0  3.956706  0  1.07595  0  0.180249  0.245589  0  3.9336  0
C  C59  1  0.25312956  0.34740153  0.05969048  1  0  0.304835  0  3.682005  0  0  0.254583  0  3.943306  0  0  0.269544  0  3.95694  0  1.046101  0  0.179818  0.244838  0  3.933854  0
C  C60  1  0.32926522  0.74658489  0.53019729  1  0  0.189263  0  3.644553  0  0  0.155947  0  3.890042  0  0  0.16681  0  3.906716  0  0.484084  0  0.065661  0.149049  0  3.878641  0
C  C61  1  0.92397583  0.74675700  0.96979587  1  0  0.189057  0  3.644489  0  0  0.155628  0  3.890098  0  0  0.166472  0  3.906743  0  0.472509  0  0.065355  0.148733  0  3.8787  0
C  C62  1  0.67073562  0.25341479  0.46980247  1  0  0.189259  0  3.644638  0  0  0.155943  0  3.890145  0  0  0.166806  0  3.906821  0  0.48419  0  0.065661  0.149044  0  3.87874  0
C  C63  1  0.07602733  0.25324268  0.03020352  1  0  0.189055  0  3.644464  0  0  0.155653  0  3.890045  0  0  0.166496  0  3.906689  0  0.472587  0  0.06539  0.148757  0  3.878646  0
C  C64  1  0.29814677  0.63810217  0.55712404  1  0  -0.163459  0  3.690955  0  0  -0.169655  0  3.934877  0  0  -0.181841  0  3.956306  0  -0.007959  0  -0.08025  -0.162015  0  3.920744  0
C  C65  1  0.06360562  0.63822253  0.94288940  1  0  -0.162831  0  3.690697  0  0  -0.169001  0  3.934604  0  0  -0.181154  0  3.956042  0  -0.012815  0  -0.079819  -0.161357  0  3.920473  0
C  C66  1  0.70185463  0.36189871  0.44287639  1  0  -0.163442  0  3.69104  0  0  -0.169649  0  3.934942  0  0  -0.181836  0  3.956373  0  -0.007961  0  -0.080241  -0.162011  0  3.920809  0
C  C67  1  0.93639753  0.36177715  0.05710896  1  0  -0.162674  0  3.69067  0  0  -0.168833  0  3.934583  0  0  -0.180979  0  3.956029  0  -0.012753  0  -0.079727  -0.16119  0  3.920455  0
C  C68  1  0.42804365  0.54083085  0.58634711  1  0  0.182196  0  3.675278  0  0  0.145452  0  3.926312  0  0  0.15653  0  3.943358  0  0.474953  0  0.065691  0.138391  0  3.91468  0
C  C69  1  0.03104566  0.54088020  0.91367623  1  0  0.182123  0  3.675338  0  0  0.145493  0  3.926437  0  0  0.156572  0  3.943469  0  0.485511  0  0.065873  0.138421  0  3.91483  0
C  C70  1  0.57195714  0.45917123  0.41365297  1  0  0.18216  0  3.675205  0  0  0.145453  0  3.926247  0  0  0.156532  0  3.94329  0  0.475179  0  0.065708  0.138392  0  3.914617  0
C  C71  1  0.96895633  0.45911948  0.08632249  1  0  0.182141  0  3.675471  0  0  0.14547  0  3.926549  0  0  0.156546  0  3.943586  0  0.485284  0  0.06582  0.138396  0  3.91494  0
C  C72  1  0.16675435  0.09361242  0.68744852  1  0  0.306263  0  3.695208  0  0  0.250794  0  3.967086  0  0  0.267317  0  3.979198  0  1.101839  0  0.184235  0.239882  0  3.958941  0
C  C73  1  0.73960447  0.09364372  0.81255453  1  0  0.306282  0  3.694845  0  0  0.250838  0  3.966763  0  0  0.267363  0  3.978881  0  1.090449  0  0.184248  0.239928  0  3.958619  0
C  C74  1  0.83324298  0.90638966  0.31255160  1  0  0.306251  0  3.695177  0  0  0.250815  0  3.96706  0  0  0.267339  0  3.979173  0  1.102454  0  0.18424  0.239904  0  3.958915  0
C  C75  1  0.26039472  0.90635235  0.18744594  1  0  0.30626  0  3.694753  0  0  0.250793  0  3.96668  0  0  0.267317  0  3.978797  0  1.090435  0  0.184244  0.239885  0  3.958533  0
C  C76  1  0.26852659  0.82861160  0.70828862  1  0  0.184182  0  3.670287  0  0  0.149265  0  3.916296  0  0  0.160695  0  3.932545  0  0.457731  0  0.067995  0.141982  0  3.905281  0
C  C77  1  0.90282823  0.82865252  0.79170643  1  0  0.184004  0  3.670304  0  0  0.149025  0  3.916349  0  0  0.160512  0  3.932633  0  0.504514  0  0.06788  0.141743  0  3.905302  0
C  C78  1  0.73147080  0.17138808  0.29171151  1  0  0.184258  0  3.670198  0  0  0.149352  0  3.91623  0  0  0.160791  0  3.932474  0  0.457728  0  0.068016  0.142069  0  3.905215  0
C  C79  1  0.09717266  0.17134475  0.20829334  1  0  0.184047  0  3.670294  0  0  0.149068  0  3.916325  0  0  0.160554  0  3.932607  0  0.504512  0  0.067917  0.141799  0  3.905287  0
C  C80  1  0.14381938  0.81739780  0.68228119  1  0  -0.163945  0  3.697146  0  0  -0.169718  0  3.941274  0  0  -0.182508  0  3.963277  0  0.021839  0  -0.078491  -0.161696  0  3.926853  0
C  C81  1  0.03876597  0.81742669  0.81770743  1  0  -0.163979  0  3.697157  0  0  -0.169836  0  3.941398  0  0  -0.18262  0  3.963381  0  -0.054009  0  -0.078441  -0.161807  0  3.926979  0
C  C82  1  0.85617625  0.18260308  0.31771896  1  0  -0.163985  0  3.697223  0  0  -0.169741  0  3.941338  0  0  -0.182515  0  3.963348  0  0.021842  0  -0.078496  -0.161719  0  3.926919  0
C  C83  1  0.96123608  0.18257058  0.18229233  1  0  -0.163997  0  3.697106  0  0  -0.16986  0  3.941367  0  0  -0.182644  0  3.963351  0  -0.053983  0  -0.078448  -0.161829  0  3.926936  0
C  C84  1  0.03016933  0.95528530  0.65936401  1  0  0.193037  0  3.62855  0  0  0.157278  0  3.874843  0  0  0.168768  0  3.890866  0  0.456691  0  0.072042  0.149939  0  3.863913  0
C  C85  1  0.01453262  0.95530335  0.84063009  1  0  0.192895  0  3.628768  0  0  0.157204  0  3.875052  0  0  0.168698  0  3.891068  0  0.51456  0  0.071986  0.149878  0  3.864113  0
C  C86  1  0.96982976  0.04471558  0.34063576  1  0  0.193073  0  3.628438  0  0  0.157302  0  3.874741  0  0  0.168794  0  3.890756  0  0.456746  0  0.072061  0.149962  0  3.863815  0
C  C87  1  0.98546652  0.04469512  0.15937037  1  0  0.192908  0  3.628778  0  0  0.15719  0  3.875042  0  0  0.168684  0  3.891061  0  0.514593  0  0.071974  0.149883  0  3.864115  0
Se  Se88  1  0.99322066  0.52220056  0.64031631  1  0  -0.296827  0  2.01031  0  0  -0.276025  0  2.368267  0  0  -0.295777  0  2.355895  0  -0.023822  0  -0.085059  -0.262033  0  2.376447  0
Se  Se89  1  0.48457534  0.52219575  0.85968514  1  0  -0.296869  0  2.01046  0  0  -0.276096  0  2.368494  0  0  -0.295842  0  2.356114  0  -0.02788  0  -0.085112  -0.262107  0  2.376665  0
Se  Se90  1  0.00678555  0.47779069  0.35968309  1  0  -0.296807  0  2.010305  0  0  -0.276029  0  2.36829  0  0  -0.295782  0  2.355912  0  -0.023729  0  -0.08508  -0.262035  0  2.376469  0
Se  Se91  1  0.51542495  0.47780273  0.14031531  1  0  -0.296869  0  2.010459  0  0  -0.276099  0  2.368508  0  0  -0.295849  0  2.356127  0  -0.027858  0  -0.085112  -0.262111  0  2.376678  0
Se  Se92  1  0.62697521  0.42529513  0.70917077  1  0  -0.27796  0  2.076292  0  0  -0.256615  0  2.438966  0  0  -0.280037  0  2.431076  0  8.6e-05  0  -0.078235  -0.239705  0  2.443662  0
Se  Se93  1  0.94771611  0.42533846  0.79084827  1  0  -0.277947  0  2.076094  0  0  -0.256608  0  2.438748  0  0  -0.28003  0  2.430848  0  0.004061  0  -0.078368  -0.239738  0  2.443461  0
Se  Se94  1  0.37302388  0.57470575  0.29082968  1  0  -0.27793  0  2.076305  0  0  -0.256575  0  2.438977  0  0  -0.279999  0  2.431081  0  6.1e-05  0  -0.078233  -0.239667  0  2.443674  0
Se  Se95  1  0.05228825  0.57465881  0.20915316  1  0  -0.277944  0  2.07607  0  0  -0.256623  0  2.438755  0  0  -0.280038  0  2.43084  0  0.004101  0  -0.078354  -0.239749  0  2.443463  0
Se  Se96  1  0.15571706  0.12239856  0.46928128  1  0  -0.253232  0  2.110862  0  0  -0.226378  0  2.469788  0  0  -0.248605  0  2.459984  0  -0.004118  0  -0.060374  -0.210575  0  2.475972  0
Se  Se97  1  0.72192867  0.12241060  0.03075282  1  0  -0.2531  0  2.110486  0  0  -0.226215  0  2.469344  0  0  -0.24841  0  2.459521  0  -0.002157  0  -0.060252  -0.21043  0  2.475527  0
Se  Se98  1  0.84427977  0.87759991  0.53071852  1  0  -0.253239  0  2.110825  0  0  -0.226386  0  2.469751  0  0  -0.248618  0  2.459948  0  -0.004094  0  -0.060364  -0.21058  0  2.475932  0
Se  Se99  1  0.27807278  0.87758788  0.96924830  1  0  -0.253099  0  2.110471  0  0  -0.226206  0  2.46932  0  0  -0.248403  0  2.459501  0  -0.002077  0  -0.060245  -0.210419  0  2.475505  0
Se  Se100  1  0.37697844  0.14369961  0.58685075  1  0  -0.236253  0  2.022891  0  0  -0.211992  0  2.367406  0  0  -0.235537  0  2.361585  0  0.009515  0  -0.083367  -0.195128  0  2.370743  0
Se  Se101  1  0.47912007  0.14414854  0.91320346  1  0  -0.236516  0  2.023056  0  0  -0.21232  0  2.367653  0  0  -0.235891  0  2.361868  0  0.010204  0  -0.08349  -0.195445  0  2.370997  0
Se  Se102  1  0.62302757  0.85630127  0.41314894  1  0  -0.236312  0  2.02294  0  0  -0.212065  0  2.367488  0  0  -0.235598  0  2.361644  0  0.009658  0  -0.083395  -0.195203  0  2.370825  0
Se  Se103  1  0.52087586  0.85583789  0.08679403  1  0  -0.236571  0  2.023216  0  0  -0.212377  0  2.367823  0  0  -0.235941  0  2.362025  0  0.010176  0  -0.08351  -0.195502  0  2.37117  0
N  N104  1  0.71716197  0.76736358  0.70112993  1  0  -0.489523  0  2.858707  0  0  -0.432628  0  3.127861  0  0  -0.451235  0  3.132334  0  -1.28118  0  -0.370901  -0.4199  0  3.124836  0
N  N105  1  0.51551126  0.76732386  0.79886376  1  0  -0.489453  0  2.858696  0  0  -0.432522  0  3.127774  0  0  -0.451131  0  3.13226  0  -1.280823  0  -0.370847  -0.419789  0  3.124735  0
N  N106  1  0.28284244  0.23263129  0.29886707  1  0  -0.489596  0  2.858697  0  0  -0.432693  0  3.127831  0  0  -0.451305  0  3.132312  0  -1.281368  0  -0.370939  -0.419965  0  3.124804  0
N  N107  1  0.48449314  0.23267101  0.20113598  1  0  -0.489419  0  2.858732  0  0  -0.432486  0  3.127811  0  0  -0.451096  0  3.132298  0  -1.280827  0  -0.370856  -0.419754  0  3.12477  0
N  N108  1  0.50269920  0.17826295  0.70466614  1  0  -0.501297  0  2.888421  0  0  -0.447909  0  3.161611  0  0  -0.46795  0  3.168452  0  -1.271994  0  -0.380914  -0.434081  0  3.156763  0
N  N109  1  0.31899354  0.17820518  0.79534339  1  0  -0.501105  0  2.888372  0  0  -0.447643  0  3.161412  0  0  -0.467679  0  3.168249  0  -1.287742  0  -0.380813  -0.433825  0  3.156558  0
N  N110  1  0.49729462  0.82174154  0.29533503  1  0  -0.501318  0  2.888446  0  0  -0.447936  0  3.16164  0  0  -0.467973  0  3.168475  0  -1.272069  0  -0.380904  -0.434108  0  3.156792  0
N  N111  1  0.68101022  0.82179329  0.20465805  1  0  -0.5011  0  2.88841  0  0  -0.447644  0  3.161456  0  0  -0.467681  0  3.168296  0  -1.28821  0  -0.380826  -0.433825  0  3.156602  0
N  N112  1  0.96926321  0.27483138  0.55659189  1  0  -0.461089  0  2.890758  0  0  -0.402211  0  3.157668  0  0  -0.420391  0  3.163272  0  -1.287184  0  -0.376344  -0.389844  0  3.153903  0
N  N113  1  0.75593872  0.27476518  0.94342417  1  0  -0.460918  0  2.891465  0  0  -0.401965  0  3.158214  0  0  -0.420133  0  3.1638  0  -1.27777  0  -0.376227  -0.389609  0  3.154456  0
N  N114  1  0.03073347  0.72517432  0.44340754  1  0  -0.461112  0  2.89077  0  0  -0.402225  0  3.15766  0  0  -0.420405  0  3.163262  0  -1.287192  0  -0.376305  -0.389858  0  3.153892  0
N  N115  1  0.24406097  0.72523450  0.05657696  1  0  -0.460972  0  2.891355  0  0  -0.40202  0  3.158103  0  0  -0.420188  0  3.16369  0  -1.277903  0  -0.376251  -0.389663  0  3.154343  0
N  N116  1  0.69857754  0.16993415  0.60479092  1  0  -0.478421  0  2.881813  0  0  -0.421555  0  3.148811  0  0  -0.440981  0  3.155562  0  -1.277584  0  -0.375086  -0.408212  0  3.14406  0
N  N117  1  0.13152351  0.16990887  0.89520490  1  0  -0.478414  0  2.881784  0  0  -0.421538  0  3.148671  0  0  -0.440981  0  3.155469  0  -1.28336  0  -0.375121  -0.408199  0  3.143922  0
N  N118  1  0.30142606  0.83007155  0.39520774  1  0  -0.478441  0  2.88154  0  0  -0.421554  0  3.148483  0  0  -0.441005  0  3.155301  0  -1.277493  0  -0.375009  -0.40821  0  3.143729  0
N  N119  1  0.86846229  0.83009321  0.10479739  1  0  -0.478371  0  2.88188  0  0  -0.421516  0  3.148796  0  0  -0.440956  0  3.15558  0  -1.283372  0  -0.37508  -0.408169  0  3.144041  0
N  N120  1  0.58070200  0.54536837  0.58678058  1  0  -0.35159  0  3.207333  0  0  -0.272216  0  3.463325  0  0  -0.295615  0  3.482789  0  -1.240183  0  -0.318  -0.256558  0  3.449799  0
N  N121  1  0.87387451  0.54537920  0.91324594  1  0  -0.35113  0  3.20729  0  0  -0.271785  0  3.463246  0  0  -0.295182  0  3.482713  0  -1.211951  0  -0.317867  -0.256126  0  3.449721  0
N  N122  1  0.41929819  0.45463492  0.41321985  1  0  -0.351457  0  3.207136  0  0  -0.272181  0  3.463211  0  0  -0.295577  0  3.482672  0  -1.24046  0  -0.318019  -0.256523  0  3.449686  0
N  N123  1  0.12612458  0.45462168  0.08675416  1  0  -0.351063  0  3.207155  0  0  -0.271721  0  3.46315  0  0  -0.295118  0  3.482617  0  -1.211865  0  -0.317839  -0.256062  0  3.449625  0
N  N124  1  0.47897328  0.75620394  0.53214756  1  0  -0.349436  0  3.189295  0  0  -0.272891  0  3.443961  0  0  -0.295338  0  3.463305  0  -1.220225  0  -0.316963  -0.257944  0  3.430514  0
N  N125  1  0.76466727  0.75634355  0.96783976  1  0  -0.349164  0  3.189803  0  0  -0.272434  0  3.444319  0  0  -0.294877  0  3.463676  0  -1.22339  0  -0.316809  -0.257481  0  3.430874  0
N  N126  1  0.52102637  0.24379815  0.46785253  1  0  -0.3494  0  3.189352  0  0  -0.272864  0  3.444012  0  0  -0.295311  0  3.463356  0  -1.220308  0  -0.316932  -0.257915  0  3.430562  0
N  N127  1  0.23533528  0.24365733  0.03216031  1  0  -0.349248  0  3.18985  0  0  -0.272539  0  3.444412  0  0  -0.294981  0  3.463763  0  -1.223371  0  -0.316858  -0.257586  0  3.430967  0
N  N128  1  0.04124167  0.09346438  0.66218253  1  0  -0.351641  0  3.200788  0  0  -0.272676  0  3.462285  0  0  -0.295522  0  3.479238  0  -1.239077  0  -0.315874  -0.257541  0  3.450645  0
N  N129  1  0.86527076  0.09347762  0.83782295  1  0  -0.351695  0  3.200845  0  0  -0.272792  0  3.462379  0  0  -0.295639  0  3.479329  0  -1.254139  0  -0.315927  -0.257653  0  3.450721  0
N  N130  1  0.95875858  0.90653650  0.33781722  1  0  -0.351601  0  3.200624  0  0  -0.272633  0  3.462125  0  0  -0.295478  0  3.479078  0  -1.239683  0  -0.315887  -0.257497  0  3.450483  0
N  N131  1  0.13472607  0.90652085  0.16217754  1  0  -0.351757  0  3.200822  0  0  -0.272801  0  3.462309  0  0  -0.295648  0  3.479259  0  -1.254234  0  -0.315935  -0.257657  0  3.450637  0
N  N132  1  0.28049864  0.96626680  0.71063355  1  0  -0.358069  0  3.192849  0  0  -0.279207  0  3.455518  0  0  -0.302658  0  3.472298  0  -1.239113  0  -0.316466  -0.263587  0  3.443921  0
N  N133  1  0.75320132  0.96631134  0.78936387  1  0  -0.358088  0  3.192648  0  0  -0.279179  0  3.455338  0  0  -0.302609  0  3.472047  0  -1.24693  0  -0.316461  -0.263564  0  3.443748  0
N  N134  1  0.71949814  0.03373408  0.28936658  1  0  -0.35815  0  3.192804  0  0  -0.279321  0  3.455512  0  0  -0.30277  0  3.472285  0  -1.239174  0  -0.316506  -0.263701  0  3.443915  0
N  N135  1  0.24680073  0.03368593  0.21063622  1  0  -0.358083  0  3.192625  0  0  -0.279202  0  3.455344  0  0  -0.302635  0  3.472063  0  -1.246906  0  -0.316479  -0.263587  0  3.44375  0
