# generated using pymatgen
data_CdH12(C7N5)2
_symmetry_space_group_name_H-M   'P 1'
_cell_length_a   8.90562389
_cell_length_b   9.66310369
_cell_length_c   10.05581748
_cell_angle_alpha   90.00009526
_cell_angle_beta   89.99977943
_cell_angle_gamma   116.82284572
_symmetry_Int_Tables_number   1
_chemical_formula_structural   CdH12(C7N5)2
_chemical_formula_sum   'Cd2 H24 C28 N20'
_cell_volume   772.25519275
_cell_formula_units_Z   2
loop_
 _symmetry_equiv_pos_site_id
 _symmetry_equiv_pos_as_xyz
  1  'x, y, z'
loop_
 _atom_site_type_symbol
 _atom_site_label
 _atom_site_symmetry_multiplicity
 _atom_site_fract_x
 _atom_site_fract_y
 _atom_site_fract_z
 _atom_site_occupancy
 _atom_site_hle17_bader_spin_density
 _atom_site_hle17_ddec_charge
 _atom_site_hle17_ddec_spin_density
 _atom_site_hle17_ddec_sum_bond_order
 _atom_site_hle17_magmom
 _atom_site_hse06_10hf_bader_spin_density
 _atom_site_hse06_10hf_ddec_charge
 _atom_site_hse06_10hf_ddec_spin_density
 _atom_site_hse06_10hf_ddec_sum_bond_order
 _atom_site_hse06_10hf_magmom
 _atom_site_hse06_bader_spin_density
 _atom_site_hse06_ddec_charge
 _atom_site_hse06_ddec_spin_density
 _atom_site_hse06_ddec_sum_bond_order
 _atom_site_hse06_magmom
 _atom_site_pbe_bader_spin_density
 _atom_site_pbe_cm5_charge
 _atom_site_pbe_ddec_charge
 _atom_site_pbe_ddec_spin_density
 _atom_site_pbe_ddec_sum_bond_order
 _atom_site_pbe_magmom
Cd  Cd0  1  0.99999991  0.50000022  0.49999982  1  0  0.93762  0  1.900692  0  0  0.714773  0  2.360496  0  0  0.764503  0  2.323356  0  0  0.790989  0.679196  0  2.386055  0
Cd  Cd1  1  0.49999988  0.49999882  0.99999980  1  0  0.937609  0  1.900698  0  0  0.714742  0  2.360525  0  0  0.764474  0  2.323384  0  0  0.790969  0.679167  0  2.386086  0
H  H2  1  0.98418206  0.95620418  0.17907155  1  0  0.110838  0  0.947678  0  0  0.121484  0  1.006655  0  0  0.123921  0  1.007605  0  0  0.107043  0.119593  0  1.006522  0
H  H3  1  0.51581746  0.04379836  0.67907174  1  0  0.110829  0  0.947722  0  0  0.121476  0  1.006699  0  0  0.123914  0  1.007649  0  0  0.107029  0.119585  0  1.006566  0
H  H4  1  0.01581597  0.04379697  0.82092780  1  0  0.110832  0  0.947683  0  0  0.12148  0  1.006654  0  0  0.123918  0  1.007603  0  0  0.107038  0.11959  0  1.006522  0
H  H5  1  0.48418113  0.95619932  0.32092959  1  0  0.110866  0  0.947714  0  0  0.12151  0  1.006691  0  0  0.123949  0  1.007637  0  0  0.107053  0.119618  0  1.006559  0
H  H6  1  0.00512515  0.61013235  0.16966048  1  0  0.124301  0  0.913843  0  0  0.138881  0  0.969982  0  0  0.140629  0  0.96948  0  0  0.111795  0.137847  0  0.969947  0
H  H7  1  0.49487825  0.38987092  0.66966258  1  0  0.124295  0  0.913781  0  0  0.138862  0  0.969934  0  0  0.140608  0  0.969433  0  0  0.111799  0.137828  0  0.9699  0
H  H8  1  0.99487570  0.38986997  0.83033787  1  0  0.124327  0  0.9138  0  0  0.138901  0  0.969937  0  0  0.140649  0  0.969434  0  0  0.111814  0.137867  0  0.969903  0
H  H9  1  0.50512372  0.61012909  0.33033975  1  0  0.124317  0  0.913801  0  0  0.13888  0  0.969948  0  0  0.140628  0  0.969445  0  0  0.111795  0.137847  0  0.969913  0
H  H10  1  0.87907511  0.69658558  0.11848470  1  0  0.113412  0  0.964615  0  0  0.119088  0  1.042276  0  0  0.121921  0  1.039627  0  0  0.10559  0.116898  0  1.044417  0
H  H11  1  0.62092580  0.30341466  0.61848595  1  0  0.113441  0  0.964621  0  0  0.119119  0  1.042267  0  0  0.121951  0  1.039619  0  0  0.105606  0.11693  0  1.044411  0
H  H12  1  0.12092742  0.30341559  0.88151266  1  0  0.113469  0  0.964571  0  0  0.119132  0  1.042227  0  0  0.121965  0  1.039578  0  0  0.105611  0.116945  0  1.044372  0
H  H13  1  0.37907560  0.69658419  0.38151638  1  0  0.1134  0  0.964649  0  0  0.119095  0  1.04227  0  0  0.121927  0  1.039623  0  0  0.105596  0.116907  0  1.044415  0
H  H14  1  0.29676041  0.12193781  0.52818440  1  0  0.104685  0  0.952472  0  0  0.114542  0  1.012692  0  0  0.117164  0  1.012883  0  0  0.106286  0.112505  0  1.012933  0
H  H15  1  0.20323798  0.87806083  0.02818404  1  0  0.104693  0  0.952442  0  0  0.114558  0  1.012663  0  0  0.117179  0  1.012852  0  0  0.106291  0.11252  0  1.012904  0
H  H16  1  0.70323761  0.87806103  0.47181594  1  0  0.104681  0  0.952473  0  0  0.11455  0  1.012692  0  0  0.11717  0  1.012882  0  0  0.106288  0.112512  0  1.012933  0
H  H17  1  0.79675724  0.12193684  0.97181630  1  0  0.104689  0  0.952415  0  0  0.114537  0  1.012668  0  0  0.117159  0  1.012858  0  0  0.106284  0.112501  0  1.012908  0
H  H18  1  0.17069555  0.17731066  0.32413063  1  0  0.099295  0  0.958861  0  0  0.103427  0  1.027663  0  0  0.105843  0  1.02604  0  0  0.108142  0.101882  0  1.028488  0
H  H19  1  0.32930379  0.82269027  0.82412902  1  0  0.099312  0  0.958838  0  0  0.103439  0  1.027644  0  0  0.105855  0  1.026021  0  0  0.108154  0.101893  0  1.028469  0
H  H20  1  0.82930248  0.82268818  0.67587070  1  0  0.099301  0  0.958855  0  0  0.103428  0  1.027662  0  0  0.105845  0  1.026038  0  0  0.108145  0.101883  0  1.028486  0
H  H21  1  0.67069311  0.17730856  0.17587132  1  0  0.099303  0  0.958854  0  0  0.103431  0  1.027654  0  0  0.105848  0  1.026029  0  0  0.108149  0.101886  0  1.02848  0
H  H22  1  0.21930676  0.84477484  0.58296733  1  0  0.073307  0  0.972726  0  0  0.074168  0  1.052772  0  0  0.076819  0  1.049922  0  0  0.110809  0.072121  0  1.054955  0
H  H23  1  0.28069139  0.15522379  0.08296953  1  0  0.073289  0  0.972718  0  0  0.074145  0  1.052779  0  0  0.076794  0  1.049932  0  0  0.110804  0.072098  0  1.054963  0
H  H24  1  0.78069127  0.15522400  0.41703102  1  0  0.073283  0  0.972725  0  0  0.074144  0  1.052775  0  0  0.076793  0  1.049926  0  0  0.110802  0.072097  0  1.054959  0
H  H25  1  0.71930551  0.84477504  0.91703081  1  0  0.073321  0  0.972686  0  0  0.074182  0  1.052732  0  0  0.076831  0  1.049882  0  0  0.110813  0.072135  0  1.054917  0
C  C26  1  0.01150337  0.78502684  0.30130282  1  0  0.275895  0  3.700445  0  0  0.276934  0  3.941523  0  0  0.285353  0  3.962321  0  0  0.120835  0.271466  0  3.927088  0
C  C27  1  0.48849833  0.21497410  0.80130167  1  0  0.275852  0  3.700677  0  0  0.276913  0  3.941708  0  0  0.285332  0  3.962504  0  0  0.12085  0.271444  0  3.927276  0
C  C28  1  0.98849804  0.21497432  0.69869852  1  0  0.275803  0  3.700619  0  0  0.276859  0  3.941653  0  0  0.285277  0  3.962451  0  0  0.120828  0.271391  0  3.92722  0
C  C29  1  0.51150083  0.78502706  0.19869668  1  0  0.275833  0  3.700641  0  0  0.276857  0  3.941702  0  0  0.285274  0  3.962501  0  0  0.120836  0.271391  0  3.927265  0
C  C30  1  0.04099791  0.93587856  0.26834087  1  0  -0.174149  0  3.693854  0  0  -0.187127  0  3.935143  0  0  -0.195858  0  3.957726  0  0  -0.086107  -0.181548  0  3.920227  0
C  C31  1  0.45900280  0.06412238  0.76834058  1  0  -0.174136  0  3.693923  0  0  -0.187125  0  3.9352  0  0  -0.195858  0  3.957784  0  0  -0.086088  -0.181545  0  3.920283  0
C  C32  1  0.95899956  0.06412143  0.73165947  1  0  -0.174092  0  3.693886  0  0  -0.187083  0  3.935175  0  0  -0.195815  0  3.957759  0  0  -0.086082  -0.181504  0  3.92026  0
C  C33  1  0.54100141  0.93587764  0.23166175  1  0  -0.174186  0  3.694013  0  0  -0.187165  0  3.935293  0  0  -0.195897  0  3.957876  0  0  -0.086144  -0.181585  0  3.920376  0
C  C34  1  0.91659747  0.65259833  0.20627160  1  0  -0.280191  0  3.715327  0  0  -0.322934  0  3.957787  0  0  -0.325672  0  3.964661  0  0  -0.148747  -0.321056  0  3.952827  0
C  C35  1  0.58340643  0.34740422  0.70627205  1  0  -0.280215  0  3.715287  0  0  -0.322962  0  3.957744  0  0  -0.325695  0  3.964609  0  0  -0.148776  -0.321089  0  3.952794  0
C  C36  1  0.08340450  0.34740399  0.79372874  1  0  -0.280245  0  3.715283  0  0  -0.322948  0  3.957734  0  0  -0.325687  0  3.964608  0  0  -0.148758  -0.321078  0  3.952784  0
C  C37  1  0.41659554  0.65259579  0.29372929  1  0  -0.280147  0  3.715361  0  0  -0.322867  0  3.957746  0  0  -0.325605  0  3.964621  0  0  -0.148715  -0.320998  0  3.952791  0
C  C38  1  0.21334592  0.02881975  0.46335632  1  0  -0.120481  0  3.740804  0  0  -0.134891  0  3.992983  0  0  -0.142247  0  4.014446  0  0  -0.08478  -0.130033  0  3.978852  0
C  C39  1  0.28665225  0.97118232  0.96335707  1  0  -0.120499  0  3.740731  0  0  -0.134927  0  3.992925  0  0  -0.142282  0  4.014388  0  0  -0.084787  -0.130069  0  3.978797  0
C  C40  1  0.78665155  0.97118024  0.53664303  1  0  -0.120495  0  3.740723  0  0  -0.134935  0  3.992924  0  0  -0.14229  0  4.014386  0  0  -0.084798  -0.130077  0  3.978795  0
C  C41  1  0.71334465  0.02881652  0.03664426  1  0  -0.120448  0  3.740698  0  0  -0.134866  0  3.992868  0  0  -0.142224  0  4.014333  0  0  -0.084759  -0.130009  0  3.978742  0
C  C42  1  0.14426091  0.05922362  0.34953677  1  0  0.016674  0  3.723694  0  0  -0.004518  0  3.979356  0  0  0.000552  0  3.99668  0  0  -0.062477  -0.007882  0  3.967524  0
C  C43  1  0.35573664  0.94077614  0.84953724  1  0  0.016686  0  3.723631  0  0  -0.004499  0  3.979295  0  0  0.000571  0  3.996619  0  0  -0.062472  -0.007862  0  3.967463  0
C  C44  1  0.85573487  0.94077521  0.65046257  1  0  0.016666  0  3.723647  0  0  -0.004513  0  3.979309  0  0  0.000557  0  3.996632  0  0  -0.062471  -0.007876  0  3.967478  0
C  C45  1  0.64426083  0.05922385  0.15046409  1  0  0.016686  0  3.723649  0  0  -0.004495  0  3.979295  0  0  0.000576  0  3.996619  0  0  -0.062467  -0.007859  0  3.967466  0
C  C46  1  0.17308035  0.87550415  0.49295884  1  0  0.12308  0  3.725654  0  0  0.093589  0  3.980978  0  0  0.10092  0  3.998764  0  0  0.040947  0.088842  0  3.969023  0
C  C47  1  0.32692050  0.12449677  0.99296009  1  0  0.123102  0  3.725574  0  0  0.093614  0  3.980895  0  0  0.100944  0  3.998682  0  0  0.040956  0.088866  0  3.968945  0
C  C48  1  0.82691993  0.12449700  0.50704051  1  0  0.123134  0  3.725562  0  0  0.093649  0  3.98089  0  0  0.100981  0  3.998674  0  0  0.040962  0.088901  0  3.968938  0
C  C49  1  0.67307753  0.87550207  0.00704025  1  0  0.12309  0  3.725569  0  0  0.093604  0  3.980885  0  0  0.100936  0  3.99867  0  0  0.040966  0.088856  0  3.968935  0
C  C50  1  0.76625103  0.51618007  0.25978902  1  0  0.34734  0  3.742583  0  0  0.320662  0  4.015058  0  0  0.333576  0  4.031078  0  0  0.213278  0.312176  0  4.003621  0
C  C51  1  0.73375151  0.48382015  0.75978918  1  0  0.3474  0  3.742503  0  0  0.320741  0  4.014928  0  0  0.333655  0  4.030945  0  0  0.2133  0.312255  0  4.003494  0
C  C52  1  0.23375094  0.48381993  0.74020933  1  0  0.347416  0  3.742402  0  0  0.320676  0  4.014941  0  0  0.33359  0  4.030961  0  0  0.213293  0.31219  0  4.003504  0
C  C53  1  0.26625158  0.51617754  0.24021216  1  0  0.347292  0  3.742605  0  0  0.320636  0  4.015018  0  0  0.33355  0  4.031038  0  0  0.213248  0.312151  0  4.003579  0
N  N54  1  0.07560913  0.75622944  0.41379180  1  0  -0.369487  0  3.186627  0  0  -0.29705  0  3.442739  0  0  -0.316396  0  3.46125  0  0  -0.329606  -0.283862  0  3.429719  0
N  N55  1  0.42439207  0.24377149  0.91378992  1  0  -0.369494  0  3.186722  0  0  -0.297037  0  3.442789  0  0  -0.316385  0  3.461299  0  0  -0.329631  -0.283849  0  3.429772  0
N  N56  1  0.92439172  0.24377057  0.58620954  1  0  -0.369489  0  3.186681  0  0  -0.297042  0  3.442761  0  0  -0.316387  0  3.461271  0  0  -0.329616  -0.283852  0  3.429742  0
N  N57  1  0.57560877  0.75622851  0.08620942  1  0  -0.369504  0  3.186674  0  0  -0.297055  0  3.442772  0  0  -0.316401  0  3.46128  0  0  -0.329638  -0.283867  0  3.429753  0
N  N58  1  0.61613929  0.44688864  0.19841182  1  0  -0.360139  0  3.123465  0  0  -0.298559  0  3.414551  0  0  -0.316419  0  3.429707  0  0  -0.244815  -0.286105  0  3.40329  0
N  N59  1  0.88386464  0.55311391  0.69841356  1  0  -0.360256  0  3.12358  0  0  -0.298693  0  3.414681  0  0  -0.316553  0  3.429838  0  0  -0.244915  -0.286236  0  3.403414  0
N  N60  1  0.38386268  0.55311137  0.80158554  1  0  -0.360212  0  3.123412  0  0  -0.298619  0  3.414527  0  0  -0.316477  0  3.429681  0  0  -0.24488  -0.286165  0  3.403266  0
N  N61  1  0.11613676  0.44688725  0.30158777  1  0  -0.360148  0  3.123452  0  0  -0.298588  0  3.414548  0  0  -0.316448  0  3.429707  0  0  -0.244854  -0.286131  0  3.40328  0
N  N62  1  0.76085809  0.43912914  0.37215179  1  0  -0.352489  0  3.155669  0  0  -0.288493  0  3.447946  0  0  -0.306838  0  3.462412  0  0  -0.252607  -0.275894  0  3.437591  0
N  N63  1  0.73914452  0.56086992  0.87215205  1  0  -0.352535  0  3.15577  0  0  -0.288545  0  3.448052  0  0  -0.306891  0  3.462519  0  0  -0.25263  -0.275945  0  3.437696  0
N  N64  1  0.23914445  0.56087203  0.62784855  1  0  -0.352488  0  3.1557  0  0  -0.288476  0  3.448001  0  0  -0.306819  0  3.462464  0  0  -0.252603  -0.275876  0  3.437644  0
N  N65  1  0.26085745  0.43912777  0.12784829  1  0  -0.35249  0  3.155704  0  0  -0.288511  0  3.447984  0  0  -0.306854  0  3.462442  0  0  -0.252617  -0.275912  0  3.43763  0
N  N66  1  0.51716891  0.32500278  0.27596799  1  0  -0.096706  0  2.990045  0  0  -0.09157  0  3.296105  0  0  -0.091211  0  3.308822  0  0  -0.105181  -0.091395  0  3.286559  0
N  N67  1  0.98283299  0.67499861  0.77596760  1  0  -0.09655  0  2.990085  0  0  -0.091402  0  3.29613  0  0  -0.091043  0  3.308846  0  0  -0.10507  -0.091228  0  3.286582  0
N  N68  1  0.48283137  0.67499838  0.72403136  1  0  -0.096676  0  2.990073  0  0  -0.091529  0  3.296118  0  0  -0.09117  0  3.308836  0  0  -0.10517  -0.091355  0  3.286572  0
N  N69  1  0.01716729  0.32500255  0.22403174  1  0  -0.096656  0  2.989982  0  0  -0.091518  0  3.296039  0  0  -0.091158  0  3.308756  0  0  -0.105144  -0.091344  0  3.286493  0
N  N70  1  0.60361910  0.32008202  0.37992458  1  0  -0.103989  0  2.98596  0  0  -0.095013  0  3.289079  0  0  -0.094302  0  3.300657  0  0  -0.105898  -0.095147  0  3.280827  0
N  N71  1  0.89638235  0.67991936  0.87992449  1  0  -0.104035  0  2.986064  0  0  -0.09506  0  3.289176  0  0  -0.09435  0  3.300754  0  0  -0.105897  -0.095193  0  3.280924  0
N  N72  1  0.39638231  0.67991915  0.62007477  1  0  -0.104025  0  2.986053  0  0  -0.095055  0  3.289176  0  0  -0.094345  0  3.300755  0  0  -0.105899  -0.095188  0  3.280923  0
N  N73  1  0.10361793  0.32008180  0.12007485  1  0  -0.104013  0  2.98598  0  0  -0.095035  0  3.289093  0  0  -0.094324  0  3.30067  0  0  -0.105888  -0.095169  0  3.280843  0
