# generated using pymatgen
data_ZnH18C28(NO3)4
_symmetry_space_group_name_H-M   'P 1'
_cell_length_a   9.74058297
_cell_length_b   11.89398354
_cell_length_c   13.16000000
_cell_angle_alpha   113.87292352
_cell_angle_beta   93.41818661
_cell_angle_gamma   108.24160520
_symmetry_Int_Tables_number   1
_chemical_formula_structural   ZnH18C28(NO3)4
_chemical_formula_sum   'Zn2 H36 C56 N8 O24'
_cell_volume   1293.31096262
_cell_formula_units_Z   2
loop_
 _symmetry_equiv_pos_site_id
 _symmetry_equiv_pos_as_xyz
  1  'x, y, z'
loop_
 _atom_site_type_symbol
 _atom_site_label
 _atom_site_symmetry_multiplicity
 _atom_site_fract_x
 _atom_site_fract_y
 _atom_site_fract_z
 _atom_site_occupancy
 _atom_site_hle17_bader_spin_density
 _atom_site_hle17_ddec_charge
 _atom_site_hle17_ddec_spin_density
 _atom_site_hle17_ddec_sum_bond_order
 _atom_site_hle17_magmom
 _atom_site_hse06_10hf_bader_spin_density
 _atom_site_hse06_10hf_ddec_charge
 _atom_site_hse06_10hf_ddec_spin_density
 _atom_site_hse06_10hf_ddec_sum_bond_order
 _atom_site_hse06_10hf_magmom
 _atom_site_hse06_bader_spin_density
 _atom_site_hse06_ddec_charge
 _atom_site_hse06_ddec_spin_density
 _atom_site_hse06_ddec_sum_bond_order
 _atom_site_hse06_magmom
 _atom_site_pbe_bader_charge
 _atom_site_pbe_bader_spin_density
 _atom_site_pbe_cm5_charge
 _atom_site_pbe_ddec_charge
 _atom_site_pbe_ddec_spin_density
 _atom_site_pbe_ddec_sum_bond_order
 _atom_site_pbe_magmom
Zn  Zn0  1  0.62806692  0.98733821  0.60232739  1  0  1.051917  0  1.807088  0  0  0.859272  0  2.28192  0  0  0.911199  0  2.221386  0  1.311814  0  0.692164  0.822842  0  2.323747  0
Zn  Zn1  1  0.37193239  0.01266114  0.39767181  1  0  1.051868  0  1.807125  0  0  0.859233  0  2.281964  0  0  0.911162  0  2.221436  0  1.311813  0  0.692159  0.822805  0  2.323792  0
H  H2  1  0.52922407  0.82734505  0.83482519  1  0  0.403402  0  0.882562  0  0  0.374671  0  0.955075  0  0  0.387585  0  0.941328  0  0.647444  0  0.30842  0.366095  0  0.964314  0
H  H3  1  0.47077503  0.17265628  0.16517472  1  0  0.403396  0  0.882587  0  0  0.374654  0  0.955119  0  0  0.387567  0  0.941374  0  0.647444  0  0.308419  0.366078  0  0.964357  0
H  H4  1  0.48118902  0.65772023  0.65660753  1  0  0.409099  0  0.867757  0  0  0.379779  0  0.940684  0  0  0.392717  0  0.927211  0  0.656572  0  0.310259  0.370748  0  0.950236  0
H  H5  1  0.51881357  0.34228209  0.34339366  1  0  0.409015  0  0.867922  0  0  0.37972  0  0.940794  0  0  0.392657  0  0.927323  0  0.656573  0  0.310238  0.37069  0  0.950339  0
H  H6  1  0.16879829  0.85545342  0.99115422  1  0  0.130627  0  0.925215  0  0  0.138782  0  0.982949  0  0  0.143227  0  0.979433  0  0.141179  0  0.120708  0.135577  0  0.985559  0
H  H7  1  0.83120204  0.14454593  0.00884274  1  0  0.130631  0  0.925193  0  0  0.138796  0  0.982924  0  0  0.143237  0  0.979409  0  0.140707  0  0.120713  0.13559  0  0.985536  0
H  H8  1  0.30729100  0.99885958  0.90763696  1  0  0.108663  0  0.940103  0  0  0.118523  0  0.997575  0  0  0.122197  0  0.995013  0  0.105171  0  0.11076  0.11601  0  0.999174  0
H  H9  1  0.69270768  0.00114076  0.09236030  1  0  0.108655  0  0.940065  0  0  0.118491  0  0.997578  0  0  0.122164  0  0.995016  0  0.105153  0  0.110741  0.115978  0  0.999176  0
H  H10  1  0.16451960  0.04785746  0.77504668  1  0  0.104771  0  0.952313  0  0  0.111534  0  1.020097  0  0  0.114864  0  1.018361  0  0.105652  0  0.108418  0.109037  0  1.021581  0
H  H11  1  0.83547949  0.95214387  0.22495096  1  0  0.10479  0  0.952253  0  0  0.111551  0  1.020031  0  0  0.114881  0  1.018296  0  0.105673  0  0.108423  0.109056  0  1.021516  0
H  H12  1  0.79450644  0.55606011  0.60505524  1  0  0.129311  0  0.941497  0  0  0.133729  0  1.008074  0  0  0.138535  0  1.003057  0  0.147606  0  0.117689  0.130252  0  1.011641  0
H  H13  1  0.20549512  0.44394221  0.39494667  1  0  0.129294  0  0.941538  0  0  0.133718  0  1.008099  0  0  0.138523  0  1.003089  0  0.147606  0  0.117687  0.130239  0  1.011667  0
H  H14  1  0.78161763  0.66614978  0.48082447  1  0  0.112827  0  0.9309  0  0  0.120917  0  0.989187  0  0  0.123955  0  0.989042  0  0.089731  0  0.11166  0.118763  0  0.989442  0
H  H15  1  0.21838352  0.33385155  0.51917705  1  0  0.112829  0  0.930867  0  0  0.120906  0  0.989186  0  0  0.123943  0  0.989043  0  0.089722  0  0.111651  0.11876  0  0.989433  0
H  H16  1  0.01801549  0.80220581  0.45293747  1  0  0.122824  0  0.934544  0  0  0.131384  0  0.996538  0  0  0.135055  0  0.993787  0  0.144269  0  0.117027  0.128601  0  0.998728  0
H  H17  1  0.98198525  0.19779454  0.54706292  1  0  0.122772  0  0.934605  0  0  0.131363  0  0.996568  0  0  0.135037  0  0.993811  0  0.144258  0  0.11703  0.12858  0  0.998759  0
H  H18  1  0.82719587  0.93615940  0.42831541  1  0  0.090776  0  0.948512  0  0  0.099142  0  1.013474  0  0  0.10169  0  1.01124  0  0.134195  0  0.117268  0.097247  0  1.015136  0
H  H19  1  0.17280056  0.06383798  0.57168142  1  0  0.090744  0  0.948468  0  0  0.099232  0  1.013301  0  0  0.101787  0  1.011074  0  0.134143  0  0.117318  0.097336  0  1.014963  0
H  H20  1  0.83252595  0.75824850  0.25152910  1  0  0.120949  0  0.954374  0  0  0.130499  0  1.014275  0  0  0.134209  0  1.012408  0  0.125076  0  0.110076  0.127792  0  1.01582  0
H  H21  1  0.16747048  0.24174888  0.74847001  1  0  0.120944  0  0.954414  0  0  0.130469  0  1.014337  0  0  0.134178  0  1.012476  0  0.1251  0  0.110074  0.127779  0  1.015865  0
H  H22  1  0.40283790  0.51493936  0.26480246  1  0  0.119083  0  0.962262  0  0  0.12529  0  1.028401  0  0  0.128804  0  1.027043  0  0.111723  0  0.106656  0.122671  0  1.029661  0
H  H23  1  0.59716059  0.48505801  0.73519978  1  0  0.119087  0  0.962236  0  0  0.125296  0  1.028377  0  0  0.128811  0  1.027021  0  0.111761  0  0.106647  0.122679  0  1.029636  0
H  H24  1  0.41951998  0.70306861  0.44568763  1  0  0.074205  0  0.970579  0  0  0.084615  0  1.032924  0  0  0.086377  0  1.031405  0  0.103862  0  0.11269  0.083222  0  1.034231  0
H  H25  1  0.58047830  0.29693074  0.55431228  1  0  0.0742  0  0.970605  0  0  0.084636  0  1.032927  0  0  0.086379  0  1.031431  0  0.10389  0  0.112697  0.083242  0  1.034233  0
H  H26  1  0.49643816  0.42192052  0.10804057  1  0  0.097843  0  0.981381  0  0  0.108662  0  1.044384  0  0  0.111513  0  1.042907  0  0.114643  0  0.103566  0.106584  0  1.045553  0
H  H27  1  0.50356032  0.57807686  0.89195939  1  0  0.097822  0  0.981427  0  0  0.108649  0  1.044417  0  0  0.111505  0  1.04294  0  0.114673  0  0.10354  0.106571  0  1.045585  0
H  H28  1  0.80860236  0.57576961  0.09332273  1  0  0.095916  0  0.963146  0  0  0.103771  0  1.030575  0  0  0.107433  0  1.027144  0  0.093355  0  0.103078  0.101179  0  1.032968  0
H  H29  1  0.19139591  0.42422974  0.90667794  1  0  0.095893  0  0.963162  0  0  0.103762  0  1.030576  0  0  0.107438  0  1.02713  0  0.093365  0  0.103067  0.10117  0  1.032971  0
H  H30  1  0.84696767  0.27168564  0.74024980  1  0  0.087652  0  0.93776  0  0  0.095324  0  1.002162  0  0  0.098308  0  0.998787  0  0.128105  0  0.116982  0.093147  0  1.004549  0
H  H31  1  0.15303410  0.72831471  0.25974987  1  0  0.087625  0  0.937785  0  0  0.0953  0  1.002188  0  0  0.098284  0  0.998812  0  0.128127  0  0.116983  0.093123  0  1.004577  0
H  H32  1  0.88567312  0.46936837  0.92231028  1  0  0.109438  0  0.956339  0  0  0.116342  0  1.022521  0  0  0.119683  0  1.021441  0  0.092175  0  0.105339  0.113973  0  1.023383  0
H  H33  1  0.11432721  0.53063098  0.07769049  1  0  0.109492  0  0.956256  0  0  0.116366  0  1.022471  0  0  0.119707  0  1.021391  0  0.092207  0  0.105338  0.113997  0  1.023332  0
H  H34  1  0.47569749  0.24364058  0.97486844  1  0  0.108227  0  0.963481  0  0  0.11824  0  1.024943  0  0  0.121355  0  1.024129  0  0.108056  0  0.105903  0.11602  0  1.025716  0
H  H35  1  0.52430346  0.75635779  0.02513123  1  0  0.108217  0  0.963475  0  0  0.118227  0  1.024942  0  0  0.121342  0  1.024127  0  0.107736  0  0.105908  0.116007  0  1.025714  0
H  H36  1  0.45697412  0.05590015  0.79151489  1  0  0.079952  0  0.96411  0  0  0.088488  0  1.029521  0  0  0.090724  0  1.027792  0  0.102629  0  0.112371  0.086885  0  1.030682  0
H  H37  1  0.54302848  0.94409722  0.20848601  1  0  0.079971  0  0.964113  0  0  0.088486  0  1.029548  0  0  0.090721  0  1.027821  0  0.102627  0  0.112357  0.086883  0  1.030709  0
C  C38  1  0.95358429  0.93285782  0.78552206  1  0  -0.063102  0  3.703325  0  0  -0.048673  0  3.936361  0  0  -0.056554  0  3.959796  0  0.022515  0  -0.008495  -0.044237  0  3.921042  0
C  C39  1  0.04641501  0.06714153  0.21447562  1  0  -0.063127  0  3.703374  0  0  -0.048652  0  3.936363  0  0  -0.056534  0  3.959798  0  0.022514  0  -0.008497  -0.044218  0  3.921044  0
C  C40  1  0.87377011  0.85101010  0.83165001  1  0  -0.083588  0  3.654183  0  0  -0.075416  0  3.892669  0  0  -0.077528  0  3.911493  0  0.064947  0  0.009246  -0.073244  0  3.879154  0
C  C41  1  0.12623125  0.14898925  0.16834852  1  0  -0.083618  0  3.654297  0  0  -0.075476  0  3.892786  0  0  -0.077587  0  3.911613  0  0.064825  0  0.009245  -0.073301  0  3.879272  0
C  C42  1  0.95664286  0.82549589  0.90531294  1  0  0.047714  0  3.69548  0  0  0.022259  0  3.95442  0  0  0.018365  0  3.978598  0  0.240149  0  0.076  0.024796  0  3.937907  0
C  C43  1  0.04335891  0.17450445  0.09468597  1  0  0.047757  0  3.695414  0  0  0.022218  0  3.954427  0  0  0.018316  0  3.978617  0  0.239786  0  0.075976  0.024755  0  3.937913  0
C  C44  1  0.11103779  0.87782437  0.93293611  1  0  -0.070298  0  3.692783  0  0  -0.105719  0  3.968383  0  0  -0.103345  0  3.983516  0  -0.031993  0  -0.073686  -0.106978  0  3.957416  0
C  C45  1  0.88896336  0.12217696  0.06706161  1  0  -0.070348  0  3.692785  0  0  -0.105779  0  3.968417  0  0  -0.1034  0  3.983558  0  -0.031426  0  -0.073707  -0.107036  0  3.957447  0
C  C46  1  0.18725776  0.95824639  0.88630815  1  0  -0.03689  0  3.733888  0  0  -0.058838  0  4.008304  0  0  -0.060783  0  4.025259  0  0.015548  0  -0.08188  -0.057097  0  3.995505  0
C  C47  1  0.81274052  0.04175296  0.11368645  1  0  -0.036735  0  3.733808  0  0  -0.058648  0  4.008201  0  0  -0.060593  0  4.025154  0  0.015551  0  -0.08181  -0.056907  0  3.995403  0
C  C48  1  0.10854408  0.98486575  0.81300655  1  0  -0.04186  0  3.689624  0  0  -0.074959  0  3.952723  0  0  -0.073931  0  3.972222  0  -0.074545  0  -0.072197  -0.0752  0  3.939195  0
C  C49  1  0.89145440  0.01513657  0.18699218  1  0  -0.042005  0  3.68961  0  0  -0.075114  0  3.952708  0  0  -0.074087  0  3.972206  0  -0.074498  0  -0.072257  -0.075357  0  3.939184  0
C  C50  1  0.87663176  0.96929087  0.70714235  1  0  0.633074  0  3.949867  0  0  0.582991  0  4.247775  0  0  0.616609  0  4.242188  0  1.622644  0  0.197445  0.560226  0  4.250822  0
C  C51  1  0.12336857  0.03070848  0.29285765  1  0  0.633231  0  3.949954  0  0  0.583137  0  4.247845  0  0  0.616758  0  4.242252  0  1.622684  0  0.197442  0.560372  0  4.250892  0
C  C52  1  0.70638727  0.79294419  0.79870042  1  0  0.711868  0  3.7959  0  0  0.6456  0  4.119118  0  0  0.682882  0  4.103542  0  1.586335  0  0.245747  0.620166  0  4.128831  0
C  C53  1  0.29361491  0.20705714  0.20130039  1  0  0.711872  0  3.796167  0  0  0.645697  0  4.119243  0  0  0.68298  0  4.103664  0  1.586691  0  0.24577  0.620257  0  4.128965  0
C  C54  1  0.15747117  0.76499213  0.55762812  1  0  -0.077243  0  3.693044  0  0  -0.062851  0  3.932291  0  0  -0.072516  0  3.955706  0  -0.04074  0  -0.0101  -0.057175  0  3.916984  0
C  C55  1  0.84253101  0.23500920  0.44237194  1  0  -0.077293  0  3.693042  0  0  -0.062784  0  3.932149  0  0  -0.07253  0  3.955664  0  -0.040971  0  -0.010086  -0.057114  0  3.916851  0
C  C56  1  0.16632576  0.70009354  0.62524864  1  0  -0.07906  0  3.666184  0  0  -0.072335  0  3.905228  0  0  -0.074  0  3.924459  0  -0.001908  0  0.009784  -0.071044  0  3.891763  0
C  C57  1  0.83367600  0.29990680  0.37475028  1  0  -0.0791  0  3.66623  0  0  -0.072399  0  3.905253  0  0  -0.074041  0  3.924499  0  -0.002295  0  0.009775  -0.071108  0  3.89179  0
C  C58  1  0.03203435  0.62596103  0.64002093  1  0  0.045143  0  3.700601  0  0  0.027069  0  3.956468  0  0  0.024098  0  3.980832  0  0.232055  0  0.076703  0.029888  0  3.939224  0
C  C59  1  0.96796680  0.37404030  0.35997984  1  0  0.04522  0  3.700557  0  0  0.02717  0  3.95641  0  0  0.024194  0  3.980771  0  0.232253  0  0.076747  0.029988  0  3.939166  0
C  C60  1  0.89463209  0.61407656  0.59001860  1  0  -0.072365  0  3.70409  0  0  -0.107491  0  3.980252  0  0  -0.105015  0  3.99575  0  -0.016954  0  -0.070071  -0.108808  0  3.969247  0
C  C61  1  0.10536906  0.38592477  0.40998292  1  0  -0.07242  0  3.704128  0  0  -0.107533  0  3.980257  0  0  -0.105057  0  3.995753  0  -0.016953  0  -0.070083  -0.108846  0  3.969248  0
C  C62  1  0.88839849  0.67630283  0.52132731  1  0  -0.032163  0  3.699724  0  0  -0.050984  0  3.969512  0  0  -0.05417  0  3.987674  0  0.021232  0  -0.07559  -0.049321  0  3.957509  0
C  C63  1  0.11160204  0.32369949  0.47867531  1  0  -0.032136  0  3.699618  0  0  -0.05096  0  3.969429  0  0  -0.054143  0  3.987583  0  0.021216  0  -0.075574  -0.049303  0  3.957422  0
C  C64  1  0.01923089  0.75132974  0.50555285  1  0  -0.022001  0  3.648318  0  0  -0.057828  0  3.909479  0  0  -0.05483  0  3.926852  0  0.020328  0  -0.062809  -0.059416  0  3.898052  0
C  C65  1  0.98076964  0.24867258  0.49444901  1  0  -0.021913  0  3.64832  0  0  -0.057811  0  3.909475  0  0  -0.054788  0  3.926863  0  0.020751  0  -0.062817  -0.059399  0  3.898052  0
C  C66  1  0.29323955  0.85311947  0.53994802  1  0  0.662673  0  3.904967  0  0  0.604514  0  4.20695  0  0  0.640119  0  4.198616  0  1.601764  0  0.220954  0.580508  0  4.21182  0
C  C67  1  0.70676058  0.14688186  0.46005194  1  0  0.662664  0  3.904989  0  0  0.604474  0  4.206963  0  0  0.640102  0  4.19863  0  1.601504  0  0.22097  0.58047  0  4.211832  0
C  C68  1  0.31426393  0.71433967  0.68245856  1  0  0.70001  0  3.801615  0  0  0.63633  0  4.122231  0  0  0.672463  0  4.108123  0  1.624936  0  0.246661  0.611517  0  4.131905  0
C  C69  1  0.68573824  0.28566166  0.31754149  1  0  0.700093  0  3.801484  0  0  0.636366  0  4.122177  0  0  0.672506  0  4.10806  0  1.624706  0  0.246627  0.611554  0  4.131852  0
C  C70  1  0.73393560  0.84183061  0.38911373  1  0  0.121066  0  3.702521  0  0  0.091096  0  3.953008  0  0  0.097705  0  3.972583  0  0.438557  0  0.041448  0.086783  0  3.939873  0
C  C71  1  0.26606186  0.15816677  0.61088467  1  0  0.121013  0  3.70244  0  0  0.090955  0  3.952904  0  0  0.09755  0  3.972494  0  0.438521  0  0.041371  0.086642  0  3.939775  0
C  C72  1  0.73601302  0.74007946  0.28901391  1  0  -0.166084  0  3.670767  0  0  -0.180768  0  3.913074  0  0  -0.189461  0  3.934355  0  -0.064819  0  -0.080577  -0.17524  0  3.899128  0
C  C73  1  0.26398403  0.25991692  0.71098487  1  0  -0.166029  0  3.67063  0  0  -0.180675  0  3.912999  0  0  -0.18937  0  3.934283  0  -0.064885  0  -0.080502  -0.175162  0  3.899044  0
C  C74  1  0.61495747  0.61833882  0.23946174  1  0  0.149137  0  3.783254  0  0  0.162086  0  4.015311  0  0  0.168538  0  4.037525  0  0.007131  0  0.01208  0.157953  0  4.000002  0
C  C75  1  0.38503999  0.38165855  0.76053894  1  0  0.149263  0  3.783153  0  0  0.162133  0  4.015327  0  0  0.168592  0  4.037531  0  0.007215  0  0.012013  0.157998  0  4.000021  0
C  C76  1  0.49878603  0.60689957  0.29780350  1  0  -0.160992  0  3.674921  0  0  -0.177223  0  3.920295  0  0  -0.185527  0  3.940926  0  -0.032055  0  -0.082553  -0.171602  0  3.906362  0
C  C77  1  0.50121143  0.39309780  0.70219717  1  0  -0.161084  0  3.674993  0  0  -0.177301  0  3.920405  0  0  -0.185608  0  3.941032  0  -0.032112  0  -0.082547  -0.17168  0  3.906471  0
C  C78  1  0.50668993  0.71243708  0.39841722  1  0  0.135473  0  3.721783  0  0  0.104504  0  3.97013  0  0  0.112309  0  3.988704  0  0.466914  0  0.040935  0.099445  0  3.957502  0
C  C79  1  0.49330897  0.28756128  0.60158312  1  0  0.135494  0  3.721766  0  0  0.104514  0  3.970094  0  0  0.112333  0  3.988671  0  0.466919  0  0.040969  0.099454  0  3.957469  0
C  C80  1  0.60155388  0.50465275  0.13449711  1  0  -0.092881  0  3.688792  0  0  -0.113916  0  3.939361  0  0  -0.117987  0  3.959938  0  -0.092964  0  -0.080726  -0.111077  0  3.925185  0
C  C81  1  0.39844728  0.49534364  0.86550641  1  0  -0.092895  0  3.688891  0  0  -0.113911  0  3.939473  0  0  -0.117992  0  3.960061  0  -0.092951  0  -0.080698  -0.111071  0  3.925295  0
C  C82  1  0.70383483  0.49328770  0.07002859  1  0  -0.075732  0  3.694204  0  0  -0.101527  0  3.952872  0  0  -0.102988  0  3.970066  0  0.040358  0  -0.075984  -0.100367  0  3.940937  0
C  C83  1  0.29616303  0.50671066  0.92997094  1  0  -0.075765  0  3.694226  0  0  -0.101562  0  3.952897  0  0  -0.103035  0  3.97009  0  0.040333  0  -0.076008  -0.100403  0  3.940961  0
C  C84  1  0.76807216  0.26978107  0.79531229  1  0  0.144489  0  3.689534  0  0  0.11288  0  3.940527  0  0  0.120701  0  3.958255  0  0.494748  0  0.047815  0.107986  0  3.928369  0
C  C85  1  0.23193002  0.73022026  0.20468852  1  0  0.144538  0  3.689575  0  0  0.112946  0  3.940548  0  0  0.120767  0  3.958277  0  0.494757  0  0.047825  0.108052  0  3.928388  0
C  C86  1  0.78885682  0.37956601  0.89725626  1  0  -0.152187  0  3.673432  0  0  -0.171918  0  3.922793  0  0  -0.180348  0  3.943663  0  -0.014655  0  -0.080311  -0.166526  0  3.908849  0
C  C87  1  0.21114351  0.62043334  0.10274602  1  0  -0.152274  0  3.673405  0  0  -0.171976  0  3.922778  0  0  -0.180407  0  3.943649  0  -0.01464  0  -0.080304  -0.166583  0  3.908832  0
C  C88  1  0.68344335  0.37582416  0.96549165  1  0  0.1415  0  3.781511  0  0  0.155805  0  4.013153  0  0  0.161347  0  4.035978  0  -0.005939  0  0.010968  0.152209  0  3.997586  0
C  C89  1  0.31655636  0.62417618  0.03450945  1  0  0.141547  0  3.781482  0  0  0.155827  0  4.013163  0  0  0.16137  0  4.035989  0  -0.005991  0  0.011051  0.15223  0  3.997595  0
C  C90  1  0.56147259  0.25552010  0.92639265  1  0  -0.165045  0  3.693553  0  0  -0.178981  0  3.932066  0  0  -0.187693  0  3.954741  0  -0.070578  0  -0.083607  -0.173404  0  3.916906  0
C  C91  1  0.43852795  0.74447727  0.07360740  1  0  -0.165  0  3.693556  0  0  -0.178915  0  3.932068  0  0  -0.187628  0  3.954743  0  -0.070069  0  -0.083641  -0.17334  0  3.916912  0
C  C92  1  0.54955745  0.15023092  0.82416767  1  0  0.120698  0  3.725382  0  0  0.091078  0  3.973266  0  0  0.097513  0  3.99339  0  0.466223  0  0.038556  0.087053  0  3.959503  0
C  C93  1  0.45044412  0.84976645  0.17583243  1  0  0.120606  0  3.725421  0  0  0.091005  0  3.973312  0  0  0.097435  0  3.99344  0  0.466036  0  0.038543  0.086978  0  3.959549  0
N  N94  1  0.88315091  0.74385297  0.95933661  1  0  0.473957  0  3.948402  0  0  0.528519  0  4.212285  0  0  0.549577  0  4.220805  0  0.32156  0  0.057603  0.514321  0  4.206606  0
N  N95  1  0.11685002  0.25615034  0.04066411  1  0  0.473774  0  3.948492  0  0  0.528468  0  4.212244  0  0  0.549525  0  4.220767  0  0.321577  0  0.057532  0.514269  0  4.206566  0
N  N96  1  0.03134257  0.55450777  0.70847916  1  0  0.465822  0  3.950587  0  0  0.509708  0  4.232822  0  0  0.526836  0  4.244277  0  0.370133  0  0.056292  0.496478  0  4.225439  0
N  N97  1  0.96865837  0.44549554  0.29152308  1  0  0.465862  0  3.950658  0  0  0.509694  0  4.232932  0  0  0.526835  0  4.244387  0  0.37025  0  0.056282  0.496466  0  4.225549  0
N  N98  1  0.62072783  0.82974826  0.44368008  1  0  -0.348588  0  3.276392  0  0  -0.268021  0  3.547632  0  0  -0.288093  0  3.564365  0  -1.232291  0  -0.327211  -0.254483  0  3.536129  0
N  N99  1  0.37926901  0.17025010  0.55631789  1  0  -0.348572  0  3.276364  0  0  -0.268014  0  3.547648  0  0  -0.288084  0  3.564381  0  -1.23231  0  -0.327234  -0.254475  0  3.536146  0
N  N100  1  0.64966415  0.15643238  0.75792753  1  0  -0.33165  0  3.259034  0  0  -0.250912  0  3.523537  0  0  -0.270679  0  3.541257  0  -1.242846  0  -0.324881  -0.237609  0  3.511319  0
N  N101  1  0.35033824  0.84356697  0.24207256  1  0  -0.331631  0  3.25907  0  0  -0.250913  0  3.523585  0  0  -0.27068  0  3.541308  0  -1.242853  0  -0.324897  -0.23761  0  3.511368  0
O  O102  1  0.95159506  0.03832475  0.66479813  1  0  -0.602459  0  1.903099  0  0  -0.56022  0  2.131195  0  0  -0.58317  0  2.123442  0  -1.17836  0  -0.319015  -0.543945  0  2.13591  0
O  O103  1  0.04840362  0.96167559  0.33520140  1  0  -0.602547  0  1.903137  0  0  -0.560302  0  2.131233  0  0  -0.583252  0  2.123478  0  -1.17837  0  -0.319017  -0.544025  0  2.135946  0
O  O104  1  0.73451310  0.92424129  0.69135142  1  0  -0.636695  0  2.10273  0  0  -0.564276  0  2.366301  0  0  -0.59553  0  2.356356  0  -1.166842  0  -0.31973  -0.542067  0  2.372143  0
O  O105  1  0.26548477  0.07575708  0.30864659  1  0  -0.636672  0  2.102773  0  0  -0.564268  0  2.366384  0  0  -0.595523  0  2.356438  0  -1.166833  0  -0.319685  -0.54206  0  2.372228  0
O  O106  1  0.64028303  0.68579695  0.71275469  1  0  -0.563815  0  2.002915  0  0  -0.516215  0  2.225648  0  0  -0.53932  0  2.215172  0  -1.165874  0  -0.279508  -0.500145  0  2.232558  0
O  O107  1  0.35971586  0.31420141  0.28724490  1  0  -0.563753  0  2.003154  0  0  -0.516207  0  2.225858  0  0  -0.539312  0  2.215382  0  -1.165897  0  -0.27951  -0.500137  0  2.23277  0
O  O108  1  0.64147209  0.86350305  0.86872946  1  0  -0.536942  0  2.12158  0  0  -0.488885  0  2.346274  0  0  -0.511422  0  2.331674  0  -1.166122  0  -0.31917  -0.474109  0  2.355814  0
O  O109  1  0.35852824  0.13649631  0.13126902  1  0  -0.536955  0  2.121644  0  0  -0.48891  0  2.346309  0  0  -0.511447  0  2.331707  0  -1.166144  0  -0.319179  -0.474133  0  2.355851  0
O  O110  1  0.74567235  0.69401576  0.93515655  1  0  -0.353767  0  1.824288  0  0  -0.340906  0  2.030322  0  0  -0.354034  0  2.027755  0  -0.435243  0  -0.11639  -0.331977  0  2.032253  0
O  O111  1  0.25432714  0.30599151  0.06484859  1  0  -0.353703  0  1.824414  0  0  -0.340886  0  2.030408  0  0  -0.354005  0  2.027833  0  -0.435267  0  -0.11636  -0.331957  0  2.032338  0
O  O112  1  0.96135102  0.72914381  0.02733826  1  0  -0.341232  0  1.776004  0  0  -0.333511  0  1.973298  0  0  -0.345304  0  1.970897  0  -0.46884  0  -0.115432  -0.325471  0  1.975007  0
O  O113  1  0.03864972  0.27085653  0.97265985  1  0  -0.341159  0  1.77595  0  0  -0.333474  0  1.973196  0  0  -0.345269  0  1.970798  0  -0.46888  0  -0.115391  -0.325435  0  1.974905  0
O  O114  1  0.27455723  0.87817065  0.45677071  1  0  -0.630372  0  2.161488  0  0  -0.570444  0  2.458157  0  0  -0.59731  0  2.441518  0  -1.181895  0  -0.301593  -0.551876  0  2.469154  0
O  O115  1  0.72544351  0.12182969  0.54322892  1  0  -0.630402  0  2.161519  0  0  -0.570455  0  2.458182  0  0  -0.597318  0  2.441527  0  -1.181611  0  -0.3016  -0.551885  0  2.469176  0
O  O116  1  0.41448674  0.89437576  0.60959375  1  0  -0.621911  0  2.117518  0  0  -0.550431  0  2.389807  0  0  -0.578163  0  2.375387  0  -1.177224  0  -0.300498  -0.531073  0  2.399006  0
O  O117  1  0.58551297  0.10562458  0.39040583  1  0  -0.621907  0  2.117539  0  0  -0.550448  0  2.389869  0  0  -0.578174  0  2.375428  0  -1.177225  0  -0.300526  -0.531093  0  2.39907  0
O  O118  1  0.37803881  0.64087400  0.61406671  1  0  -0.525057  0  2.090606  0  0  -0.474405  0  2.308215  0  0  -0.497158  0  2.293979  0  -1.157841  0  -0.310798  -0.459298  0  2.318167  0
O  O119  1  0.62196439  0.35912733  0.38593338  1  0  -0.52502  0  2.090771  0  0  -0.474361  0  2.308409  0  0  -0.497113  0  2.294162  0  -1.157825  0  -0.310737  -0.459245  0  2.318343  0
O  O120  1  0.36649675  0.79067850  0.78499733  1  0  -0.547168  0  2.003791  0  0  -0.501118  0  2.222306  0  0  -0.524218  0  2.213034  0  -1.159537  0  -0.274327  -0.485767  0  2.228386  0
O  O121  1  0.63350296  0.20932184  0.21500149  1  0  -0.547224  0  2.003684  0  0  -0.501163  0  2.222233  0  0  -0.524265  0  2.212957  0  -1.1593  0  -0.27433  -0.485812  0  2.228311  0
O  O122  1  0.14477641  0.53424421  0.72920922  1  0  -0.332898  0  1.813053  0  0  -0.317521  0  2.018251  0  0  -0.328879  0  2.018858  0  -0.470944  0  -0.108269  -0.308808  0  2.017796  0
O  O123  1  0.85522781  0.46576207  0.27079274  1  0  -0.332926  0  1.813135  0  0  -0.317501  0  2.018335  0  0  -0.328862  0  2.018931  0  -0.47106  0  -0.108264  -0.308791  0  2.017882  0
O  O124  1  0.91615416  0.51695177  0.74138780  1  0  -0.346013  0  1.767263  0  0  -0.337075  0  1.975134  0  0  -0.348497  0  1.97414  0  -0.470299  0  -0.123861  -0.328573  0  1.975916  0
O  O125  1  0.08384699  0.48304956  0.25861297  1  0  -0.346015  0  1.767274  0  0  -0.337099  0  1.975189  0  0  -0.348525  0  1.974194  0  -0.470319  0  -0.123869  -0.328597  0  1.975972  0
