# generated using pymatgen
data_Al3H7(C16O9)2
_symmetry_space_group_name_H-M   'P 1'
_cell_length_a   12.83585021
_cell_length_b   12.81723109
_cell_length_c   26.85917891
_cell_angle_alpha   97.66990521
_cell_angle_beta   89.51722970
_cell_angle_gamma   119.31367162
_symmetry_Int_Tables_number   1
_chemical_formula_structural   Al3H7(C16O9)2
_chemical_formula_sum   'Al6 H14 C64 O36'
_cell_volume   3810.28434055
_cell_formula_units_Z   2
loop_
 _symmetry_equiv_pos_site_id
 _symmetry_equiv_pos_as_xyz
  1  'x, y, z'
loop_
 _atom_site_type_symbol
 _atom_site_label
 _atom_site_symmetry_multiplicity
 _atom_site_fract_x
 _atom_site_fract_y
 _atom_site_fract_z
 _atom_site_occupancy
 _atom_site_pbe_bader_charge
 _atom_site_pbe_bader_spin_density
 _atom_site_pbe_cm5_charge
 _atom_site_pbe_ddec_charge
 _atom_site_pbe_ddec_spin_density
 _atom_site_pbe_ddec_sum_bond_order
 _atom_site_pbe_magmom
Al  Al0  1  0.41015718  0.81561538  0.48812814  1  2.48759  0  0.400593  1.682108  0  2.560287  0
Al  Al1  1  0.65340454  0.07191040  0.50424992  1  2.481677  0  0.510519  1.659576  0  2.511393  0
Al  Al2  1  0.41990572  0.07295729  0.50272582  1  2.4849  0  0.511803  1.660123  0  2.512307  0
Al  Al3  1  0.92218321  0.84538997  0.02102812  1  2.490051  0  0.402498  1.680487  0  2.563979  0
Al  Al4  1  0.91615997  0.58943730  0.00394386  1  2.481227  0  0.512136  1.661335  0  2.506195  0
Al  Al5  1  0.68045341  0.58655556  0.00481816  1  2.481531  0  0.510907  1.66389  0  2.503424  0
H  H6  1  0.73564141  0.20550599  0.28925040  1  0.078152  0  0.119712  0.12429  0  0.974237  0
H  H7  1  0.41847621  0.20868826  0.84148349  1  0.620803  0  0.341252  0.388473  0  0.857151  0
H  H8  1  0.31654182  0.03538898  0.73004314  1  0.124203  0  0.118126  0.128969  0  0.984072  0
H  H9  1  0.88619547  0.94420873  0.70182603  1  0.110979  0  0.120473  0.133205  0  0.981407  0
H  H10  1  0.51622946  0.66345525  0.68935634  1  0.113959  0  0.120487  0.124264  0  0.967085  0
H  H11  1  0.75819225  0.23646607  0.19962194  1  0.102921  0  0.123646  0.128706  0  0.963614  0
H  H12  1  0.09568732  0.06314758  0.79448117  1  0.621015  0  0.340507  0.381219  0  0.865249  0
H  H13  1  0.53537961  0.63572425  0.77827722  1  0.098745  0  0.117984  0.122418  0  0.97322  0
H  H14  1  0.62375636  0.48744651  0.22647083  1  0.131738  0  0.121382  0.132472  0  0.982466  0
H  H15  1  0.53041402  0.58343701  0.33013307  1  0.639294  0  0.350462  0.392691  0  0.843878  0
H  H16  1  0.02470377  0.67105551  0.68994975  1  0.1335  0  0.123803  0.13534  0  0.967706  0
H  H17  1  0.93044037  0.49339173  0.82263552  1  0.627769  0  0.342728  0.385362  0  0.859093  0
H  H18  1  0.32799324  0.61797576  0.50631666  1  0.561858  0  0.296941  0.387328  0  0.915786  0
H  H19  1  0.01138287  0.04261270  0.00263707  1  0.582757  0  0.298757  0.390166  0  0.911583  0
C  C20  1  0.62068807  0.90059488  0.42237565  1  1.669837  0  0.279055  0.690225  0  4.194428  0
C  C21  1  0.12764975  0.80320892  0.18170605  1  -0.149665  0  -0.000974  0.035191  0  4.244181  0
C  C22  1  0.15535171  0.82213593  0.23123932  1  -0.182222  0  0.006092  0.002248  0  4.182601  0
C  C23  1  0.61088698  0.21865339  0.44573116  1  1.589238  0  0.288821  0.72413  0  4.139473  0
C  C24  1  0.17802564  0.83870317  0.27708261  1  0.168892  0  0.004398  8e-05  0  4.183891  0
C  C25  1  0.20576360  0.85684203  0.32657762  1  -0.214404  0  0.000904  0.035826  0  4.246177  0
C  C26  1  0.23390030  0.87394039  0.37166278  1  0.126014  0  0.006773  -0.126951  0  3.820651  0
C  C27  1  0.67817256  0.77858442  0.13512143  1  -0.106457  0  0.009506  -0.122492  0  3.812282  0
C  C28  1  0.67112271  0.79698826  0.18069973  1  0.103612  0  -0.001913  0.031036  0  4.245028  0
C  C29  1  0.66597386  0.81734840  0.23059174  1  0.073083  0  0.006171  0.005759  0  4.184246  0
C  C30  1  0.66397045  0.83651330  0.27672517  1  -0.136394  0  0.001026  -0.003689  0  4.195225  0
C  C31  1  0.64853389  0.42590376  0.24019430  1  -0.017701  0  -0.056522  -0.111506  0  3.869685  0
C  C32  1  0.65798492  0.85700780  0.32656049  1  -0.389924  0  -0.006022  0.024387  0  4.263355  0
C  C33  1  0.64998157  0.87619809  0.37202873  1  0.309939  0  0.00395  -0.13215  0  3.825047  0
C  C34  1  0.69570950  0.38718749  0.87513002  1  -0.032  0  0.001202  -0.14404  0  3.812311  0
C  C35  1  0.28638140  0.89836443  0.42173232  1  1.694499  0  0.281206  0.689381  0  4.187014  0
C  C36  1  0.67586866  0.35717139  0.82926193  1  -0.172085  0  -0.003376  0.023966  0  4.255523  0
C  C37  1  0.65648804  0.32658849  0.77907053  1  -0.050609  0  0.001988  -0.003105  0  4.176478  0
C  C38  1  0.64335472  0.30346956  0.73270946  1  0.13586  0  0.016263  0.029318  0  4.14463  0
C  C39  1  0.63173473  0.27918458  0.68229398  1  -0.18769  0  0.006873  0.041096  0  4.209798  0
C  C40  1  0.62163956  0.25568394  0.63615600  1  0.19197  0  0.012008  -0.122015  0  3.794425  0
C  C41  1  0.22131702  0.88042330  0.60896235  1  0.273202  0  -0.027699  -0.17852  0  3.92278  0
C  C42  1  0.63934110  0.41194585  0.29092197  1  0.027734  0  0.002173  -0.063086  0  3.918743  0
C  C43  1  0.08686141  0.74514210  0.71810778  1  -0.040121  0  -0.054956  -0.112792  0  3.88542  0
C  C44  1  0.07756132  0.72971826  0.76863864  1  -0.012007  0  0.001141  -0.065096  0  3.912384  0
C  C45  1  0.24188886  0.93565621  0.79157690  1  0.025838  0  -0.004737  -0.07881  0  3.951329  0
C  C46  1  0.25005775  0.94964537  0.74091284  1  0.009682  0  -0.061745  -0.118741  0  3.894325  0
C  C47  1  0.62430833  0.89456172  0.56081345  1  1.677316  0  0.277617  0.713141  0  4.161149  0
C  C48  1  0.17517154  0.85361762  0.70337952  1  0.062868  0  0.007455  0.128712  0  4.122052  0
C  C49  1  0.15657899  0.82406732  0.80663953  1  0.1163  0  0.02857  0.104911  0  4.019689  0
C  C50  1  0.14141094  0.81048525  0.85786621  1  -0.282042  0  -0.004199  0.014286  0  4.044547  0
C  C51  1  0.19461255  0.86680137  0.65215897  1  -0.511403  0  -0.011234  -0.016775  0  4.058477  0
C  C52  1  0.11507630  0.79287184  0.90075284  1  0.156831  0  -0.009161  -0.137349  0  3.845275  0
C  C53  1  0.66957928  0.33041410  0.30913950  1  0.083562  0  0.02423  0.113783  0  4.044957  0
C  C54  1  0.66303015  0.86204158  0.60322853  1  -0.379735  0  -0.030312  -0.181762  0  3.942008  0
C  C55  1  0.80956397  0.87653438  0.71857511  1  0.062175  0  -0.059613  -0.116437  0  3.879726  0
C  C56  1  0.82169051  0.86017725  0.76806062  1  0.044973  0  -0.000798  -0.067199  0  3.92015  0
C  C57  1  0.61180989  0.70261261  0.76104479  1  -0.004219  0  -0.066865  -0.109145  0  3.938922  0
C  C58  1  0.60100377  0.71824749  0.71168085  1  -0.023219  0  -0.060541  -0.094384  0  3.921734  0
C  C59  1  0.60108791  0.20830002  0.58335318  1  1.673767  0  0.285853  0.701252  0  4.173329  0
C  C60  1  0.69906454  0.80868149  0.69031713  1  0.02595  0  0.009963  0.12996  0  4.108638  0
C  C61  1  0.72032628  0.77526586  0.79071748  1  0.10886  0  0.023053  0.123228  0  4.04915  0
C  C62  1  0.72069386  0.76560032  0.84249128  1  -0.296087  0  -0.009157  -0.007552  0  4.070671  0
C  C63  1  0.68308322  0.83560718  0.64257467  1  0.11576  0  -0.012766  -0.024205  0  4.071994  0
C  C64  1  0.69141867  0.36330338  0.20669687  1  0.087373  0  0.012364  0.121658  0  4.099319  0
C  C65  1  0.71069229  0.75703551  0.88714748  1  0.065124  0  -0.028125  -0.177723  0  3.905362  0
C  C66  1  0.04709465  0.76140369  0.08648094  1  1.70004  0  0.282331  0.693147  0  4.182726  0
C  C67  1  0.73239156  0.44916353  0.06536445  1  1.63958  0  0.287686  0.726693  0  4.139251  0
C  C68  1  0.70912572  0.75815025  0.08467376  1  1.689822  0  0.283455  0.688143  0  4.189169  0
C  C69  1  0.05798913  0.76565608  0.94697642  1  1.660858  0  0.283595  0.710909  0  4.155349  0
C  C70  1  0.72672144  0.44197308  0.92712887  1  1.656479  0  0.28372  0.702653  0  4.175324  0
C  C71  1  0.27836008  0.90198915  0.56218832  1  1.68263  0  0.279675  0.711688  0  4.163189  0
C  C72  1  0.72321353  0.74843138  0.93923650  1  1.664958  0  0.279116  0.71395  0  4.157196  0
C  C73  1  0.63947205  0.27140358  0.40049311  1  -0.143296  0  -0.021312  -0.178388  0  3.888159  0
C  C74  1  0.71203702  0.26771210  0.27528113  1  0.061477  0  -0.0631  -0.10582  0  3.929125  0
C  C75  1  0.70308933  0.38258182  0.15571500  1  -0.203543  0  0.006162  0.013456  0  4.024236  0
C  C76  1  0.72393705  0.28441154  0.22511515  1  -0.016147  0  -0.058621  -0.0941  0  3.91668  0
C  C77  1  0.94002766  0.93138477  0.79696835  1  1.502638  0  0.230175  0.564695  0  4.12817  0
C  C78  1  0.60170876  0.48433991  0.32696013  1  1.514531  0  0.232955  0.570204  0  4.130913  0
C  C79  1  0.97609173  0.61241172  0.77957303  1  1.538951  0  0.238099  0.587264  0  4.122244  0
C  C80  1  0.32448382  0.03781521  0.83033825  1  1.513021  0  0.229847  0.569139  0  4.12791  0
C  C81  1  0.65417778  0.30500883  0.35929133  1  0.00888  0  0.012572  0.031239  0  4.022116  0
C  C82  1  0.71306548  0.40293962  0.11231351  1  -0.030516  0  -0.029025  -0.19499  0  3.916328  0
C  C83  1  0.09953592  0.78478768  0.13655118  1  0.060714  0  0.007689  -0.127209  0  3.816032  0
O  O84  1  0.31068971  0.82145260  0.43495621  1  -1.207031  0  -0.194813  -0.524122  0  2.282302  0
O  O85  1  0.65558211  0.47623518  0.05011724  1  -1.229861  0  -0.224655  -0.587881  0  2.24748  0
O  O86  1  0.63157963  0.66205761  0.05579106  1  -1.253608  0  -0.236956  -0.596195  0  2.228555  0
O  O87  1  0.52076846  0.82313275  0.43532906  1  -1.212415  0  -0.19774  -0.533948  0  2.293288  0
O  O88  1  0.81496766  0.83223177  0.96483086  1  -1.223162  0  -0.206092  -0.555376  0  2.282824  0
O  O89  1  0.02974799  0.84046823  0.96913146  1  -1.21376  0  -0.200233  -0.553341  0  2.299144  0
O  O90  1  0.03477354  0.66374683  0.96062753  1  -1.251724  0  -0.241768  -0.606957  0  2.226304  0
O  O91  1  0.83230462  0.47460469  0.94435133  1  -1.227709  0  -0.219379  -0.571049  0  2.239583  0
O  O92  1  0.64809772  0.45846664  0.95077007  1  -1.234425  0  -0.219784  -0.57191  0  2.246848  0
O  O93  1  0.64151924  0.65201486  0.95523489  1  -1.260185  0  -0.246525  -0.613953  0  2.227349  0
O  O94  1  0.83826567  0.67114390  0.00940885  1  -1.607234  0  -0.391116  -1.277355  0  2.296475  0
O  O95  1  0.67932650  0.18453947  0.56357384  1  -1.230466  0  -0.217942  -0.570426  0  2.244602  0
O  O96  1  0.69701256  0.00150698  0.44869566  1  -1.253452  0  -0.234387  -0.590779  0  2.240776  0
O  O97  1  0.68660953  0.19527784  0.46528249  1  -1.246682  0  -0.227872  -0.595569  0  2.246081  0
O  O98  1  0.50857223  0.19310744  0.46261887  1  -1.238475  0  -0.222865  -0.585158  0  2.237797  0
O  O99  1  0.30809569  0.99958400  0.44797617  1  -1.249556  0  -0.234609  -0.595247  0  2.243842  0
O  O100  1  0.30708647  0.82572842  0.54218436  1  -1.209154  0  -0.204136  -0.554083  0  2.289209  0
O  O101  1  0.51881543  0.82313604  0.54218028  1  -1.228526  0  -0.210206  -0.568501  0  2.295313  0
O  O102  1  0.69919550  0.99593091  0.54632344  1  -1.257809  0  -0.240659  -0.603742  0  2.233483  0
O  O103  1  0.96551296  0.91062250  0.83679250  1  -1.109477  0  -0.264739  -0.457211  0  2.135629  0
O  O104  1  0.02063611  0.02406056  0.77340044  1  -1.128304  0  -0.339466  -0.488044  0  2.223313  0
O  O105  1  0.61598955  0.49631985  0.37265705  1  -1.100331  0  -0.27322  -0.456938  0  2.077008  0
O  O106  1  0.50394523  0.18856577  0.56145176  1  -1.231849  0  -0.218784  -0.57323  0  2.247027  0
O  O107  1  0.55062543  0.53744690  0.30342785  1  -1.12848  0  -0.332332  -0.485729  0  2.225507  0
O  O108  1  0.87860340  0.56240956  0.75607695  1  -1.129467  0  -0.283512  -0.487275  0  2.100654  0
O  O109  1  0.00351803  0.56669603  0.81671650  1  -1.120445  0  -0.320307  -0.469099  0  2.251367  0
O  O110  1  0.35655258  0.02783153  0.87111146  1  -1.104596  0  -0.270633  -0.449871  0  2.073817  0
O  O111  1  0.36184576  0.14751021  0.81465796  1  -1.118988  0  -0.343714  -0.508338  0  2.216128  0
O  O112  1  0.30039135  0.00105621  0.54627959  1  -1.248976  0  -0.239843  -0.601173  0  2.23426  0
O  O113  1  0.49553695  0.98880216  0.49872855  1  -1.609856  0  -0.390627  -1.275019  0  2.294141  0
O  O114  1  0.81202342  0.83399355  0.07388251  1  -1.198914  0  -0.189081  -0.518164  0  2.296297  0
O  O115  1  0.02154764  0.83824699  0.07427110  1  -1.197045  0  -0.194012  -0.524681  0  2.282496  0
O  O116  1  0.02675519  0.66150638  0.05934339  1  -1.248482  0  -0.238071  -0.600953  0  2.240423  0
O  O117  1  0.82705530  0.46584557  0.04314559  1  -1.248962  0  -0.227313  -0.591247  0  2.234096  0
O  O118  1  0.33248190  0.65770840  0.47758308  1  -1.333211  0  -0.569925  -0.984199  0  1.792186  0
O  O119  1  0.99348518  0.00304758  0.03228407  1  -1.355401  0  -0.57036  -0.986388  0  1.785094  0
