# generated using pymatgen
data_CoH10(C7N2)2
_symmetry_space_group_name_H-M   'P 1'
_cell_length_a   14.11326500
_cell_length_b   14.11341453
_cell_length_c   14.11261142
_cell_angle_alpha   107.14395683
_cell_angle_beta   107.14218206
_cell_angle_gamma   107.14459637
_symmetry_Int_Tables_number   1
_chemical_formula_structural   CoH10(C7N2)2
_chemical_formula_sum   'Co6 H60 C84 N24'
_cell_volume   2331.83086417
_cell_formula_units_Z   6
loop_
 _symmetry_equiv_pos_site_id
 _symmetry_equiv_pos_as_xyz
  1  'x, y, z'
loop_
 _atom_site_type_symbol
 _atom_site_label
 _atom_site_symmetry_multiplicity
 _atom_site_fract_x
 _atom_site_fract_y
 _atom_site_fract_z
 _atom_site_occupancy
 _atom_site_pbe_bader_charge
 _atom_site_pbe_bader_spin_density
 _atom_site_pbe_cm5_charge
 _atom_site_pbe_ddec_charge
 _atom_site_pbe_ddec_spin_density
 _atom_site_pbe_ddec_sum_bond_order
 _atom_site_pbe_magmom
Co  Co0  1  0.72783903  0.98816205  0.26062478  1  1.121715  2.522929  0.71578  0.673897  2.751717  2.778171  2.449
Co  Co1  1  0.26061568  0.72781508  0.98816491  1  1.122059  2.523052  0.715727  0.673908  2.751846  2.777612  2.449
Co  Co2  1  0.98816526  0.26060318  0.72781692  1  1.122061  2.522996  0.715773  0.67386  2.75178  2.777816  2.449
Co  Co3  1  0.27216339  0.01183828  0.73937279  1  1.121755  2.522948  0.715725  0.673849  2.751738  2.778177  2.449
Co  Co4  1  0.73938674  0.27218376  0.01183576  1  1.122164  2.523064  0.715705  0.673912  2.751866  2.777501  2.449
Co  Co5  1  0.01183635  0.73939681  0.27217960  1  1.122057  2.522987  0.71576  0.673855  2.751779  2.777891  2.449
H  H6  1  0.49558411  0.91050696  0.08476051  1  0.116238  0.001316  0.128333  0.082957  0.000182  1.016218  0.001
H  H7  1  0.08474784  0.49550871  0.91046453  1  0.116252  0.001319  0.128382  0.082997  0.000183  1.016413  0.001
H  H8  1  0.91048856  0.08476954  0.49556341  1  0.116388  0.00132  0.128423  0.083026  0.000184  1.016364  0.001
H  H9  1  0.50442403  0.08949578  0.91523946  1  0.116277  0.001317  0.128366  0.082964  0.000182  1.016268  0.001
H  H10  1  0.91525296  0.50448871  0.08953311  1  0.116189  0.001319  0.1284  0.083018  0.000183  1.016392  0.001
H  H11  1  0.08952205  0.91523201  0.50442986  1  0.116572  0.001319  0.12846  0.083154  0.000184  1.016375  0.001
H  H12  1  0.69316524  0.80836568  0.37056520  1  0.051926  0.001597  0.100485  0.103769  0.000769  1.023821  0.0
H  H13  1  0.37053208  0.69313315  0.80835044  1  0.052122  0.001597  0.100546  0.103869  0.000769  1.023596  0.0
H  H14  1  0.80835328  0.37056052  0.69316058  1  0.051867  0.001596  0.100496  0.103771  0.000768  1.023932  0.0
H  H15  1  0.30683717  0.19163463  0.62944086  1  0.051916  0.001597  0.100467  0.103758  0.000769  1.023878  0.0
H  H16  1  0.62946382  0.30686444  0.19164297  1  0.052102  0.001597  0.100516  0.103873  0.000769  1.023569  0.0
H  H17  1  0.19165160  0.62943342  0.30684432  1  0.051766  0.001596  0.100441  0.103631  0.000768  1.02395  0.0
H  H18  1  0.59013500  0.64070547  0.38543912  1  0.045675  4.3e-05  0.091197  0.088166  -4.2e-05  1.037687  0.0
H  H19  1  0.38541030  0.59010842  0.64069293  1  0.046198  4.3e-05  0.091175  0.088078  -4.2e-05  1.037977  0.0
H  H20  1  0.64070690  0.38544919  0.59014181  1  0.05885  4e-05  0.091193  0.088064  -4.3e-05  1.037753  0.0
H  H21  1  0.40985433  0.35929602  0.61456271  1  0.058773  4.1e-05  0.091198  0.088198  -4.2e-05  1.037639  0.0
H  H22  1  0.61458639  0.40989617  0.35930704  1  0.045868  4.3e-05  0.091207  0.088076  -4.2e-05  1.037902  0.0
H  H23  1  0.35929713  0.61455180  0.40986847  1  0.045217  4.3e-05  0.091216  0.088092  -4.3e-05  1.037854  0.0
H  H24  1  0.75468134  0.21170021  0.22370132  1  0.119986  0.000944  0.130104  0.086184  5e-06  1.004379  0.001
H  H25  1  0.22365049  0.75466642  0.21170773  1  0.119723  0.000945  0.130142  0.08619  6e-06  1.004412  0.001
H  H26  1  0.21170059  0.22368330  0.75468171  1  0.119434  0.000945  0.130113  0.086273  6e-06  1.004285  0.001
H  H27  1  0.24531945  0.78829869  0.77629817  1  0.119824  0.000944  0.130092  0.086134  5e-06  1.004421  0.001
H  H28  1  0.77635110  0.24533727  0.78829130  1  0.119768  0.000946  0.130125  0.086154  6e-06  1.004359  0.001
H  H29  1  0.78829692  0.77631719  0.24531588  1  0.119414  0.000943  0.130134  0.086293  5e-06  1.004302  0.001
H  H30  1  0.65523942  0.81202911  0.02831620  1  0.064322  0.001735  0.103287  0.110854  0.000751  1.008138  0.0
H  H31  1  0.02832744  0.65522817  0.81201846  1  0.064585  0.001735  0.103296  0.110931  0.000751  1.007933  0.0
H  H32  1  0.81201475  0.02831018  0.65522513  1  0.064254  0.001735  0.103327  0.110894  0.000751  1.008051  0.0
H  H33  1  0.34476790  0.18796808  0.97168827  1  0.064368  0.001735  0.103287  0.110796  0.000751  1.008222  0.0
H  H34  1  0.97167582  0.34476510  0.18797727  1  0.064177  0.001736  0.103303  0.110941  0.000751  1.007904  0.0
H  H35  1  0.18798522  0.97168837  0.34477331  1  0.064163  0.001736  0.10331  0.110881  0.000751  1.008069  0.0
H  H36  1  0.61722348  0.73617340  0.83080073  1  0.053695  4.6e-05  0.095623  0.092245  -1.7e-05  1.011574  0.0
H  H37  1  0.83082645  0.61723068  0.73618092  1  0.053489  4.6e-05  0.095637  0.092271  -1.7e-05  1.011766  0.0
H  H38  1  0.73617125  0.83081189  0.61721935  1  0.053712  4.6e-05  0.095681  0.092299  -1.7e-05  1.011456  0.0
H  H39  1  0.38277568  0.26382259  0.16919813  1  0.053584  4.6e-05  0.095649  0.092292  -1.7e-05  1.011541  0.0
H  H40  1  0.16917518  0.38275967  0.26381629  1  0.053535  4.6e-05  0.095654  0.092301  -1.7e-05  1.011684  0.0
H  H41  1  0.26382545  0.16918677  0.38278099  1  0.053736  4.6e-05  0.095642  0.092254  -1.7e-05  1.011622  0.0
H  H42  1  0.67959822  0.05326677  0.82608577  1  0.053219  0.001776  0.10206  0.107874  0.000763  1.017266  0.0
H  H43  1  0.82606390  0.67957205  0.05325273  1  0.052565  0.001776  0.102084  0.107883  0.000762  1.017347  0.0
H  H44  1  0.05327856  0.82609576  0.67960206  1  0.053534  0.001776  0.102062  0.107781  0.000763  1.017232  0.0
H  H45  1  0.32040012  0.94673036  0.17391248  1  0.053399  0.001776  0.102102  0.107958  0.000763  1.017287  0.0
H  H46  1  0.17394019  0.32041860  0.94674176  1  0.052434  0.001776  0.102101  0.107918  0.000763  1.017316  0.0
H  H47  1  0.94672467  0.17390639  0.32040266  1  0.053381  0.001776  0.102059  0.107805  0.000763  1.017297  0.0
H  H48  1  0.63203602  0.85566777  0.73269656  1  0.065113  4.7e-05  0.094927  0.08878  -1.8e-05  1.027469  0.0
H  H49  1  0.73269981  0.63202978  0.85565115  1  0.065116  4.7e-05  0.094937  0.088857  -1.8e-05  1.027545  0.0
H  H50  1  0.85567696  0.73272400  0.63203677  1  0.065539  4.7e-05  0.094929  0.088852  -1.7e-05  1.027468  0.0
H  H51  1  0.36796151  0.14432827  0.26730325  1  0.065134  4.7e-05  0.094952  0.088827  -1.8e-05  1.027371  0.0
H  H52  1  0.26730671  0.36796708  0.14434731  1  0.06505  4.7e-05  0.094985  0.088936  -1.8e-05  1.027394  0.0
H  H53  1  0.14432545  0.26727854  0.36796783  1  0.065481  4.7e-05  0.094935  0.088864  -1.7e-05  1.027464  0.0
H  H54  1  0.29235581  0.57668229  0.12478887  1  0.081025  0.001512  0.098738  0.102801  0.000743  1.031058  0.0
H  H55  1  0.12478886  0.29232937  0.57664087  1  0.081188  0.001509  0.098648  0.102634  0.000743  1.031283  0.0
H  H56  1  0.57666614  0.12479025  0.29236950  1  0.08127  0.00151  0.098715  0.102854  0.000742  1.031095  0.0
H  H57  1  0.70763347  0.42333475  0.87521968  1  0.081314  0.001511  0.098708  0.102878  0.000743  1.031003  0.0
H  H58  1  0.87520374  0.70768019  0.42335086  1  0.081209  0.001509  0.09855  0.102588  0.000743  1.031107  0.0
H  H59  1  0.42334197  0.87521914  0.70763739  1  0.081311  0.00151  0.098655  0.102775  0.000742  1.031066  0.0
H  H60  1  0.39459135  0.52748190  0.26508735  1  0.038917  2.7e-05  0.092735  0.085127  -5e-05  1.03119  0.0
H  H61  1  0.26508425  0.39457719  0.52744983  1  0.03912  2.7e-05  0.092719  0.085013  -5e-05  1.03128  0.0
H  H62  1  0.52747735  0.26508928  0.39461200  1  0.039485  2.7e-05  0.092718  0.085105  -5e-05  1.031246  0.0
H  H63  1  0.60539387  0.47252675  0.73492035  1  0.03926  2.7e-05  0.092721  0.085114  -5e-05  1.031105  0.0
H  H64  1  0.73491244  0.60543259  0.47254530  1  0.039116  2.7e-05  0.092722  0.084995  -5e-05  1.03124  0.0
H  H65  1  0.47252831  0.73491611  0.60539369  1  0.039281  2.7e-05  0.092729  0.085111  -5e-05  1.031203  0.0
C  C66  1  0.49477232  0.85641883  0.12587743  1  1.001  0.015244  0.137291  0.176199  0.010377  4.009791  0.014
C  C67  1  0.12586976  0.49473426  0.85640765  1  1.001558  0.015214  0.137161  0.175977  0.010363  4.011373  0.014
C  C68  1  0.85640526  0.12587910  0.49475979  1  1.001267  0.01523  0.137186  0.175988  0.010371  4.010552  0.014
C  C69  1  0.50523255  0.14358179  0.87412166  1  1.001067  0.015239  0.137315  0.176235  0.010374  4.010221  0.014
C  C70  1  0.87412857  0.50526806  0.14358930  1  1.001559  0.015214  0.13719  0.176045  0.010363  4.01132  0.014
C  C71  1  0.14360043  0.87412260  0.50523986  1  1.001394  0.015225  0.13714  0.175721  0.01037  4.01068  0.014
C  C72  1  0.54994599  0.78526308  0.23698609  1  0.326983  0.009838  0.07983  0.1486  0.005726  4.039717  0.008
C  C73  1  0.23696333  0.54990414  0.78522991  1  0.326319  0.009839  0.079635  0.148062  0.005729  4.039683  0.008
C  C74  1  0.78524180  0.23698008  0.54995041  1  0.328113  0.009834  0.079819  0.148376  0.005726  4.039661  0.008
C  C75  1  0.45005477  0.21474396  0.76301935  1  0.326082  0.009841  0.079804  0.148488  0.005727  4.039567  0.008
C  C76  1  0.76303500  0.45010189  0.21476459  1  0.326624  0.009839  0.07958  0.148125  0.00573  4.039595  0.008
C  C77  1  0.21475573  0.76301076  0.45005495  1  0.326647  0.009837  0.079832  0.148413  0.005727  4.039503  0.008
C  C78  1  0.60680943  0.75839704  0.31685233  1  0.004915  0.004871  -0.099829  -0.170805  0.002559  4.014339  0.003
C  C79  1  0.31682885  0.60676939  0.75836915  1  0.00549  0.004857  -0.099767  -0.170622  0.002553  4.014448  0.003
C  C80  1  0.75838789  0.31685969  0.60681199  1  0.004276  0.00487  -0.099888  -0.170792  0.002558  4.014389  0.003
C  C81  1  0.39318726  0.24160384  0.68314866  1  0.004921  0.004868  -0.099832  -0.170716  0.002558  4.014293  0.003
C  C82  1  0.68316622  0.39323304  0.24162616  1  0.005662  0.004857  -0.099653  -0.170582  0.002552  4.014251  0.003
C  C83  1  0.24161861  0.68313863  0.39319541  1  0.005239  0.004867  -0.099838  -0.170602  0.002557  4.014238  0.003
C  C84  1  0.54827148  0.66509976  0.32529071  1  -0.060353  0.00308  -0.10564  -0.093858  0.001447  4.057999  0.002
C  C85  1  0.32526430  0.54824302  0.66507348  1  -0.060709  0.003084  -0.10553  -0.09375  0.001449  4.0585  0.002
C  C86  1  0.66510308  0.32530312  0.54828894  1  -0.073307  0.003078  -0.105593  -0.093621  0.001445  4.058168  0.002
C  C87  1  0.45171620  0.33490251  0.67471653  1  -0.073923  0.003082  -0.105605  -0.093964  0.001447  4.05802  0.002
C  C88  1  0.67473322  0.45176044  0.33492215  1  -0.060557  0.003085  -0.105544  -0.093678  0.00145  4.058386  0.002
C  C89  1  0.33490341  0.67469817  0.45171791  1  -0.059641  0.003076  -0.105625  -0.093697  0.001446  4.058335  0.002
C  C90  1  0.73326499  0.14215248  0.14955551  1  0.950174  0.008403  0.137443  0.171666  0.006002  4.013909  0.009
C  C91  1  0.14953271  0.73324084  0.14215266  1  0.950791  0.008392  0.137425  0.171961  0.005996  4.014401  0.009
C  C92  1  0.14215119  0.14954671  0.73326282  1  0.950786  0.00841  0.137444  0.171647  0.006007  4.013769  0.009
C  C93  1  0.26673417  0.85784574  0.85043976  1  0.950188  0.008402  0.13743  0.171741  0.006001  4.014111  0.009
C  C94  1  0.85047216  0.26675904  0.85784834  1  0.950868  0.008388  0.137402  0.17187  0.005995  4.014385  0.009
C  C95  1  0.85784634  0.85045156  0.26673481  1  0.950768  0.008414  0.137424  0.171648  0.006009  4.013517  0.009
C  C96  1  0.68947971  0.97615707  0.03778430  1  0.366857  0.008212  0.079864  0.145278  0.004915  4.034922  0.006
C  C97  1  0.03776503  0.68945844  0.97614390  1  0.366229  0.008217  0.079912  0.145333  0.004915  4.034859  0.006
C  C98  1  0.97614974  0.03777354  0.68947403  1  0.367061  0.008208  0.07999  0.145361  0.004912  4.035066  0.006
C  C99  1  0.31052271  0.02384102  0.96222110  1  0.366338  0.008214  0.079887  0.1451  0.004916  4.034754  0.006
C  C100  1  0.96223742  0.31053300  0.02385105  1  0.366656  0.008215  0.079913  0.145321  0.004915  4.03492  0.006
C  C101  1  0.02385104  0.96222683  0.31052803  1  0.36713  0.008211  0.079984  0.145357  0.004914  4.03493  0.006
C  C102  1  0.66098380  0.86438079  0.98492055  1  0.016604  0.004683  -0.097302  -0.166578  0.002474  4.007564  0.003
C  C103  1  0.98490112  0.66096391  0.86436103  1  0.016451  0.004679  -0.097181  -0.166543  0.002471  4.007513  0.003
C  C104  1  0.86437169  0.98492086  0.66098105  1  0.016853  0.004686  -0.097238  -0.166557  0.002475  4.007401  0.003
C  C105  1  0.33901861  0.13562101  0.01508383  1  0.016815  0.004681  -0.097278  -0.166354  0.002472  4.007556  0.003
C  C106  1  0.01509805  0.33902987  0.13563364  1  0.016952  0.00468  -0.097255  -0.166705  0.002472  4.007491  0.003
C  C107  1  0.13562830  0.01507622  0.33901554  1  0.017015  0.004687  -0.097242  -0.166584  0.002476  4.00744  0.003
C  C108  1  0.64001856  0.82290287  0.87466829  1  -0.125852  0.001595  -0.104016  -0.096297  0.000644  4.052778  0.001
C  C109  1  0.87466670  0.64001043  0.82289807  1  -0.125671  0.001594  -0.104109  -0.096307  0.000644  4.053252  0.001
C  C110  1  0.82290469  0.87467526  0.64001433  1  -0.126445  0.001593  -0.104081  -0.096238  0.000643  4.052649  0.001
C  C111  1  0.35998142  0.17709495  0.12532853  1  -0.125939  0.001594  -0.104098  -0.096428  0.000644  4.052945  0.001
C  C112  1  0.12533492  0.35998141  0.17709958  1  -0.125924  0.001595  -0.104036  -0.096126  0.000644  4.053002  0.001
C  C113  1  0.17709608  0.12532585  0.35998795  1  -0.126458  0.001594  -0.104025  -0.096148  0.000644  4.052833  0.001
C  C114  1  0.69558076  0.04390993  0.98086318  1  0.305616  0.008638  0.078134  0.142148  0.005101  4.035685  0.007
C  C115  1  0.98085665  0.69556316  0.04389992  1  0.306624  0.008632  0.078227  0.142205  0.0051  4.035562  0.007
C  C116  1  0.04390126  0.98086204  0.69558045  1  0.305094  0.008649  0.078202  0.142183  0.005105  4.035531  0.007
C  C117  1  0.30441677  0.95608686  0.01913544  1  0.3058  0.008635  0.078203  0.142404  0.0051  4.035667  0.007
C  C118  1  0.01914907  0.30442744  0.95609716  1  0.306393  0.008632  0.078154  0.142179  0.0051  4.035785  0.007
C  C119  1  0.95609543  0.01913958  0.30442218  1  0.305141  0.008649  0.078178  0.142231  0.005105  4.035448  0.007
C  C120  1  0.67474600  0.00155212  0.87015034  1  0.056963  0.004435  -0.097403  -0.166547  0.002375  4.005213  0.002
C  C121  1  0.87013741  0.67472128  0.00154212  1  0.057644  0.004436  -0.097478  -0.166614  0.002376  4.00497  0.002
C  C122  1  0.00155511  0.87015654  0.67475387  1  0.056977  0.004433  -0.097388  -0.166308  0.002374  4.005254  0.002
C  C123  1  0.32525235  0.99843982  0.12984921  1  0.057072  0.004434  -0.097499  -0.166717  0.002375  4.005399  0.002
C  C124  1  0.12986503  0.32527313  0.99845582  1  0.057598  0.004436  -0.097439  -0.166492  0.002376  4.005426  0.002
C  C125  1  0.99844567  0.12984532  0.32524934  1  0.057134  0.004435  -0.097382  -0.166415  0.002375  4.005329  0.002
C  C126  1  0.64757379  0.89061807  0.81854094  1  -0.047419  0.001995  -0.102538  -0.093047  0.000856  4.051629  0.001
C  C127  1  0.81853129  0.64756637  0.89060472  1  -0.047775  0.001994  -0.102418  -0.093015  0.000855  4.051756  0.001
C  C128  1  0.89062480  0.81855473  0.64757631  1  -0.047673  0.001999  -0.102581  -0.093262  0.000858  4.051845  0.001
C  C129  1  0.35242538  0.10937718  0.18145417  1  -0.047511  0.001995  -0.102491  -0.093042  0.000856  4.05162  0.001
C  C130  1  0.18146871  0.35242404  0.10939062  1  -0.047427  0.001994  -0.102548  -0.093339  0.000855  4.051994  0.001
C  C131  1  0.10937923  0.18145072  0.35242822  1  -0.047744  0.001999  -0.102561  -0.093256  0.000858  4.051826  0.001
C  C132  1  0.43677718  0.72135928  0.16928890  1  0.395481  0.009462  0.079572  0.149528  0.005571  4.03439  0.008
C  C133  1  0.16927201  0.43675773  0.72133251  1  0.39626  0.009453  0.079598  0.149804  0.005564  4.034354  0.008
C  C134  1  0.72134998  0.16928150  0.43678250  1  0.395539  0.009473  0.07961  0.149709  0.005575  4.034072  0.008
C  C135  1  0.56322111  0.27865191  0.83071916  1  0.396091  0.009461  0.079568  0.149563  0.00557  4.034355  0.008
C  C136  1  0.83072386  0.56324875  0.27866494  1  0.396028  0.009452  0.07956  0.149598  0.005564  4.034688  0.008
C  C137  1  0.27864999  0.83071186  0.56322008  1  0.395451  0.009472  0.079605  0.14961  0.005574  4.034213  0.008
C  C138  1  0.37877858  0.62740025  0.17779521  1  -0.069518  0.005154  -0.099578  -0.168594  0.002649  4.004834  0.003
C  C139  1  0.17778383  0.37875463  0.62736895  1  -0.070151  0.005156  -0.099511  -0.168577  0.00265  4.004733  0.003
C  C140  1  0.62739171  0.17780432  0.37878587  1  -0.071152  0.005149  -0.099489  -0.168681  0.002646  4.004852  0.003
C  C141  1  0.62121562  0.37261293  0.82221365  1  -0.071053  0.005154  -0.099517  -0.168657  0.002648  4.004944  0.003
C  C142  1  0.82220470  0.62124876  0.37262329  1  -0.07035  0.005156  -0.099429  -0.168427  0.00265  4.004631  0.003
C  C143  1  0.37261154  0.82219635  0.62121134  1  -0.071004  0.005149  -0.099468  -0.168609  0.002646  4.005126  0.003
C  C144  1  0.43673585  0.60044946  0.25636927  1  -0.001674  0.002811  -0.105837  -0.099494  0.001313  4.066739  0.001
C  C145  1  0.25635602  0.43671059  0.60041423  1  -0.002604  0.002804  -0.10592  -0.099423  0.001309  4.066723  0.001
C  C146  1  0.60043929  0.25637415  0.43675556  1  -0.001034  0.002813  -0.105948  -0.099648  0.001315  4.066923  0.001
C  C147  1  0.56325347  0.39955499  0.74363627  1  -0.000414  0.002809  -0.105824  -0.099398  0.001313  4.066508  0.001
C  C148  1  0.74363415  0.56329201  0.39957613  1  -0.002265  0.002802  -0.105974  -0.099534  0.001309  4.066833  0.001
C  C149  1  0.39955986  0.74362257  0.56324776  1  -0.001234  0.002811  -0.105896  -0.099589  0.001314  4.067141  0.001
N  N150  1  0.58466717  0.86994765  0.20656071  1  -1.232273  0.096541  -0.385839  -0.375891  0.04909  3.623963  0.06
N  N151  1  0.20653106  0.58462561  0.86993454  1  -1.232086  0.096534  -0.385678  -0.375466  0.049085  3.623667  0.06
N  N152  1  0.86992609  0.20655415  0.58465886  1  -1.233  0.09656  -0.38586  -0.375734  0.049096  3.623895  0.06
N  N153  1  0.41533852  0.13005256  0.79344204  1  -1.231929  0.096533  -0.385892  -0.375933  0.049088  3.624079  0.06
N  N154  1  0.79347135  0.41537620  0.13006418  1  -1.232187  0.096527  -0.385677  -0.375565  0.049082  3.623948  0.06
N  N155  1  0.13007551  0.79344509  0.41534381  1  -1.232293  0.096552  -0.385852  -0.375659  0.049094  3.623766  0.06
N  N156  1  0.71409635  0.04106680  0.14513485  1  -1.223893  0.093693  -0.381444  -0.374748  0.0477  3.614443  0.06
N  N157  1  0.14511301  0.71407339  0.04106562  1  -1.223263  0.093693  -0.381591  -0.375232  0.0477  3.614225  0.06
N  N158  1  0.04105340  0.14511019  0.71408622  1  -1.224083  0.093697  -0.381648  -0.374981  0.047698  3.614171  0.06
N  N159  1  0.28590527  0.95893022  0.85486150  1  -1.223883  0.093693  -0.381481  -0.374784  0.047699  3.614285  0.06
N  N160  1  0.85489188  0.28592352  0.95893309  1  -1.223607  0.09369  -0.381516  -0.375073  0.047694  3.614082  0.06
N  N161  1  0.95894985  0.85488604  0.28591322  1  -1.22406  0.0937  -0.381696  -0.37509  0.0477  3.614103  0.06
N  N162  1  0.72316268  0.14915740  0.05399793  1  -1.218353  0.092004  -0.381394  -0.375131  0.046927  3.610052  0.058
N  N163  1  0.05398893  0.72314232  0.14914617  1  -1.219562  0.092034  -0.38146  -0.375162  0.046936  3.610746  0.058
N  N164  1  0.14915762  0.05400397  0.72316434  1  -1.217989  0.092014  -0.381422  -0.375169  0.046932  3.610277  0.058
N  N165  1  0.27683731  0.85083968  0.94599725  1  -1.218125  0.092013  -0.381386  -0.375218  0.046933  3.610033  0.058
N  N166  1  0.94601432  0.27685316  0.85085446  1  -1.219541  0.092034  -0.381409  -0.375076  0.046937  3.610618  0.058
N  N167  1  0.85083990  0.94599800  0.27683226  1  -1.217989  0.092014  -0.381403  -0.375068  0.046932  3.610135  0.058
N  N168  1  0.40387172  0.76958740  0.10030868  1  -1.257396  0.097296  -0.384551  -0.37514  0.0494  3.625021  0.06
N  N169  1  0.10031308  0.40386988  0.76958039  1  -1.25786  0.097327  -0.384571  -0.375179  0.049416  3.625746  0.06
N  N170  1  0.76958444  0.10030336  0.40387247  1  -1.25758  0.097301  -0.384587  -0.375114  0.049406  3.625301  0.06
N  N171  1  0.59612660  0.23041639  0.89969366  1  -1.257412  0.097302  -0.384592  -0.375187  0.049404  3.624941  0.06
N  N172  1  0.89968280  0.59613511  0.23041733  1  -1.257905  0.097334  -0.38454  -0.375108  0.049419  3.625622  0.06
N  N173  1  0.23041880  0.89969360  0.59612859  1  -1.257744  0.097307  -0.384571  -0.374992  0.049405  3.625243  0.06
