# generated using pymatgen
data_CaH10C6(N4O3)2
_symmetry_space_group_name_H-M   'P 1'
_cell_length_a   7.24322005
_cell_length_b   9.32559169
_cell_length_c   9.99371917
_cell_angle_alpha   106.90218711
_cell_angle_beta   89.99968665
_cell_angle_gamma   89.99983391
_symmetry_Int_Tables_number   1
_chemical_formula_structural   CaH10C6(N4O3)2
_chemical_formula_sum   'Ca2 H20 C12 N16 O12'
_cell_volume   645.88844110
_cell_formula_units_Z   2
loop_
 _symmetry_equiv_pos_site_id
 _symmetry_equiv_pos_as_xyz
  1  'x, y, z'
loop_
 _atom_site_type_symbol
 _atom_site_label
 _atom_site_symmetry_multiplicity
 _atom_site_fract_x
 _atom_site_fract_y
 _atom_site_fract_z
 _atom_site_occupancy
 _atom_site_hle17_bader_spin_density
 _atom_site_hle17_ddec_charge
 _atom_site_hle17_ddec_spin_density
 _atom_site_hle17_ddec_sum_bond_order
 _atom_site_hle17_magmom
 _atom_site_hse06_10hf_bader_spin_density
 _atom_site_hse06_10hf_ddec_charge
 _atom_site_hse06_10hf_ddec_spin_density
 _atom_site_hse06_10hf_ddec_sum_bond_order
 _atom_site_hse06_10hf_magmom
 _atom_site_hse06_bader_spin_density
 _atom_site_hse06_ddec_charge
 _atom_site_hse06_ddec_spin_density
 _atom_site_hse06_ddec_sum_bond_order
 _atom_site_hse06_magmom
 _atom_site_pbe_bader_spin_density
 _atom_site_pbe_cm5_charge
 _atom_site_pbe_ddec_charge
 _atom_site_pbe_ddec_spin_density
 _atom_site_pbe_ddec_sum_bond_order
 _atom_site_pbe_magmom
Ca  Ca0  1  0.49999907  0.49999990  0.00000008  1  0  1.597155  0  1.125738  0  0  1.469974  0  1.492273  0  0  1.511314  0  1.445112  0  0  0.89616  1.43859  0  1.526148  0
Ca  Ca1  1  0.00000134  0.50000066  0.49999977  1  0  1.597177  0  1.125803  0  0  1.469953  0  1.492431  0  0  1.511291  0  1.445271  0  0  0.896073  1.438509  0  1.52627  0
H  H2  1  0.59165896  0.34247947  0.34454773  1  0  0.130255  0  0.973086  0  0  0.138161  0  1.03396  0  0  0.14204  0  1.030223  0  0  0.156692  0.134644  0  1.037638  0
H  H3  1  0.09166185  0.65751962  0.15545236  1  0  0.130245  0  0.973079  0  0  0.138147  0  1.033955  0  0  0.142026  0  1.03022  0  0  0.156686  0.134637  0  1.037629  0
H  H4  1  0.40833958  0.65752107  0.65545260  1  0  0.130231  0  0.973064  0  0  0.138141  0  1.033945  0  0  0.142021  0  1.030205  0  0  0.156674  0.134624  0  1.037617  0
H  H5  1  0.90833807  0.34248092  0.84454797  1  0  0.130242  0  0.973085  0  0  0.138149  0  1.03396  0  0  0.142028  0  1.030223  0  0  0.156683  0.134636  0  1.037636  0
H  H6  1  0.42982138  0.16080900  0.62814875  1  0  0.123944  0  0.941299  0  0  0.127242  0  1.018315  0  0  0.129638  0  1.016957  0  0  0.12793  0.125771  0  1.018869  0
H  H7  1  0.92981920  0.83919069  0.87185511  1  0  0.123975  0  0.941307  0  0  0.127292  0  1.018295  0  0  0.12969  0  1.016935  0  0  0.127929  0.125821  0  1.01885  0
H  H8  1  0.57017992  0.83919043  0.37185228  1  0  0.123944  0  0.941309  0  0  0.127279  0  1.018298  0  0  0.129674  0  1.016939  0  0  0.127934  0.125803  0  1.018858  0
H  H9  1  0.07017933  0.16080873  0.12814492  1  0  0.123984  0  0.941303  0  0  0.127295  0  1.018301  0  0  0.129693  0  1.016943  0  0  0.127937  0.125827  0  1.018851  0
H  H10  1  0.62990082  0.25885571  0.59943097  1  0  0.130882  0  0.923586  0  0  0.142715  0  0.987121  0  0  0.145514  0  0.984406  0  0  0.132429  0.140481  0  0.989615  0
H  H11  1  0.12990019  0.74113949  0.90056790  1  0  0.130957  0  0.923423  0  0  0.142756  0  0.986989  0  0  0.145554  0  0.984274  0  0  0.132441  0.140531  0  0.989478  0
H  H12  1  0.37009909  0.74114258  0.40056776  1  0  0.130874  0  0.923509  0  0  0.142713  0  0.987063  0  0  0.145512  0  0.984348  0  0  0.132423  0.140477  0  0.989563  0
H  H13  1  0.87009973  0.25885994  0.09943313  1  0  0.130934  0  0.923465  0  0  0.142746  0  0.987031  0  0  0.145547  0  0.984314  0  0  0.132433  0.140519  0  0.989527  0
H  H14  1  0.39304285  0.84867589  0.10194445  1  0  0.395787  0  0.915017  0  0  0.355514  0  0.995441  0  0  0.365702  0  0.980643  0  0  0.290337  0.348529  0  1.005523  0
H  H15  1  0.89304579  0.15132766  0.39805562  1  0  0.39566  0  0.915186  0  0  0.355374  0  0.995631  0  0  0.365563  0  0.980834  0  0  0.290254  0.34838  0  1.005724  0
H  H16  1  0.60695707  0.15132465  0.89805588  1  0  0.395802  0  0.914994  0  0  0.35553  0  0.995417  0  0  0.365719  0  0.980619  0  0  0.290344  0.348547  0  1.005495  0
H  H17  1  0.10695689  0.84867400  0.60194400  1  0  0.395735  0  0.91509  0  0  0.355459  0  0.99552  0  0  0.365648  0  0.980722  0  0  0.290296  0.348466  0  1.005611  0
H  H18  1  0.47741246  0.80230003  0.95040072  1  0  0.393933  0  0.921378  0  0  0.352406  0  1.00361  0  0  0.363793  0  0.987094  0  0  0.287212  0.344437  0  1.015213  0
H  H19  1  0.97741921  0.19769945  0.54960090  1  0  0.393941  0  0.921349  0  0  0.352415  0  1.003578  0  0  0.363803  0  0.987063  0  0  0.28719  0.344442  0  1.015186  0
H  H20  1  0.52258608  0.19769939  0.04960031  1  0  0.393936  0  0.921367  0  0  0.352411  0  1.003596  0  0  0.363798  0  0.98708  0  0  0.287215  0.344442  0  1.015199  0
H  H21  1  0.02258485  0.80229997  0.45039913  1  0  0.393932  0  0.921363  0  0  0.35241  0  1.003589  0  0  0.363797  0  0.987074  0  0  0.287197  0.344432  0  1.015205  0
C  C22  1  0.51079601  0.24044466  0.32710411  1  0  0.161309  0  3.600075  0  0  0.083576  0  3.866443  0  0  0.094905  0  3.876657  0  0  0.188527  0.076456  0  3.860115  0
C  C23  1  0.01079701  0.75955588  0.17289870  1  0  0.161227  0  3.600086  0  0  0.083529  0  3.866414  0  0  0.094854  0  3.876634  0  0  0.188522  0.076405  0  3.860093  0
C  C24  1  0.48920253  0.75955476  0.67289693  1  0  0.161319  0  3.599992  0  0  0.083574  0  3.866374  0  0  0.094904  0  3.876587  0  0  0.188528  0.076458  0  3.860042  0
C  C25  1  0.98920291  0.24044466  0.82710163  1  0  0.161213  0  3.600127  0  0  0.083509  0  3.866443  0  0  0.094835  0  3.87666  0  0  0.188501  0.076387  0  3.860123  0
C  C26  1  0.48101687  0.24372632  0.57909727  1  0  -0.194592  0  3.612445  0  0  -0.272192  0  3.86269  0  0  -0.273376  0  3.86715  0  0  -0.043489  -0.271052  0  3.859446  0
C  C27  1  0.98101188  0.75627316  0.92090434  1  0  -0.19475  0  3.612568  0  0  -0.272299  0  3.862711  0  0  -0.273481  0  3.867163  0  0  -0.043477  -0.271153  0  3.859463  0
C  C28  1  0.51898581  0.75627422  0.42090206  1  0  -0.194585  0  3.612409  0  0  -0.272248  0  3.862704  0  0  -0.273431  0  3.867159  0  0  -0.043499  -0.271097  0  3.859457  0
C  C29  1  0.01898528  0.24372626  0.07909569  1  0  -0.194742  0  3.612578  0  0  -0.272312  0  3.862745  0  0  -0.273502  0  3.867211  0  0  -0.043482  -0.271167  0  3.859505  0
C  C30  1  0.38369776  0.39408597  0.64294490  1  0  0.740231  0  3.87112  0  0  0.691888  0  4.176138  0  0  0.725758  0  4.166702  0  0  0.23956  0.668571  0  4.181616  0
C  C31  1  0.88368413  0.60592068  0.85707301  1  0  0.740519  0  3.870959  0  0  0.69221  0  4.175889  0  0  0.726078  0  4.166447  0  0  0.239726  0.668887  0  4.181379  0
C  C32  1  0.61630216  0.60591345  0.35705412  1  0  0.740287  0  3.871108  0  0  0.691947  0  4.176131  0  0  0.725817  0  4.166695  0  0  0.239607  0.668625  0  4.181609  0
C  C33  1  0.11631440  0.39407986  0.14292732  1  0  0.740488  0  3.870951  0  0  0.692179  0  4.175903  0  0  0.726049  0  4.166459  0  0  0.239674  0.668855  0  4.181392  0
N  N34  1  0.45417313  0.18347046  0.42932446  1  0  0.068214  0  3.557178  0  0  0.185102  0  3.749107  0  0  0.176831  0  3.767766  0  0  -0.109691  0.190109  0  3.736735  0
N  N35  1  0.95417467  0.81652950  0.07067641  1  0  0.068275  0  3.557182  0  0  0.185136  0  3.749102  0  0  0.176865  0  3.767764  0  0  -0.109676  0.190137  0  3.736755  0
N  N36  1  0.54582817  0.81652896  0.57067557  1  0  0.068188  0  3.557106  0  0  0.185082  0  3.749059  0  0  0.17681  0  3.767718  0  0  -0.109704  0.190089  0  3.736681  0
N  N37  1  0.04582387  0.18347104  0.92932392  1  0  0.068288  0  3.557166  0  0  0.18516  0  3.749094  0  0  0.176892  0  3.767756  0  0  -0.109659  0.190159  0  3.736745  0
N  N38  1  0.35835018  0.05654253  0.37139942  1  0  -0.08945  0  2.850035  0  0  -0.109071  0  3.132107  0  0  -0.107788  0  3.142518  0  0  -0.064437  -0.110297  0  3.126103  0
N  N39  1  0.85834943  0.94345781  0.12860293  1  0  -0.08957  0  2.850274  0  0  -0.109192  0  3.132343  0  0  -0.107908  0  3.142751  0  0  -0.064512  -0.110422  0  3.12635  0
N  N40  1  0.64165112  0.94345577  0.62860031  1  0  -0.089428  0  2.850112  0  0  -0.109029  0  3.132154  0  0  -0.107745  0  3.142566  0  0  -0.064398  -0.11026  0  3.126147  0
N  N41  1  0.14164911  0.05654161  0.87139710  1  0  -0.089538  0  2.850214  0  0  -0.109171  0  3.132306  0  0  -0.107888  0  3.142715  0  0  -0.064513  -0.1104  0  3.126304  0
N  N42  1  0.35945105  0.03749178  0.23686559  1  0  -0.091584  0  3.015071  0  0  -0.073771  0  3.318332  0  0  -0.075117  0  3.329222  0  0  -0.073563  -0.072972  0  3.311701  0
N  N43  1  0.85945061  0.96250966  0.26313606  1  0  -0.091469  0  3.015235  0  0  -0.07364  0  3.318465  0  0  -0.074985  0  3.329356  0  0  -0.073453  -0.072828  0  3.311807  0
N  N44  1  0.64054748  0.96250651  0.76313314  1  0  -0.091642  0  3.015144  0  0  -0.073837  0  3.318411  0  0  -0.075184  0  3.329302  0  0  -0.073605  -0.073035  0  3.311775  0
N  N45  1  0.14054930  0.03748975  0.73686297  1  0  -0.091571  0  3.015086  0  0  -0.073755  0  3.318327  0  0  -0.075101  0  3.329216  0  0  -0.073508  -0.072945  0  3.311675  0
N  N46  1  0.45290663  0.15059289  0.20587055  1  0  -0.256402  0  3.010836  0  0  -0.215564  0  3.293748  0  0  -0.228034  0  3.30566  0  0  -0.197016  -0.207556  0  3.286218  0
N  N47  1  0.95290776  0.84940708  0.29413133  1  0  -0.256352  0  3.010855  0  0  -0.215534  0  3.293761  0  0  -0.228002  0  3.305673  0  0  -0.197041  -0.20751  0  3.286209  0
N  N48  1  0.54709191  0.84940653  0.79412948  1  0  -0.256352  0  3.010834  0  0  -0.215506  0  3.293755  0  0  -0.227977  0  3.305667  0  0  -0.197002  -0.207504  0  3.286229  0
N  N49  1  0.04709216  0.15059458  0.70586830  1  0  -0.256261  0  3.010723  0  0  -0.215423  0  3.293606  0  0  -0.227892  0  3.305517  0  0  -0.196961  -0.207408  0  3.286062  0
O  O50  1  0.40720329  0.45136320  0.77224044  1  0  -0.707793  0  1.947285  0  0  -0.651542  0  2.194585  0  0  -0.678972  0  2.182941  0  0  -0.377895  -0.631309  0  2.201715  0
O  O51  1  0.90719499  0.54864324  0.72775531  1  0  -0.708102  0  1.94668  0  0  -0.651869  0  2.193996  0  0  -0.679303  0  2.182354  0  0  -0.37808  -0.631608  0  2.201104  0
O  O52  1  0.59279663  0.54863734  0.22775888  1  0  -0.707821  0  1.947284  0  0  -0.651566  0  2.19458  0  0  -0.678998  0  2.182938  0  0  -0.377919  -0.631335  0  2.201712  0
O  O53  1  0.09280355  0.45135618  0.27224472  1  0  -0.708095  0  1.946686  0  0  -0.65187  0  2.194016  0  0  -0.679306  0  2.182372  0  0  -0.378052  -0.631615  0  2.201131  0
O  O54  1  0.29270113  0.45120982  0.56312611  1  0  -0.720025  0  1.982221  0  0  -0.662787  0  2.230698  0  0  -0.690211  0  2.219994  0  0  -0.38257  -0.642761  0  2.237786  0
O  O55  1  0.79270507  0.54879594  0.93687192  1  0  -0.719969  0  1.98264  0  0  -0.662792  0  2.231145  0  0  -0.690207  0  2.220432  0  0  -0.382562  -0.642779  0  2.238264  0
O  O56  1  0.70730155  0.54878846  0.43687161  1  0  -0.720047  0  1.982179  0  0  -0.6628  0  2.230648  0  0  -0.690221  0  2.219943  0  0  -0.382584  -0.64277  0  2.237735  0
O  O57  1  0.20729347  0.45120459  0.06312741  1  0  -0.719968  0  1.982664  0  0  -0.662792  0  2.231177  0  0  -0.690207  0  2.220463  0  0  -0.382554  -0.64277  0  2.238287  0
O  O58  1  0.42660572  0.76005820  0.02377669  1  0  -0.883279  0  1.851683  0  0  -0.826644  0  2.050041  0  0  -0.846322  0  2.017119  0  0  -0.622078  -0.812318  0  2.072568  0
O  O59  1  0.92661052  0.23994746  0.47622282  1  0  -0.883175  0  1.851694  0  0  -0.826523  0  2.050058  0  0  -0.846201  0  2.017139  0  0  -0.621997  -0.812204  0  2.072589  0
O  O60  1  0.57339420  0.23994234  0.97622364  1  0  -0.883297  0  1.85165  0  0  -0.826659  0  2.050003  0  0  -0.846337  0  2.017081  0  0  -0.622086  -0.812336  0  2.072527  0
O  O61  1  0.07339354  0.76005420  0.52377581  1  0  -0.883224  0  1.851679  0  0  -0.826586  0  2.050029  0  0  -0.846265  0  2.017109  0  0  -0.622051  -0.812268  0  2.072562  0
