# generated using pymatgen
data_ZnH20C24N5O17
_symmetry_space_group_name_H-M   'P 1'
_cell_length_a   11.08406339
_cell_length_b   12.61682565
_cell_length_c   13.63565526
_cell_angle_alpha   79.88341602
_cell_angle_beta   83.70976023
_cell_angle_gamma   77.26835090
_symmetry_Int_Tables_number   1
_chemical_formula_structural   ZnH20C24N5O17
_chemical_formula_sum   'Zn2 H40 C48 N10 O34'
_cell_volume   1826.09282025
_cell_formula_units_Z   2
loop_
 _symmetry_equiv_pos_site_id
 _symmetry_equiv_pos_as_xyz
  1  'x, y, z'
loop_
 _atom_site_type_symbol
 _atom_site_label
 _atom_site_symmetry_multiplicity
 _atom_site_fract_x
 _atom_site_fract_y
 _atom_site_fract_z
 _atom_site_occupancy
 _atom_site_pbe_bader_charge
 _atom_site_pbe_bader_spin_density
 _atom_site_pbe_cm5_charge
 _atom_site_pbe_ddec_charge
 _atom_site_pbe_ddec_spin_density
 _atom_site_pbe_ddec_sum_bond_order
 _atom_site_pbe_magmom
Zn  Zn0  1  0.47140496  0.61647412  0.50921886  1  1.300155  0  0.678818  0.853579  0  2.259174  0
Zn  Zn1  1  0.53045052  0.38632857  0.48528979  1  1.297204  0  0.694845  0.846205  0  2.406238  0
H  H2  1  0.91544174  0.55990667  0.34586936  1  0.149082  0  0.129968  0.092293  0  1.033191  0
H  H3  1  0.11981806  0.54278785  0.35108212  1  0.11475  0  0.111203  0.136541  0  0.978227  0
H  H4  1  0.09843662  0.64842180  0.42243501  1  0.138168  0  0.113088  0.132882  0  1.028602  0
H  H5  1  0.39895531  0.56363626  0.83584057  1  0.090929  0  0.10891  0.117541  0  1.016697  0
H  H6  1  0.32528444  0.72716368  0.66089612  1  0.186264  0  0.126259  0.113273  0  1.008826  0
H  H7  1  0.34120958  0.08821033  0.72333959  1  0.111086  0  0.116329  0.125628  0  0.974766  0
H  H8  1  0.29523873  0.89946782  0.73418884  1  0.111335  0  0.124365  0.138486  0  0.96392  0
H  H9  1  0.71506766  0.27744799  0.35408967  1  0.163528  0  0.134325  0.120086  0  0.997226  0
H  H10  1  0.71387209  0.93059679  0.40425926  1  0.132804  0  0.112187  0.12179  0  1.074266  0
H  H11  1  0.43703412  0.23811942  0.62840685  1  0.161418  0  0.121988  0.148047  0  1.010504  0
H  H12  1  0.70777433  0.49751962  0.69593647  1  0.093939  0  0.100963  0.104324  0  1.044199  0
H  H13  1  0.77705111  0.42605093  0.80750374  1  0.061145  0  0.095421  0.09572  0  1.000463  0
H  H14  1  0.75074931  0.35018861  0.71423997  1  0.100713  0  0.09863  0.105213  0  1.056939  0
H  H15  1  0.58679135  0.08717809  0.86374446  1  0.044375  0  0.10234  0.104373  0  0.986619  0
H  H16  1  0.74520780  0.09229495  0.82272509  1  0.066626  0  0.104299  0.107312  0  1.002486  0
H  H17  1  0.64094139  0.08174141  0.73520503  1  0.034117  0  0.099259  0.104761  0  1.002966  0
H  H18  1  0.55601993  0.16888697  0.23477275  1  0.05187  0  0.09152  0.092703  0  1.010029  0
H  H19  1  0.68719176  0.08750236  0.17364570  1  0.082613  0  0.108318  0.119261  0  0.989957  0
H  H20  1  0.55812032  0.15960686  0.10474746  1  0.054191  0  0.100779  0.103125  0  1.018188  0
H  H21  1  0.84534577  0.22555223  0.86413399  1  0.070584  0  0.102106  0.107931  0  0.997077  0
H  H22  1  0.87890031  0.13165777  0.97772983  1  0.065352  0  0.112281  0.121683  0  0.965791  0
H  H23  1  0.83209579  0.27625260  0.98113821  1  0.055697  0  0.100016  0.103321  0  0.992044  0
H  H24  1  0.21563033  0.88488465  0.22465216  1  0.078651  0  0.093277  0.094624  0  1.020639  0
H  H25  1  0.36814858  0.81522074  0.26082840  1  0.063149  0  0.094442  0.100619  0  1.039734  0
H  H26  1  0.24095641  0.82978078  0.35386949  1  0.064263  0  0.104854  0.11837  0  0.971555  0
H  H27  1  0.64557792  0.61533141  0.18884902  1  0.072996  0  0.099237  0.103591  0  1.012863  0
H  H28  1  0.79087047  0.54070476  0.14048599  1  0.056976  0  0.103071  0.109338  0  0.97048  0
H  H29  1  0.75705126  0.53726777  0.27292097  1  0.075906  0  0.106529  0.123939  0  1.002413  0
H  H30  1  0.92927501  0.93362334  0.36736865  1  0.088079  0  0.105675  0.115318  0  0.983662  0
H  H31  1  0.98226780  0.99614369  0.24592845  1  0.087281  0  0.112095  0.125189  0  0.973335  0
H  H32  1  0.84325288  0.94263473  0.26159610  1  0.055536  0  0.101428  0.105813  0  1.021338  0
H  H33  1  0.85393555  0.73275036  0.70672917  1  0.083888  0  0.10408  0.11322  0  0.975984  0
H  H34  1  0.89843276  0.59394361  0.77036288  1  0.120405  0  0.104352  0.10976  0  1.036567  0
H  H35  1  0.73800247  0.65456960  0.75646385  1  0.064069  0  0.102832  0.110112  0  0.974802  0
H  H36  1  0.90585659  0.30529419  0.26434871  1  0.092412  0  0.106314  0.116347  0  1.000359  0
H  H37  1  0.04212296  0.24611642  0.32886935  1  0.09615  0  0.105087  0.109667  0  1.026658  0
H  H38  1  0.03878770  0.36869479  0.23775690  1  0.073138  0  0.103323  0.111989  0  0.974626  0
H  H39  1  0.24781859  0.21913535  0.32884198  1  0.026666  0  0.096343  0.095947  0  1.003052  0
H  H40  1  0.33411115  0.25402468  0.41815461  1  0.098986  0  0.09999  0.106687  0  1.059517  0
H  H41  1  0.32369680  0.33488099  0.29745873  1  0.072801  0  0.102939  0.117739  0  0.981605  0
C  C42  1  0.46059522  0.55973993  0.31092684  1  1.613593  0  0.220885  0.611789  0  4.167876  0
C  C43  1  0.73876010  0.50326934  0.49544531  1  1.625167  0  0.219005  0.597421  0  4.101489  0
C  C44  1  0.49194675  0.45258712  0.69040923  1  1.586228  0  0.219302  0.608798  0  4.164317  0
C  C45  1  0.26749091  0.48006152  0.50740415  1  1.660687  0  0.212232  0.588829  0  4.162499  0
C  C46  1  0.93145206  0.58239784  0.41600921  1  0.167563  0  0.002986  -0.009955  0  3.683191  0
C  C47  1  0.07315852  0.57056740  0.41961574  1  -0.076655  0  -0.166323  -0.244918  0  3.823903  0
C  C48  1  0.91257011  0.51585579  0.60906695  1  1.146055  0  0.17832  0.344731  0  3.853159  0
C  C49  1  0.95723068  0.38588191  0.46485292  1  0.743179  0  0.165678  0.15263  0  3.602138  0
C  C50  1  0.88163425  0.49857887  0.50049984  1  0.027672  0  0.002683  -0.148681  0  3.549011  0
C  C51  1  0.12637222  0.48302369  0.50843324  1  0.002479  0  -0.006905  -0.077926  0  3.702401  0
C  C52  1  0.05856524  0.51805639  0.60681734  1  0.335069  0  0.154903  -0.023798  0  3.409651  0
C  C53  1  0.10458890  0.37185527  0.47839347  1  0.787909  0  0.178346  0.157277  0  3.678681  0
C  C54  1  0.60444823  0.28363415  0.93591478  1  0.543146  0  0.063968  0.079654  0  4.024773  0
C  C55  1  0.50064882  0.41120207  0.79998288  1  -0.031136  0  -0.020386  -0.11639  0  3.943313  0
C  C56  1  0.30418398  0.66183663  0.19158663  1  0.610904  0  0.097174  0.202573  0  4.032058  0
C  C57  1  0.24339339  0.66652006  0.10481018  1  0.299188  0  0.068841  -0.085096  0  3.935722  0
C  C58  1  0.29443222  0.59833128  0.03454110  1  0.154835  0  0.083956  0.003925  0  3.934224  0
C  C59  1  0.41207220  0.52884491  0.04196463  1  0.07008  0  -0.003545  -0.009217  0  3.969602  0
C  C60  1  0.47466914  0.52379647  0.13010062  1  -0.021899  0  -0.003049  -0.010891  0  3.975778  0
C  C61  1  0.46837316  0.45717232  0.96947770  1  -0.019807  0  -0.022786  0.024668  0  4.031648  0
C  C62  1  0.55417081  0.35842938  0.00375996  1  -0.064775  0  -0.015894  -0.096168  0  4.034175  0
C  C63  1  0.60328245  0.34827510  0.09953060  1  0.591107  0  0.089189  0.13238  0  4.006134  0
C  C64  1  0.58710193  0.44118914  0.14526300  1  0.560901  0  0.081738  0.107955  0  4.006882  0
C  C65  1  0.45013061  0.48309376  0.86730624  1  0.086329  0  -0.086457  -0.124329  0  3.970059  0
C  C66  1  0.57021353  0.30465674  0.83682173  1  0.578888  0  0.097315  0.152287  0  4.010701  0
C  C67  1  0.41767568  0.58761172  0.20604342  1  0.047529  0  -0.015397  -0.160518  0  3.891617  0
C  C68  1  0.35591638  0.88916796  0.66655924  1  0.025904  0  -0.067123  -0.156471  0  3.922598  0
C  C69  1  0.68021533  0.20710370  0.39580756  1  0.626255  0  0.06986  0.038622  0  3.867797  0
C  C70  1  0.73330726  0.09979749  0.37531618  1  0.513865  0  0.101669  0.228646  0  4.058266  0
C  C71  1  0.67568539  0.01397597  0.41906450  1  0.014736  0  -0.089358  -0.232374  0  3.925978  0
C  C72  1  0.57139699  0.03558823  0.48727902  1  0.038804  0  0.004874  0.037527  0  3.983349  0
C  C73  1  0.53812330  0.14073214  0.51797190  1  0.413408  0  0.111342  0.178728  0  3.974271  0
C  C74  1  0.49804847  0.95537304  0.53217712  1  0.049109  0  0.00817  -0.052647  0  3.92263  0
C  C75  1  0.41931769  0.97265548  0.62071499  1  -0.096745  0  0.015561  0.120948  0  4.010439  0
C  C76  1  0.40212378  0.07506079  0.65631967  1  -0.072935  0  -0.081474  -0.131315  0  3.970641  0
C  C77  1  0.45460165  0.15828167  0.60373413  1  0.069422  0  -0.067357  -0.11675  0  3.917208  0
C  C78  1  0.49085143  0.86216400  0.49125144  1  0.78804  0  0.227443  0.202048  0  3.866451  0
C  C79  1  0.36937359  0.79462406  0.62560339  1  0.420292  0  0.047257  0.100569  0  3.905918  0
C  C80  1  0.77531244  0.42562870  0.72713726  1  0.312538  0  -0.15848  -0.182905  0  3.897193  0
C  C81  1  0.64917382  0.11652987  0.80179152  1  0.42214  0  -0.134648  -0.169183  0  3.892103  0
C  C82  1  0.61487699  0.16223763  0.16482929  1  0.368711  0  -0.141327  -0.175456  0  3.890865  0
C  C83  1  0.81985201  0.20846281  0.94480668  1  0.362772  0  -0.134358  -0.172498  0  3.880547  0
C  C84  1  0.26853352  0.81838315  0.27612133  1  0.366082  0  -0.144518  -0.167687  0  3.86969  0
C  C85  1  0.71786874  0.54047644  0.20206423  1  0.362079  0  -0.13638  -0.169179  0  3.836715  0
C  C86  1  0.90083601  0.98413892  0.29619285  1  0.367733  0  -0.134377  -0.181827  0  3.873412  0
C  C87  1  0.83250450  0.65024186  0.72092718  1  0.29095  0  -0.145752  -0.169486  0  3.86613  0
C  C88  1  0.98475910  0.32311881  0.29576575  1  0.336735  0  -0.138073  -0.161722  0  3.854456  0
C  C89  1  0.27444084  0.28653111  0.35685942  1  0.39912  0  -0.143496  -0.158088  0  3.875199  0
N  N90  1  0.43490888  0.78166499  0.53606659  1  -1.243917  0  -0.308781  -0.261002  0  3.467096  0
N  N91  1  0.58970434  0.22544799  0.46647938  1  -1.263391  0  -0.321612  -0.234232  0  3.517194  0
N  N92  1  0.87049816  0.70527992  0.39594479  1  0.474262  0  0.054332  0.530698  0  4.10615  0
N  N93  1  0.14421828  0.26508200  0.55383950  1  0.507356  0  0.049449  0.453582  0  4.186938  0
N  N94  1  0.12419465  0.45628011  0.70496704  1  0.554212  0  0.056236  0.481051  0  4.214082  0
N  N95  1  0.21614616  0.59713959  0.95347847  1  0.423088  0  0.056849  0.512798  0  4.251501  0
N  N96  1  0.11834257  0.73540451  0.09585835  1  0.408588  0  0.058278  0.535461  0  4.234335  0
N  N97  1  0.52836906  0.86167388  0.38223626  1  0.435534  0  0.061774  0.474743  0  4.213259  0
N  N98  1  0.07623079  0.63980426  0.61468923  1  0.53165  0  0.063095  0.486199  0  4.132213  0
N  N99  1  0.91025344  0.27124005  0.52252555  1  0.587826  0  0.049526  0.429454  0  4.13753  0
O  O100  1  0.46933772  0.63716848  0.35596459  1  -1.145012  0  -0.303345  -0.535521  0  2.399732  0
O  O101  1  0.48059682  0.45809992  0.34650957  1  -1.158611  0  -0.302629  -0.53171  0  2.405559  0
O  O102  1  0.66433387  0.59264894  0.50538387  1  -1.151723  0  -0.300825  -0.5216  0  2.39182  0
O  O103  1  0.70974335  0.41628333  0.47958800  1  -1.163616  0  -0.301729  -0.534282  0  2.383455  0
O  O104  1  0.46479148  0.55654727  0.66182549  1  -1.1698  0  -0.31366  -0.549854  0  2.312172  0
O  O105  1  0.51855509  0.38135641  0.63232924  1  -1.167918  0  -0.306482  -0.538158  0  2.488853  0
O  O106  1  0.29598278  0.57225578  0.50649389  1  -1.16583  0  -0.311733  -0.539811  0  2.32928  0
O  O107  1  0.33897754  0.38799397  0.50456326  1  -1.167265  0  -0.301646  -0.52891  0  2.448594  0
O  O108  1  0.81688570  0.75936085  0.45995907  1  -0.418766  0  -0.096047  -0.28429  0  2.08277  0
O  O109  1  0.88616269  0.74328444  0.30584686  1  -0.472038  0  -0.135458  -0.338004  0  1.924498  0
O  O110  1  0.14215181  0.27165736  0.64267527  1  -0.430433  0  -0.095396  -0.274054  0  2.068403  0
O  O111  1  0.16827589  0.17872690  0.51787970  1  -0.46194  0  -0.11567  -0.301484  0  1.986209  0
O  O112  1  0.89783884  0.42754144  0.68192455  1  -1.061313  0  -0.221403  -0.242118  0  2.660712  0
O  O113  1  0.23709741  0.42395593  0.69406419  1  -0.445866  0  -0.097589  -0.278084  0  2.094807  0
O  O114  1  0.06183273  0.45223331  0.78474761  1  -0.402562  0  -0.094409  -0.269765  0  2.046354  0
O  O115  1  0.61314520  0.23352773  0.77144386  1  -1.061264  0  -0.171218  -0.121459  0  2.653339  0
O  O116  1  0.67742793  0.25391122  0.14191993  1  -1.053147  0  -0.190085  -0.162245  0  2.574965  0
O  O117  1  0.69442141  0.19155193  0.96362430  1  -1.070142  0  -0.206665  -0.189668  0  2.62764  0
O  O118  1  0.23922506  0.71468244  0.26611748  1  -1.080246  0  -0.199836  -0.178983  0  2.574772  0
O  O119  1  0.19458855  0.68233523  0.89156258  1  -0.443525  0  -0.126985  -0.316788  0  1.891014  0
O  O120  1  0.17792647  0.51243435  0.95484084  1  -0.412035  0  -0.100655  -0.282391  0  1.916323  0
O  O121  1  0.10640842  0.83458616  0.09962493  1  -0.435095  0  -0.126872  -0.330333  0  1.9046  0
O  O122  1  0.03386017  0.68928116  0.08535231  1  -0.447967  0  -0.12981  -0.323417  0  1.884726  0
O  O123  1  0.66920285  0.44136446  0.21242488  1  -1.060966  0  -0.185219  -0.151185  0  2.612338  0
O  O124  1  0.60705127  0.78614611  0.35449925  1  -0.397502  0  -0.084266  -0.26067  0  2.059744  0
O  O125  1  0.47045160  0.94163201  0.32726647  1  -0.451894  0  -0.121013  -0.321438  0  1.90874  0
O  O126  1  0.83607298  0.09242304  0.31245082  1  -1.068389  0  -0.167274  -0.131845  0  2.58332  0
O  O127  1  0.83555552  0.61454535  0.62558617  1  -1.041633  0  -0.211655  -0.228724  0  2.625477  0
O  O128  1  0.02940357  0.71608747  0.55256701  1  -0.428549  0  -0.098496  -0.279255  0  2.061928  0
O  O129  1  0.13281508  0.64879211  0.68433228  1  -0.420214  0  -0.094894  -0.287387  0  2.042849  0
O  O130  1  0.89838517  0.24948847  0.61356798  1  -0.467371  0  -0.106335  -0.275043  0  2.083503  0
O  O131  1  0.89831566  0.21064755  0.46439779  1  -0.451965  0  -0.108071  -0.296871  0  2.12874  0
O  O132  1  0.93091569  0.39560698  0.36805775  1  -1.075828  0  -0.190745  -0.176618  0  2.711797  0
O  O133  1  0.16364257  0.36306173  0.38465604  1  -1.07734  0  -0.200349  -0.197664  0  2.66654  0
