# generated using pymatgen
data_ZnH24C34(NO3)2
_symmetry_space_group_name_H-M   'P 1'
_cell_length_a   8.94406007
_cell_length_b   9.86787673
_cell_length_c   17.12200000
_cell_angle_alpha   80.01293416
_cell_angle_beta   84.09086540
_cell_angle_gamma   73.89223247
_symmetry_Int_Tables_number   1
_chemical_formula_structural   ZnH24C34(NO3)2
_chemical_formula_sum   'Zn2 H48 C68 N4 O12'
_cell_volume   1427.43938003
_cell_formula_units_Z   2
loop_
 _symmetry_equiv_pos_site_id
 _symmetry_equiv_pos_as_xyz
  1  'x, y, z'
loop_
 _atom_site_type_symbol
 _atom_site_label
 _atom_site_symmetry_multiplicity
 _atom_site_fract_x
 _atom_site_fract_y
 _atom_site_fract_z
 _atom_site_occupancy
 _atom_site_hle17_bader_spin_density
 _atom_site_hle17_ddec_charge
 _atom_site_hle17_ddec_spin_density
 _atom_site_hle17_ddec_sum_bond_order
 _atom_site_hle17_magmom
 _atom_site_hse06_10hf_bader_spin_density
 _atom_site_hse06_10hf_ddec_charge
 _atom_site_hse06_10hf_ddec_spin_density
 _atom_site_hse06_10hf_ddec_sum_bond_order
 _atom_site_hse06_10hf_magmom
 _atom_site_hse06_bader_spin_density
 _atom_site_hse06_ddec_charge
 _atom_site_hse06_ddec_spin_density
 _atom_site_hse06_ddec_sum_bond_order
 _atom_site_hse06_magmom
 _atom_site_pbe_bader_charge
 _atom_site_pbe_bader_spin_density
 _atom_site_pbe_cm5_charge
 _atom_site_pbe_ddec_charge
 _atom_site_pbe_ddec_spin_density
 _atom_site_pbe_ddec_sum_bond_order
 _atom_site_pbe_magmom
Zn  Zn0  1  0.07257037  0.14225389  0.07385362  1  0  1.06149  0  1.800525  0  0  0.865319  0  2.278531  0  0  0.917565  0  2.217745  0  1.320946  0  0.695428  0.828694  0  2.320427  0
Zn  Zn1  1  0.26013642  0.28448324  0.23135540  1  0  1.052317  0  1.826113  0  0  0.855719  0  2.301849  0  0  0.907623  0  2.242292  0  1.333954  0  0.693196  0.819172  0  2.343403  0
H  H2  1  0.50773904  0.99726268  0.64651401  1  0  0.081601  0  0.981566  0  0  0.091444  0  1.047343  0  0  0.093538  0  1.047362  0  0.054575  0  0.092692  0.090044  0  1.047295  0
H  H3  1  0.66662849  0.16602637  0.59069965  1  0  0.083775  0  0.965086  0  0  0.093806  0  1.028173  0  0  0.096128  0  1.028277  0  0.059067  0  0.092655  0.092219  0  1.02816  0
H  H4  1  0.61814845  0.39633990  0.64259864  1  0  0.081961  0  0.968974  0  0  0.092726  0  1.030039  0  0  0.094816  0  1.03023  0  0.064902  0  0.09286  0.090946  0  1.030688  0
H  H5  1  0.41087001  0.45950552  0.74682502  1  0  0.082908  0  0.984531  0  0  0.094474  0  1.046897  0  0  0.097285  0  1.045488  0  0.033051  0  0.095197  0.092125  0  1.04855  0
H  H6  1  0.29607041  0.93646076  0.73653841  1  0  0.08823  0  0.972848  0  0  0.098523  0  1.037081  0  0  0.100459  0  1.03743  0  0.083724  0  0.095854  0.097408  0  1.036386  0
H  H7  1  0.08295272  0.00018568  0.83774496  1  0  0.102788  0  0.967451  0  0  0.114892  0  1.027437  0  0  0.117309  0  1.027147  0  0.096334  0  0.100961  0.11213  0  1.029618  0
H  H8  1  0.85359674  0.16210466  0.84269830  1  0  0.090826  0  0.925262  0  0  0.105455  0  0.983607  0  0  0.107214  0  0.981699  0  0.092143  0  0.112953  0.103667  0  0.986044  0
H  H9  1  0.76307890  0.29066299  0.90493584  1  0  0.092509  0  0.919938  0  0  0.105087  0  0.98303  0  0  0.106608  0  0.981969  0  0.077436  0  0.110924  0.104418  0  0.982939  0
H  H10  1  0.93478379  0.42580552  0.75014192  1  0  0.092532  0  0.963538  0  0  0.103536  0  1.023655  0  0  0.105927  0  1.023864  0  0.09011  0  0.100839  0.10173  0  1.024042  0
H  H11  1  0.68065574  0.59893898  0.72638595  1  0  0.081866  0  0.957603  0  0  0.095498  0  1.014474  0  0  0.098041  0  1.013575  0  0.055683  0  0.09652  0.093223  0  1.016303  0
H  H12  1  0.61158315  0.83127259  0.77943870  1  0  0.090753  0  0.960123  0  0  0.10209  0  1.019528  0  0  0.104639  0  1.019022  0  0.067622  0  0.097943  0.100646  0  1.0197  0
H  H13  1  0.79806321  0.88418842  0.85988852  1  0  0.105178  0  0.968278  0  0  0.114175  0  1.031095  0  0  0.117902  0  1.028751  0  0.085181  0  0.100815  0.11195  0  1.032451  0
H  H14  1  0.29556722  0.63249385  0.95652822  1  0  0.103931  0  0.961361  0  0  0.117524  0  1.016958  0  0  0.120364  0  1.017023  0  0.055864  0  0.10142  0.115189  0  1.018057  0
H  H15  1  0.04437113  0.80842532  0.92732323  1  0  0.10103  0  0.948747  0  0  0.112823  0  1.007302  0  0  0.116114  0  1.005309  0  0.102444  0  0.102942  0.110138  0  1.009834  0
H  H16  1  0.47537388  0.44794529  0.99784174  1  0  0.07635  0  0.953603  0  0  0.083035  0  1.02405  0  0  0.084789  0  1.023078  0  0.05785  0  0.099178  0.081669  0  1.025177  0
H  H17  1  0.54565725  0.26421522  0.98597973  1  0  0.106757  0  0.922069  0  0  0.119164  0  0.982787  0  0  0.120854  0  0.981596  0  0.115304  0  0.117661  0.117964  0  0.98366  0
H  H18  1  0.64993134  0.62947173  0.49962500  1  0  0.088661  0  0.965118  0  0  0.099612  0  1.027936  0  0  0.102659  0  1.026121  0  0.057121  0  0.098868  0.098152  0  1.028023  0
H  H19  1  0.82610521  0.70073474  0.58016310  1  0  0.082376  0  0.959589  0  0  0.093765  0  1.021466  0  0  0.096503  0  1.020568  0  0.03814  0  0.095983  0.092149  0  1.02121  0
H  H20  1  0.08031526  0.53136611  0.61691361  1  0  0.090295  0  0.958303  0  0  0.101173  0  1.018643  0  0  0.103351  0  1.018754  0  0.08032  0  0.099096  0.099724  0  1.018357  0
H  H21  1  0.16321434  0.29501048  0.57327224  1  0  0.096866  0  0.958045  0  0  0.106294  0  1.019697  0  0  0.108542  0  1.020617  0  0.081994  0  0.101222  0.104655  0  1.01938  0
H  H22  1  0.60228680  0.45988755  0.42305615  1  0  0.103497  0  0.989941  0  0  0.113078  0  1.052231  0  0  0.116818  0  1.049497  0  0.137686  0  0.100738  0.10988  0  1.055092  0
H  H23  1  0.68862548  0.23172108  0.37086195  1  0  0.099797  0  0.9648  0  0  0.113064  0  1.023025  0  0  0.116172  0  1.021775  0  0.047274  0  0.100481  0.111042  0  1.023636  0
H  H24  1  0.80656215  0.05703495  0.31360649  1  0  0.075086  0  0.942727  0  0  0.084272  0  1.012254  0  0  0.08589  0  1.011074  0  0.047923  0  0.1032  0.083069  0  1.013121  0
H  H25  1  0.96513490  0.90238087  0.32336630  1  0  0.105449  0  0.896408  0  0  0.121226  0  0.948138  0  0  0.12307  0  0.946842  0  0.102655  0  0.119996  0.119947  0  0.948777  0
H  H26  1  0.94353716  0.01074387  0.58537341  1  0  0.089026  0  0.965544  0  0  0.098803  0  1.028399  0  0  0.10175  0  1.02717  0  0.045653  0  0.097709  0.096568  0  1.029405  0
H  H27  1  0.98505312  0.79601886  0.68812868  1  0  0.08359  0  0.985385  0  0  0.093206  0  1.048483  0  0  0.09458  0  1.050488  0  0.085876  0  0.09473  0.092251  0  1.047022  0
H  H28  1  0.25067568  0.63588732  0.70752803  1  0  0.078171  0  1.000089  0  0  0.085231  0  1.069595  0  0  0.087238  0  1.069974  0  0.046643  0  0.092635  0.0838  0  1.069517  0
H  H29  1  0.47823121  0.68934311  0.62432311  1  0  0.084162  0  0.96596  0  0  0.094813  0  1.031082  0  0  0.097042  0  1.03087  0  0.03999  0  0.096118  0.093424  0  1.030874  0
H  H30  1  0.54365777  0.07396818  0.42116425  1  0  0.102494  0  0.956088  0  0  0.11536  0  1.014372  0  0  0.11831  0  1.013357  0  0.102342  0  0.101524  0.113186  0  1.015264  0
H  H31  1  0.58657347  0.85329711  0.51956470  1  0  0.088942  0  0.96122  0  0  0.103496  0  1.01812  0  0  0.105997  0  1.016788  0  0.060279  0  0.100855  0.10202  0  1.018122  0
H  H32  1  0.42074607  0.32967837  0.44561577  1  0  0.086037  0  0.941691  0  0  0.099849  0  1.005665  0  0  0.100599  0  1.005623  0  0.073762  0  0.109098  0.098788  0  1.006676  0
H  H33  1  0.23089098  0.44575553  0.43302616  1  0  0.088635  0  0.933835  0  0  0.099968  0  0.995906  0  0  0.102033  0  0.99433  0  0.094925  0  0.105432  0.098888  0  0.996553  0
H  H34  1  0.79980501  0.26445426  0.18881943  1  0  0.072008  0  0.965964  0  0  0.082659  0  1.028256  0  0  0.084044  0  1.027714  0  0.077875  0  0.114739  0.08176  0  1.028479  0
H  H35  1  0.57529738  0.47606525  0.19105617  1  0  0.13015  0  0.981988  0  0  0.135536  0  1.045951  0  0  0.140332  0  1.042897  0  0.170113  0  0.110668  0.132183  0  1.048179  0
H  H36  1  0.75304901  0.64432833  0.96002474  1  0  0.102046  0  0.998567  0  0  0.111522  0  1.060646  0  0  0.113444  0  1.062176  0  0.115857  0  0.10435  0.110344  0  1.059564  0
H  H37  1  0.97457019  0.42760684  0.97067235  1  0  0.085204  0  0.995155  0  0  0.084806  0  1.072755  0  0  0.087006  0  1.071814  0  0.14531  0  0.115863  0.083287  0  1.073291  0
H  H38  1  0.36496034  0.61703219  0.16482825  1  0  0.126251  0  0.963775  0  0  0.131944  0  1.029116  0  0  0.136268  0  1.026599  0  0.140553  0  0.111801  0.129016  0  1.03057  0
H  H39  1  0.15240306  0.84264288  0.16018482  1  0  0.081946  0  0.958632  0  0  0.09132  0  1.020112  0  0  0.093464  0  1.019089  0  0.124139  0  0.114688  0.089701  0  1.021061  0
H  H40  1  0.38951640  0.05333520  0.98097874  1  0  0.097693  0  0.933969  0  0  0.107836  0  0.990434  0  0  0.110081  0  0.989156  0  0.1428  0  0.1242  0.106129  0  0.991657  0
H  H41  1  0.61535727  0.84416567  0.98050576  1  0  0.123631  0  0.970665  0  0  0.131746  0  1.03328  0  0  0.13529  0  1.031328  0  0.144441  0  0.111333  0.129529  0  1.034381  0
H  H42  1  0.31996967  0.96497770  0.31027227  1  0  0.089069  0  0.933364  0  0  0.100685  0  0.987978  0  0  0.102473  0  0.987271  0  0.122092  0  0.121704  0.099561  0  0.988255  0
H  H43  1  0.52851916  0.73987390  0.30546195  1  0  0.134314  0  0.969923  0  0  0.142755  0  1.031538  0  0  0.146928  0  1.028814  0  0.174699  0  0.111242  0.139405  0  1.034263  0
H  H44  1  0.79361725  0.98472602  0.14042288  1  0  0.126922  0  0.974733  0  0  0.130379  0  1.044704  0  0  0.135108  0  1.041288  0  0.153314  0  0.108431  0.127185  0  1.046924  0
H  H45  1  0.56950386  0.19730931  0.15085889  1  0  0.080989  0  0.964815  0  0  0.09006  0  1.027579  0  0  0.091846  0  1.027208  0  0.117895  0  0.116008  0.088658  0  1.028039  0
H  H46  1  0.77045711  0.62376685  0.34626049  1  0  0.108565  0  0.969071  0  0  0.118928  0  1.030458  0  0  0.121154  0  1.030869  0  0.100777  0  0.109229  0.117402  0  1.030216  0
H  H47  1  0.99400533  0.40797590  0.34159452  1  0  0.086037  0  0.971196  0  0  0.089277  0  1.043495  0  0  0.09093  0  1.043206  0  0.138948  0  0.116187  0.088125  0  1.043751  0
H  H48  1  0.12202683  0.54903460  0.10919168  1  0  0.079968  0  0.956831  0  0  0.088032  0  1.022569  0  0  0.089702  0  1.02221  0  0.124345  0  0.115232  0.087111  0  1.022251  0
H  H49  1  0.90318741  0.77124541  0.10282252  1  0  0.124671  0  0.935841  0  0  0.133429  0  0.996637  0  0  0.137513  0  0.994405  0  0.137494  0  0.114933  0.130604  0  0.998269  0
C  C50  1  0.48668725  0.09909165  0.66789148  1  0  -0.116561  0  3.770254  0  0  -0.134201  0  4.017069  0  0  -0.135906  0  4.039003  0  -0.067696  0  -0.095882  -0.133308  0  4.002097  0
C  C51  1  0.57517605  0.19238450  0.63719315  1  0  -0.084319  0  3.80918  0  0  -0.098987  0  4.058785  0  0  -0.101609  0  4.080936  0  -0.086164  0  -0.104566  -0.097022  0  4.044533  0
C  C52  1  0.54653120  0.32355410  0.66619909  1  0  -0.073049  0  3.79716  0  0  -0.082478  0  4.0426  0  0  -0.083619  0  4.064112  0  -0.036178  0  -0.099986  -0.081884  0  4.028784  0
C  C53  1  0.42905440  0.35980881  0.72374952  1  0  -0.112896  0  3.753916  0  0  -0.137856  0  4.008221  0  0  -0.140269  0  4.028356  0  -0.032936  0  -0.097873  -0.135702  0  3.993197  0
C  C54  1  0.33197124  0.26855844  0.75486067  1  0  0.045346  0  3.74077  0  0  0.055108  0  3.970644  0  0  0.056319  0  3.993943  0  -0.021096  0  -0.003082  0.054484  0  3.95474  0
C  C55  1  0.36416108  0.13381715  0.72665359  1  0  0.041996  0  3.802796  0  0  0.05892  0  4.028408  0  0  0.056996  0  4.052955  0  0.03282  0  -0.015011  0.06067  0  4.011214  0
C  C56  1  0.27158383  0.03901111  0.75765062  1  0  -0.087359  0  3.77397  0  0  -0.108163  0  4.023859  0  0  -0.10753  0  4.044127  0  -0.066852  0  -0.090957  -0.109071  0  4.008819  0
C  C57  1  0.15144740  0.07511108  0.81358872  1  0  -0.187794  0  3.797503  0  0  -0.208659  0  4.052569  0  0  -0.214037  0  4.073344  0  -0.048621  0  -0.108813  -0.203841  0  4.038706  0
C  C58  1  0.11721419  0.20933161  0.83992352  1  0  0.231708  0  3.781979  0  0  0.214122  0  4.050614  0  0  0.224434  0  4.065656  0  0.436125  0  0.083658  0.207741  0  4.040169  0
C  C59  1  0.20373558  0.30719605  0.81113606  1  0  -0.072022  0  3.725694  0  0  -0.073593  0  3.976923  0  0  -0.076278  0  3.998266  0  0.043949  0  -0.017994  -0.072999  0  3.96357  0
C  C60  1  0.86324405  0.19768601  0.89889587  1  0  -0.074592  0  3.636061  0  0  -0.136598  0  3.903466  0  0  -0.132448  0  3.903156  0  0.382709  0  -0.070819  -0.13947  0  3.902899  0
C  C61  1  0.84799019  0.07923981  0.96786901  1  0  0.648411  0  3.931192  0  0  0.600621  0  4.243389  0  0  0.632757  0  4.236455  0  1.59855  0  0.191058  0.578902  0  4.247875  0
C  C62  1  0.90514848  0.52517355  0.77483736  1  0  -0.107493  0  3.742278  0  0  -0.131546  0  3.996501  0  0  -0.133987  0  4.017526  0  -0.127313  0  -0.092703  -0.129573  0  3.98125  0
C  C63  1  0.76290855  0.62300812  0.76123824  1  0  -0.074207  0  3.79678  0  0  -0.085426  0  4.045975  0  0  -0.08681  0  4.067066  0  0.024018  0  -0.096386  -0.08416  0  4.033257  0
C  C64  1  0.72359245  0.75412223  0.79119507  1  0  -0.084477  0  3.798127  0  0  -0.099233  0  4.047775  0  0  -0.101017  0  4.068131  0  -0.113897  0  -0.100127  -0.099033  0  4.03558  0
C  C65  1  0.82778494  0.78427722  0.83537705  1  0  -0.124956  0  3.747138  0  0  -0.141083  0  3.994264  0  0  -0.142292  0  4.012525  0  -0.03298  0  -0.093724  -0.140979  0  3.982243  0
C  C66  1  0.97353907  0.68409176  0.85212284  1  0  0.038205  0  3.80223  0  0  0.052921  0  4.03288  0  0  0.051251  0  4.057492  0  0.00566  0  -0.015211  0.054282  0  4.016564  0
C  C67  1  0.01490402  0.55145059  0.82077410  1  0  0.027209  0  3.744069  0  0  0.038864  0  3.974546  0  0  0.039566  0  3.997813  0  -0.067614  0  -0.003761  0.039499  0  3.95695  0
C  C68  1  0.16023088  0.44867947  0.83888821  1  0  -0.068997  0  3.726623  0  0  -0.069081  0  3.974979  0  0  -0.071537  0  3.995984  0  0.082506  0  -0.013775  -0.066655  0  3.959511  0
C  C69  1  0.25814201  0.48067206  0.88704631  1  0  0.221817  0  3.786126  0  0  0.207084  0  4.053405  0  0  0.216902  0  4.068716  0  0.44226  0  0.08025  0.20046  0  4.043884  0
C  C70  1  0.21699608  0.61081508  0.91853840  1  0  -0.18405  0  3.781556  0  0  -0.202439  0  4.032349  0  0  -0.207468  0  4.052385  0  -0.03388  0  -0.107271  -0.199739  0  4.021455  0
C  C71  1  0.07750945  0.70984376  0.90151160  1  0  -0.088646  0  3.754296  0  0  -0.108732  0  4.004846  0  0  -0.108227  0  4.023821  0  -0.108671  0  -0.089054  -0.110092  0  3.994006  0
C  C72  1  0.44243160  0.35670986  0.98269039  1  0  -0.072121  0  3.632174  0  0  -0.127861  0  3.898849  0  0  -0.124459  0  3.897893  0  0.394892  0  -0.068928  -0.1303  0  3.899079  0
C  C73  1  0.31909848  0.31675221  0.04441721  1  0  0.677408  0  3.86755  0  0  0.619498  0  4.179348  0  0  0.653549  0  4.170596  0  1.602803  0  0.214639  0.596697  0  4.184109  0
C  C74  1  0.76326113  0.55800704  0.51548919  1  0  -0.132653  0  3.780419  0  0  -0.151264  0  4.033327  0  0  -0.15309  0  4.053864  0  -0.080903  0  -0.097442  -0.150141  0  4.018316  0
C  C75  1  0.86011451  0.59688048  0.56005065  1  0  -0.082904  0  3.813936  0  0  -0.102298  0  4.07302  0  0  -0.104481  0  4.094741  0  -0.070171  0  -0.100615  -0.100362  0  4.05626  0
C  C76  1  0.00509214  0.50062207  0.58091135  1  0  -0.060914  0  3.777215  0  0  -0.072197  0  4.023675  0  0  -0.072737  0  4.044097  0  -0.021468  0  -0.090392  -0.071107  0  4.009143  0
C  C77  1  0.05198294  0.36873963  0.55608827  1  0  -0.113563  0  3.734354  0  0  -0.131345  0  3.979446  0  0  -0.134214  0  3.999862  0  -0.077333  0  -0.092141  -0.129768  0  3.965543  0
C  C78  1  0.95750626  0.32780448  0.50729008  1  0  0.031835  0  3.76071  0  0  0.042148  0  3.988904  0  0  0.042939  0  4.01275  0  0.007233  0  -0.005398  0.042567  0  3.972063  0
C  C79  1  0.80888971  0.42386441  0.48802507  1  0  0.039952  0  3.815473  0  0  0.05617  0  4.043066  0  0  0.054266  0  4.06813  0  -0.019387  0  -0.016858  0.057259  0  4.025721  0
C  C80  1  0.71374482  0.38509981  0.43929240  1  0  -0.102111  0  3.765987  0  0  -0.123028  0  4.018358  0  0  -0.122728  0  4.037813  0  -0.105966  0  -0.092761  -0.122304  0  4.005581  0
C  C81  1  0.76265540  0.25772600  0.40959164  1  0  -0.191345  0  3.78711  0  0  -0.213863  0  4.049718  0  0  -0.219576  0  4.070183  0  -0.005697  0  -0.108935  -0.210894  0  4.037107  0
C  C82  1  0.90961179  0.16304053  0.42803703  1  0  0.232327  0  3.790337  0  0  0.214576  0  4.063007  0  0  0.225535  0  4.077237  0  0.460574  0  0.080999  0.205803  0  4.055018  0
C  C83  1  0.00722422  0.19742990  0.47526908  1  0  -0.07712  0  3.760189  0  0  -0.076063  0  4.007137  0  0  -0.079361  0  4.028247  0  0.000433  0  -0.016891  -0.074598  0  3.993959  0
C  C84  1  0.93121710  0.01744439  0.32583699  1  0  -0.057751  0  3.63777  0  0  -0.114785  0  3.904271  0  0  -0.111305  0  3.903687  0  0.41941  0  -0.063456  -0.117402  0  3.904728  0
C  C85  1  0.02444945  0.09046923  0.25946635  1  0  0.671278  0  3.874233  0  0  0.615091  0  4.187751  0  0  0.64921  0  4.178705  0  1.603665  0  0.213629  0.592116  0  4.192889  0
C  C86  1  0.06018169  0.94006126  0.59379894  1  0  -0.102476  0  3.736745  0  0  -0.123519  0  3.983465  0  0  -0.125443  0  4.003239  0  -0.04413  0  -0.090259  -0.121918  0  3.969791  0
C  C87  1  0.08340075  0.82044015  0.65085728  1  0  -0.067759  0  3.781743  0  0  -0.078505  0  4.027797  0  0  -0.080514  0  4.049982  0  -0.077729  0  -0.093533  -0.077101  0  4.012963  0
C  C88  1  0.23497804  0.72960276  0.66196355  1  0  -0.074569  0  3.795731  0  0  -0.090132  0  4.047733  0  0  -0.091627  0  4.069022  0  -0.028374  0  -0.098466  -0.089528  0  4.0339  0
C  C89  1  0.36115083  0.75974281  0.61589417  1  0  -0.126172  0  3.757989  0  0  -0.142619  0  4.002453  0  0  -0.145396  0  4.023863  0  -0.025063  0  -0.093915  -0.140752  0  3.988071  0
C  C90  1  0.34148108  0.88320559  0.55723481  1  0  0.049681  0  3.805509  0  0  0.065391  0  4.031844  0  0  0.064465  0  4.056857  0  -0.021889  0  -0.01078  0.066104  0  4.014946  0
C  C91  1  0.18737543  0.97501513  0.54588291  1  0  0.041416  0  3.742004  0  0  0.051491  0  3.969564  0  0  0.051616  0  3.992992  0  0.005328  0  -0.001182  0.051104  0  3.953685  0
C  C92  1  0.16522305  0.10128460  0.48855914  1  0  -0.04929  0  3.747313  0  0  -0.049759  0  3.992244  0  0  -0.050629  0  4.012926  0  0.042072  0  -0.007815  -0.04918  0  3.978623  0
C  C93  1  0.29345978  0.13475943  0.44545334  1  0  0.220068  0  3.767456  0  0  0.204964  0  4.038536  0  0  0.212577  0  4.054653  0  0.46979  0  0.079723  0.199664  0  4.027942  0
C  C94  1  0.44577081  0.04473840  0.45652149  1  0  -0.168821  0  3.79647  0  0  -0.193037  0  4.059358  0  0  -0.197046  0  4.080409  0  -0.090177  0  -0.1028  -0.190517  0  4.045532  0
C  C95  1  0.46877344  0.92158922  0.51092955  1  0  -0.10155  0  3.777573  0  0  -0.121092  0  4.027124  0  0  -0.12199  0  4.047273  0  -0.055315  0  -0.090336  -0.120587  0  4.012997  0
C  C96  1  0.32629580  0.37044277  0.40424490  1  0  -0.07976  0  3.628744  0  0  -0.13847  0  3.890116  0  0  -0.134819  0  3.889126  0  0.357487  0  -0.074387  -0.140701  0  3.890448  0
C  C97  1  0.38653488  0.45037194  0.32852859  1  0  0.654217  0  3.914957  0  0  0.607368  0  4.220602  0  0  0.639661  0  4.213487  0  1.60391  0  0.192491  0.585498  0  4.224507  0
C  C98  1  0.78589983  0.35230368  0.13975701  1  0  0.131002  0  3.712079  0  0  0.101013  0  3.960617  0  0  0.107701  0  3.980439  0  0.455093  0  0.042799  0.096816  0  3.946822  0
C  C99  1  0.66008754  0.47172843  0.14040712  1  0  -0.14829  0  3.670401  0  0  -0.167809  0  3.920254  0  0  -0.174969  0  3.939396  0  -0.036848  0  -0.078753  -0.163248  0  3.90695  0
C  C100  1  0.64334817  0.58120433  0.07501012  1  0  0.090313  0  3.768518  0  0  0.102941  0  3.998024  0  0  0.107239  0  4.018765  0  -0.030266  0  0.012187  0.10012  0  3.983315  0
C  C101  1  0.75882981  0.56449306  0.01291942  1  0  -0.158737  0  3.698662  0  0  -0.175536  0  3.940882  0  0  -0.18359  0  3.963311  0  -0.000479  0  -0.081417  -0.169787  0  3.925336  0
C  C102  1  0.88314048  0.44303328  0.01784082  1  0  0.132071  0  3.694686  0  0  0.100512  0  3.947865  0  0  0.107044  0  3.967453  0  0.423822  0  0.043933  0.096188  0  3.934327  0
C  C103  1  0.51007688  0.70926858  0.07212928  1  0  0.086858  0  3.761767  0  0  0.097345  0  3.993437  0  0  0.100331  0  4.015737  0  -0.053782  0  0.01069  0.095933  0  3.977773  0
C  C104  1  0.37590579  0.71096852  0.12287660  1  0  -0.155747  0  3.682819  0  0  -0.17401  0  3.933716  0  0  -0.181384  0  3.954309  0  -0.003831  0  -0.080016  -0.168701  0  3.918613  0
C  C105  1  0.25659466  0.83602453  0.12056833  1  0  0.129215  0  3.705342  0  0  0.098313  0  3.952785  0  0  0.1045  0  3.972537  0  0.429635  0  0.043439  0.094538  0  3.938799  0
C  C106  1  0.38874048  0.95457424  0.02066824  1  0  0.139002  0  3.68264  0  0  0.108751  0  3.927515  0  0  0.11504  0  3.94686  0  0.463537  0  0.050545  0.104629  0  3.913933  0
C  C107  1  0.51403214  0.83445905  0.01970572  1  0  -0.147813  0  3.681426  0  0  -0.165639  0  3.925494  0  0  -0.172591  0  3.946062  0  -0.015501  0  -0.077442  -0.160767  0  3.911036  0
C  C108  1  0.42723748  0.96442172  0.27379576  1  0  0.137813  0  3.697815  0  0  0.106498  0  3.950205  0  0  0.112909  0  3.969893  0  0.453027  0  0.047622  0.102072  0  3.936348  0
C  C109  1  0.54649879  0.83957274  0.27232360  1  0  -0.157747  0  3.674454  0  0  -0.175245  0  3.918069  0  0  -0.182743  0  3.938856  0  -0.069197  0  -0.077061  -0.170126  0  3.90446  0
C  C110  1  0.68329180  0.84383486  0.22492417  1  0  0.091206  0  3.757396  0  0  0.102592  0  3.988622  0  0  0.105932  0  4.010953  0  -0.019574  0  0.011753  0.100283  0  3.973715  0
C  C111  1  0.69154622  0.97434604  0.17917599  1  0  -0.150669  0  3.68738  0  0  -0.170571  0  3.940055  0  0  -0.177252  0  3.959365  0  -0.007279  0  -0.079609  -0.166133  0  3.926861  0
C  C112  1  0.56727667  0.09374212  0.18465985  1  0  0.123866  0  3.702021  0  0  0.094275  0  3.949756  0  0  0.100244  0  3.96943  0  0.435164  0  0.040565  0.090538  0  3.936254  0
C  C113  1  0.81579640  0.71567777  0.22432498  1  0  0.098914  0  3.757161  0  0  0.109291  0  3.988812  0  0  0.113137  0  4.010585  0  -0.041352  0  0.01555  0.106871  0  3.973974  0
C  C114  1  0.84422549  0.61149911  0.29196708  1  0  -0.154191  0  3.695425  0  0  -0.171537  0  3.937416  0  0  -0.179344  0  3.959837  0  0.013542  0  -0.077973  -0.166373  0  3.922198  0
C  C115  1  0.96919194  0.49126867  0.29016978  1  0  0.134472  0  3.687022  0  0  0.105708  0  3.932711  0  0  0.111986  0  3.952907  0  0.466933  0  0.048055  0.101544  0  3.918873  0
C  C116  1  0.04064794  0.57039536  0.16021774  1  0  0.134578  0  3.702607  0  0  0.102079  0  3.955813  0  0  0.108901  0  3.975215  0  0.452206  0  0.04671  0.0979  0  3.941315  0
C  C117  1  0.91866108  0.69390190  0.15723166  1  0  -0.156866  0  3.686116  0  0  -0.174127  0  3.935765  0  0  -0.181538  0  3.956189  0  -0.05461  0  -0.07689  -0.168814  0  3.921169  0
N  N118  1  0.89609486  0.33632339  0.07976870  1  0  -0.338267  0  3.279227  0  0  -0.255872  0  3.547293  0  0  -0.275385  0  3.563637  0  -1.238739  0  -0.325042  -0.242271  0  3.535708  0
N  N119  1  0.26252760  0.95685256  0.07108512  1  0  -0.325715  0  3.273041  0  0  -0.244238  0  3.539036  0  0  -0.263217  0  3.555706  0  -1.247166  0  -0.322512  -0.230783  0  3.527191  0
N  N120  1  0.43686352  0.09029208  0.23126765  1  0  -0.333777  0  3.287278  0  0  -0.255015  0  3.560397  0  0  -0.27395  0  3.576634  0  -1.252459  0  -0.32504  -0.241604  0  3.548999  0
N  N121  1  0.06585030  0.47004023  0.22517837  1  0  -0.324629  0  3.26845  0  0  -0.243803  0  3.532166  0  0  -0.262688  0  3.548801  0  -1.243831  0  -0.321506  -0.230527  0  3.52038  0
O  O122  1  0.99960880  0.24780701  0.89663917  1  0  -0.283964  0  2.415415  0  0  -0.207132  0  2.654429  0  0  -0.224536  0  2.658154  0  -1.088798  0  -0.181738  -0.195304  0  2.651621  0
O  O123  1  0.94228784  0.04486218  0.02433745  1  0  -0.669472  0  2.071413  0  0  -0.599564  0  2.350479  0  0  -0.62859  0  2.335467  0  -1.205815  0  -0.341546  -0.579871  0  2.360832  0
O  O124  1  0.73951093  0.02374686  0.96437323  1  0  -0.617967  0  1.892132  0  0  -0.578144  0  2.117732  0  0  -0.601743  0  2.109952  0  -1.187658  0  -0.335362  -0.563042  0  2.123209  0
O  O125  1  0.39685317  0.37973641  0.90313907  1  0  -0.26096  0  2.342696  0  0  -0.196101  0  2.577762  0  0  -0.211481  0  2.578873  0  -1.066749  0  -0.185229  -0.184939  0  2.576347  0
O  O126  1  0.22428947  0.25969912  0.02167266  1  0  -0.628891  0  2.140068  0  0  -0.56235  0  2.426352  0  0  -0.589531  0  2.411463  0  -1.186865  0  -0.30391  -0.543774  0  2.435547  0
O  O127  1  0.32762439  0.34334298  0.11337138  1  0  -0.641536  0  2.112382  0  0  -0.573809  0  2.394168  0  0  -0.600941  0  2.379445  0  -1.19275  0  -0.314769  -0.555123  0  2.403184  0
O  O128  1  0.96129958  0.03119437  0.40355041  1  0  -0.263509  0  2.345674  0  0  -0.197503  0  2.579573  0  0  -0.213079  0  2.58051  0  -1.076803  0  -0.187319  -0.186026  0  2.577254  0
O  O129  1  0.01487201  0.06255628  0.19071256  1  0  -0.648843  0  2.102718  0  0  -0.582015  0  2.385862  0  0  -0.609749  0  2.371039  0  -1.19319  0  -0.314899  -0.563174  0  2.394882  0
O  O130  1  0.09838478  0.17020845  0.27856161  1  0  -0.624989  0  2.148172  0  0  -0.562398  0  2.435609  0  0  -0.589584  0  2.422093  0  -1.186505  0  -0.302079  -0.543877  0  2.444325  0
O  O131  1  0.27065098  0.25517662  0.38774904  1  0  -0.307648  0  2.382105  0  0  -0.23512  0  2.633174  0  0  -0.250578  0  2.633871  0  -1.085469  0  -0.194332  -0.224148  0  2.632746  0
O  O132  1  0.39366666  0.40168303  0.26277906  1  0  -0.660635  0  2.087516  0  0  -0.588558  0  2.355639  0  0  -0.617734  0  2.342472  0  -1.186088  0  -0.333846  -0.568479  0  2.364435  0
O  O133  1  0.42830619  0.55796755  0.33611203  1  0  -0.60837  0  1.886552  0  0  -0.569061  0  2.101644  0  0  -0.591676  0  2.092855  0  -1.189476  0  -0.336044  -0.553576  0  2.107804  0
