# generated using pymatgen
data_ZnPH5C5NO4
_symmetry_space_group_name_H-M   'P 1'
_cell_length_a   7.70570926
_cell_length_b   9.44904522
_cell_length_c   12.60816992
_cell_angle_alpha   112.03007714
_cell_angle_beta   91.12289830
_cell_angle_gamma   90.09549114
_symmetry_Int_Tables_number   1
_chemical_formula_structural   ZnPH5C5NO4
_chemical_formula_sum   'Zn4 P4 H20 C20 N4 O16'
_cell_volume   850.78987616
_cell_formula_units_Z   4
loop_
 _symmetry_equiv_pos_site_id
 _symmetry_equiv_pos_as_xyz
  1  'x, y, z'
loop_
 _atom_site_type_symbol
 _atom_site_label
 _atom_site_symmetry_multiplicity
 _atom_site_fract_x
 _atom_site_fract_y
 _atom_site_fract_z
 _atom_site_occupancy
 _atom_site_pbe_bader_charge
 _atom_site_pbe_bader_spin_density
 _atom_site_pbe_cm5_charge
 _atom_site_pbe_ddec_charge
 _atom_site_pbe_ddec_spin_density
 _atom_site_pbe_ddec_sum_bond_order
 _atom_site_pbe_magmom
Zn  Zn0  1  0.95468380  0.16644273  0.42936301  1  1.309205  0  0.726429  0.949997  0  2.344008  0
Zn  Zn1  1  0.54610692  0.73683555  0.57035282  1  1.307619  0  0.726274  0.94881  0  2.345269  0
Zn  Zn2  1  0.04531702  0.83355850  0.57063649  1  1.309297  0  0.726459  0.950093  0  2.344014  0
Zn  Zn3  1  0.45389517  0.26316698  0.42964252  1  1.307579  0  0.726302  0.9489  0  2.345068  0
P  P4  1  0.75816093  0.45012320  0.57112059  1  3.658526  0  0.401021  1.532934  0  5.443546  0
P  P5  1  0.74245861  0.87816926  0.42824535  1  3.66488  0  0.400831  1.532922  0  5.442588  0
P  P6  1  0.24184119  0.54988203  0.42887935  1  3.658463  0  0.401025  1.532957  0  5.443366  0
P  P7  1  0.25753961  0.12183755  0.57175494  1  3.665463  0  0.400886  1.533064  0  5.442434  0
H  H8  1  0.96279466  0.35570628  0.64752904  1  0.660299  0  0.306302  0.403642  0  0.926164  0
H  H9  1  0.09140899  0.86613462  0.27880893  1  0.13193  0  0.128427  0.109814  0  0.990143  0
H  H10  1  0.22890191  0.75665208  0.08894173  1  0.054349  0  0.114195  0.122254  0  0.990873  0
H  H11  1  0.16241471  0.19728199  0.06143691  1  0.099622  0  0.111218  0.117714  0  0.998883  0
H  H12  1  0.03690044  0.28913246  0.25403087  1  0.189874  0  0.127316  0.110432  0  1.00472  0
H  H13  1  0.53738866  0.70700219  0.35215745  1  0.666802  0  0.306526  0.404308  0  0.925175  0
H  H14  1  0.40971924  0.58729211  0.72106772  1  0.166659  0  0.128409  0.109349  0  0.991162  0
H  H15  1  0.27203315  0.66747657  0.91085136  1  0.078868  0  0.114031  0.122293  0  0.9903  0
H  H16  1  0.33752477  0.13581275  0.93783745  1  0.111474  0  0.111725  0.118178  0  0.998928  0
H  H17  1  0.46360341  0.03514844  0.74547148  1  0.164095  0  0.127423  0.110932  0  1.003825  0
H  H18  1  0.03721527  0.64430554  0.35247373  1  0.660509  0  0.30629  0.403659  0  0.926182  0
H  H19  1  0.90857622  0.13384774  0.72118295  1  0.131552  0  0.128437  0.109823  0  0.990226  0
H  H20  1  0.77109630  0.24335296  0.91105588  1  0.054475  0  0.114114  0.122127  0  0.990757  0
H  H21  1  0.83758733  0.80271600  0.93855001  1  0.099732  0  0.111204  0.117694  0  0.999022  0
H  H22  1  0.96308743  0.71087612  0.74597313  1  0.18996  0  0.127224  0.110185  0  1.004517  0
H  H23  1  0.46261860  0.29299531  0.64783333  1  0.666684  0  0.306492  0.404255  0  0.92523  0
H  H24  1  0.59033236  0.41271516  0.27895679  1  0.166836  0  0.128324  0.109194  0  0.991157  0
H  H25  1  0.72801190  0.33251328  0.08916261  1  0.078968  0  0.114036  0.122468  0  0.990432  0
H  H26  1  0.66242921  0.86415653  0.06214022  1  0.11118  0  0.111723  0.118198  0  0.998776  0
H  H27  1  0.53637267  0.96483584  0.25451461  1  0.16418  0  0.127369  0.110801  0  1.003941  0
C  C28  1  0.11079016  0.93465791  0.22694673  1  0.450075  0  0.06271  0.11813  0  3.900817  0
C  C29  1  0.18582503  0.87465799  0.12004058  1  0.053657  0  -0.080062  -0.179061  0  3.937716  0
C  C30  1  0.20971205  0.96766183  0.05660159  1  -0.033908  0  0.010814  0.093024  0  4.001854  0
C  C31  1  0.15241030  0.11874742  0.10583749  1  -0.096704  0  -0.080715  -0.172511  0  3.939197  0
C  C32  1  0.07922292  0.17158238  0.21326244  1  0.537659  0  0.059979  0.121346  0  3.910792  0
C  C33  1  0.39006308  0.70765248  0.77285659  1  0.493684  0  0.062355  0.118263  0  3.902221  0
C  C34  1  0.31498119  0.75449455  0.87971672  1  0.006664  0  -0.080078  -0.178817  0  3.938092  0
C  C35  1  0.29107973  0.91095496  0.94307819  1  -0.07801  0  0.011586  0.093567  0  4.000463  0
C  C36  1  0.34794244  0.01289506  0.89368066  1  -0.140392  0  -0.081357  -0.172658  0  3.938085  0
C  C37  1  0.42123638  0.95833897  0.78631032  1  0.544253  0  0.060166  0.121145  0  3.910968  0
C  C38  1  0.88920161  0.06535478  0.77305889  1  0.450056  0  0.062625  0.118055  0  3.900693  0
C  C39  1  0.81417714  0.12532699  0.87996446  1  0.053961  0  -0.080009  -0.179043  0  3.938019  0
C  C40  1  0.79027065  0.03234380  0.94340612  1  -0.033878  0  0.010934  0.09324  0  4.001712  0
C  C41  1  0.84758665  0.88125639  0.89416542  1  -0.096896  0  -0.080727  -0.172485  0  3.939224  0
C  C42  1  0.92076625  0.82844541  0.78674407  1  0.537303  0  0.060033  0.121442  0  3.910892  0
C  C43  1  0.60995342  0.29233393  0.22715625  1  0.493705  0  0.062593  0.118458  0  3.901983  0
C  C44  1  0.68504170  0.24550770  0.12028381  1  0.006864  0  -0.080095  -0.178984  0  3.938293  0
C  C45  1  0.70891467  0.08905890  0.05693279  1  -0.078333  0  0.011319  0.093284  0  4.000522  0
C  C46  1  0.65204540  0.98709087  0.10631662  1  -0.140276  0  -0.081189  -0.172621  0  3.937409  0
C  C47  1  0.57874755  0.04163004  0.21368330  1  0.543606  0  0.060401  0.12156  0  3.910723  0
N  N48  1  0.05963372  0.08106706  0.27298713  1  -1.231817  0  -0.323718  -0.228847  0  3.568953  0
N  N49  1  0.44122544  0.80808911  0.72677833  1  -1.233477  0  -0.323685  -0.228853  0  3.566871  0
N  N50  1  0.94035016  0.91892764  0.72699992  1  -1.231471  0  -0.323654  -0.228686  0  3.568587  0
N  N51  1  0.55877660  0.19187686  0.27320405  1  -1.232961  0  -0.323963  -0.229092  0  3.566973  0
O  O52  1  0.84365890  0.36155139  0.45656966  1  -1.447161  0  -0.386651  -0.786509  0  2.289194  0
O  O53  1  0.07510461  0.19622759  0.57600431  1  -1.444686  0  -0.383878  -0.818094  0  2.317704  0
O  O54  1  0.74273074  0.62004260  0.59475072  1  -1.443804  0  -0.381874  -0.798552  0  2.363743  0
O  O55  1  0.87403283  0.43852341  0.67489143  1  -1.424816  0  -0.411597  -0.695874  0  2.11781  0
O  O56  1  0.65660008  0.90504409  0.54287182  1  -1.444337  0  -0.386831  -0.786239  0  2.287049  0
O  O57  1  0.42463274  0.61959775  0.42410175  1  -1.44698  0  -0.383422  -0.817804  0  2.318367  0
O  O58  1  0.75855151  0.02387200  0.40389594  1  -1.449999  0  -0.381503  -0.798059  0  2.362014  0
O  O59  1  0.62648764  0.76216429  0.32463077  1  -1.434001  0  -0.412348  -0.697186  0  2.116318  0
O  O60  1  0.15633936  0.63845336  0.54343518  1  -1.446803  0  -0.386622  -0.786489  0  2.28895  0
O  O61  1  0.92491048  0.80380323  0.42399759  1  -1.445038  0  -0.383872  -0.818122  0  2.31764  0
O  O62  1  0.25727270  0.37996772  0.40525386  1  -1.443885  0  -0.381878  -0.798522  0  2.363826  0
O  O63  1  0.12596153  0.56149091  0.32511461  1  -1.425114  0  -0.411622  -0.695969  0  2.117818  0
O  O64  1  0.34340076  0.09496451  0.45713119  1  -1.444355  0  -0.38686  -0.786322  0  2.287054  0
O  O65  1  0.57537975  0.38040095  0.57589443  1  -1.446886  0  -0.383426  -0.817782  0  2.318472  0
O  O66  1  0.24143633  0.97614195  0.59610546  1  -1.450616  0  -0.381537  -0.798128  0  2.362034  0
O  O67  1  0.37352097  0.23783301  0.67536840  1  -1.433973  0  -0.412354  -0.697197  0  2.116184  0
