# generated using pymatgen
data_SrH28C16(NO4)2
_symmetry_space_group_name_H-M   'P 1'
_cell_length_a   10.32463991
_cell_length_b   13.33625353
_cell_length_c   19.60374957
_cell_angle_alpha   89.99988988
_cell_angle_beta   90.00047127
_cell_angle_gamma   113.18492196
_symmetry_Int_Tables_number   1
_chemical_formula_structural   SrH28C16(NO4)2
_chemical_formula_sum   'Sr4 H112 C64 N8 O32'
_cell_volume   2481.28319272
_cell_formula_units_Z   4
loop_
 _symmetry_equiv_pos_site_id
 _symmetry_equiv_pos_as_xyz
  1  'x, y, z'
loop_
 _atom_site_type_symbol
 _atom_site_label
 _atom_site_symmetry_multiplicity
 _atom_site_fract_x
 _atom_site_fract_y
 _atom_site_fract_z
 _atom_site_occupancy
 _atom_site_pbe_bader_charge
 _atom_site_pbe_bader_spin_density
 _atom_site_pbe_cm5_charge
 _atom_site_pbe_ddec_charge
 _atom_site_pbe_ddec_spin_density
 _atom_site_pbe_ddec_sum_bond_order
 _atom_site_pbe_magmom
Sr  Sr0  1  0.09379684  0.68460645  0.77799940  1  1.654105  0  0.949092  1.28212  0  1.673  0
Sr  Sr1  1  0.90620096  0.81539588  0.27799977  1  1.654113  0  0.949104  1.282117  0  1.673031  0
Sr  Sr2  1  0.90620808  0.31539782  0.22200111  1  1.654098  0  0.949145  1.282178  0  1.672961  0
Sr  Sr3  1  0.09379245  0.18460246  0.72200074  1  1.6541  0  0.949089  1.282121  0  1.67299  0
H  H4  1  0.09574629  0.76714721  0.96893171  1  0.039585  0  0.113191  0.089484  0  0.993928  0
H  H5  1  0.90426199  0.73285655  0.46893013  1  0.039516  0  0.113213  0.089502  0  0.993973  0
H  H6  1  0.90426430  0.23285882  0.03107084  1  0.039552  0  0.113192  0.089504  0  0.994006  0
H  H7  1  0.09573888  0.26714118  0.53106936  1  0.039646  0  0.113207  0.089487  0  0.994011  0
H  H8  1  0.15143138  0.67582062  0.01415331  1  0.006866  0  0.091609  0.059699  0  1.011087  0
H  H9  1  0.84857431  0.82418063  0.51415141  1  0.006551  0  0.091614  0.059739  0  1.011078  0
H  H10  1  0.84857537  0.32417725  0.98584567  1  0.006515  0  0.091586  0.059691  0  1.011135  0
H  H11  1  0.15142869  0.17581956  0.48584655  1  0.006875  0  0.091597  0.059667  0  1.011089  0
H  H12  1  0.98537805  0.52309108  0.93556362  1  0.014699  0  0.098033  0.052432  0  1.032945  0
H  H13  1  0.01462203  0.97691079  0.43556201  1  0.014656  0  0.098024  0.05243  0  1.03292  0
H  H14  1  0.01462547  0.47691638  0.06442924  1  0.014654  0  0.098017  0.052367  0  1.032992  0
H  H15  1  0.98537926  0.02308372  0.56443289  1  0.014604  0  0.098006  0.052366  0  1.032972  0
H  H16  1  0.90372245  0.58615160  0.99167104  1  0.026168  0  0.094248  0.0543  0  1.005849  0
H  H17  1  0.09628029  0.91385607  0.49167088  1  0.026194  0  0.094251  0.054303  0  1.00581  0
H  H18  1  0.09628639  0.41385277  0.00832845  1  0.026134  0  0.094215  0.054256  0  1.005822  0
H  H19  1  0.90372075  0.08614407  0.50832657  1  0.026075  0  0.094233  0.054272  0  1.005821  0
H  H20  1  0.70751323  0.53762679  0.91719612  1  0.029999  0  0.095175  0.056097  0  0.98044  0
H  H21  1  0.29249439  0.96237524  0.41719572  1  0.029912  0  0.095198  0.056137  0  0.980339  0
H  H22  1  0.29248923  0.46238870  0.08280592  1  0.029595  0  0.095214  0.056183  0  0.980389  0
H  H23  1  0.70751044  0.03761856  0.58280377  1  0.029783  0  0.095209  0.056182  0  0.980411  0
H  H24  1  0.78695911  0.47785251  0.85601976  1  0.08745  0  0.107211  0.077984  0  0.992111  0
H  H25  1  0.21304954  0.02215224  0.35601958  1  0.087407  0  0.107212  0.077982  0  0.992077  0
H  H26  1  0.21303806  0.52216203  0.14398279  1  0.087211  0  0.107304  0.078124  0  0.992106  0
H  H27  1  0.78695827  0.97783761  0.64397532  1  0.087234  0  0.107318  0.078162  0  0.992064  0
H  H28  1  0.61303835  0.54063829  0.80246429  1  0.047981  0  0.105383  0.072778  0  0.992725  0
H  H29  1  0.38696190  0.95935610  0.30246481  1  0.047979  0  0.105384  0.072746  0  0.99283  0
H  H30  1  0.38695921  0.45937707  0.19753928  1  0.047918  0  0.105372  0.072729  0  0.992709  0
H  H31  1  0.61304052  0.04062234  0.69753570  1  0.04792  0  0.10538  0.072764  0  0.992676  0
H  H32  1  0.71540378  0.67795602  0.83057333  1  0.053287  0  0.10379  0.067455  0  0.974122  0
H  H33  1  0.28459162  0.82204151  0.33057358  1  0.053258  0  0.103821  0.067479  0  0.974069  0
H  H34  1  0.28459945  0.32206109  0.16942820  1  0.053724  0  0.103776  0.067338  0  0.97414  0
H  H35  1  0.71540096  0.17794070  0.66942744  1  0.053378  0  0.103774  0.067318  0  0.974189  0
H  H36  1  0.76501323  0.74029688  0.71337133  1  0.017452  0  0.098744  0.062623  0  0.994819  0
H  H37  1  0.23498035  0.75970281  0.21337094  1  0.017426  0  0.098742  0.062623  0  0.994934  0
H  H38  1  0.23497271  0.25970207  0.28662051  1  0.017423  0  0.098766  0.062664  0  0.99493  0
H  H39  1  0.76501739  0.24029242  0.78662141  1  0.017489  0  0.098719  0.062552  0  0.995021  0
H  H40  1  0.65605234  0.60318601  0.68654774  1  0.131849  0  0.104271  0.093434  0  1.037278  0
H  H41  1  0.34394313  0.89681449  0.18654765  1  0.131832  0  0.10426  0.093505  0  1.037362  0
H  H42  1  0.34394404  0.39680838  0.31344970  1  0.131882  0  0.104279  0.093525  0  1.037358  0
H  H43  1  0.65605479  0.10318316  0.81345082  1  0.131816  0  0.104251  0.093446  0  1.03739  0
H  H44  1  0.85395664  0.58084582  0.63271970  1  0.087773  0  0.119  0.101354  0  0.967389  0
H  H45  1  0.14603690  0.91915856  0.13272026  1  0.088812  0  0.119015  0.101344  0  0.967411  0
H  H46  1  0.14603966  0.41915662  0.36727928  1  0.087772  0  0.119008  0.101365  0  0.967368  0
H  H47  1  0.85396410  0.08084561  0.86727872  1  0.088011  0  0.118993  0.101297  0  0.967428  0
H  H48  1  0.81456889  0.68679184  0.59492933  1  0.018716  0  0.093852  0.061754  0  1.000745  0
H  H49  1  0.18542188  0.81320998  0.09492968  1  0.018919  0  0.093888  0.061812  0  1.000716  0
H  H50  1  0.18542592  0.31320331  0.40506914  1  0.018826  0  0.09386  0.061797  0  1.0007  0
H  H51  1  0.81457421  0.18679406  0.90506930  1  0.018815  0  0.093861  0.061796  0  1.000708  0
H  H52  1  0.19459559  0.79640544  0.59420869  1  0.041876  0  0.111554  0.089944  0  0.973153  0
H  H53  1  0.80539793  0.70359403  0.09420673  1  0.0418  0  0.111535  0.089975  0  0.973134  0
H  H54  1  0.80540131  0.20359621  0.40579029  1  0.041886  0  0.111527  0.089927  0  0.973086  0
H  H55  1  0.19460016  0.29640603  0.90579072  1  0.041836  0  0.111553  0.089975  0  0.973075  0
H  H56  1  0.04504325  0.71529543  0.54503415  1  0.006998  0  0.0956  0.067856  0  1.000405  0
H  H57  1  0.95495022  0.78470556  0.04503426  1  0.007029  0  0.095598  0.067839  0  1.000444  0
H  H58  1  0.95495719  0.28470550  0.45496330  1  0.007073  0  0.095612  0.067857  0  1.000438  0
H  H59  1  0.04504669  0.21529609  0.95496166  1  0.007113  0  0.095629  0.067887  0  1.00041  0
H  H60  1  0.04115288  0.54921988  0.61452351  1  0.052534  0  0.109137  0.071424  0  0.986296  0
H  H61  1  0.95883882  0.95078119  0.11452240  1  0.052361  0  0.109142  0.071462  0  0.986208  0
H  H62  1  0.95884931  0.45078271  0.38547547  1  0.052483  0  0.109115  0.071389  0  0.986311  0
H  H63  1  0.04115770  0.04921964  0.88547811  1  0.052568  0  0.109141  0.071441  0  0.986207  0
H  H64  1  0.19271030  0.61612021  0.56214656  1  0.031907  0  0.100074  0.065031  0  0.9671  0
H  H65  1  0.80727875  0.88387909  0.06214540  1  0.031422  0  0.100115  0.065075  0  0.967029  0
H  H66  1  0.80729091  0.38388236  0.43785446  1  0.031888  0  0.100067  0.065027  0  0.967077  0
H  H67  1  0.19271499  0.11612408  0.93785307  1  0.031865  0  0.100066  0.065002  0  0.967039  0
H  H68  1  0.34948869  0.57021987  0.63124187  1  0.061106  0  0.101818  0.070538  0  0.977513  0
H  H69  1  0.65050252  0.92977961  0.13124304  1  0.061055  0  0.101823  0.070539  0  0.977518  0
H  H70  1  0.65051385  0.42978756  0.36875813  1  0.06111  0  0.101772  0.070499  0  0.977428  0
H  H71  1  0.34948448  0.07021132  0.86876002  1  0.061075  0  0.101782  0.070489  0  0.97745  0
H  H72  1  0.19928733  0.48751865  0.68121164  1  0.1136  0  0.112352  0.087364  0  1.02886  0
H  H73  1  0.80070798  0.01248222  0.18121092  1  0.113635  0  0.112316  0.08734  0  1.028811  0
H  H74  1  0.80071367  0.51248552  0.31878683  1  0.113532  0  0.112348  0.087356  0  1.028792  0
H  H75  1  0.19928153  0.98751199  0.81878755  1  0.113432  0  0.11233  0.087329  0  1.028811  0
H  H76  1  0.42714403  0.54072788  0.74188620  1  0.096187  0  0.105257  0.077929  0  1.028546  0
H  H77  1  0.57285178  0.95927353  0.24188649  1  0.096101  0  0.105283  0.077928  0  1.028568  0
H  H78  1  0.57285385  0.45927379  0.25811227  1  0.096135  0  0.105285  0.077898  0  1.028611  0
H  H79  1  0.42714089  0.04071915  0.75811504  1  0.096321  0  0.10528  0.077914  0  1.028515  0
H  H80  1  0.45788964  0.68335802  0.73306949  1  0.049216  0  0.105501  0.071967  0  0.975926  0
H  H81  1  0.54210897  0.81664345  0.23307136  1  0.049245  0  0.1055  0.07197  0  0.975925  0
H  H82  1  0.54211234  0.31664618  0.26693204  1  0.049283  0  0.105495  0.071978  0  0.975826  0
H  H83  1  0.45788958  0.18334939  0.76693476  1  0.049341  0  0.10552  0.071977  0  0.975823  0
H  H84  1  0.46420926  0.70775650  0.84895548  1  0.061849  0  0.107492  0.074959  0  0.993358  0
H  H85  1  0.53579471  0.79223806  0.34895430  1  0.061862  0  0.107459  0.074921  0  0.993419  0
H  H86  1  0.53580047  0.29223742  0.15104452  1  0.061913  0  0.107471  0.074952  0  0.99341  0
H  H87  1  0.46420590  0.20776529  0.65104927  1  0.061834  0  0.107464  0.07495  0  0.993341  0
H  H88  1  0.42557960  0.56831222  0.86889300  1  0.025232  0  0.096115  0.057305  0  0.983715  0
H  H89  1  0.57441060  0.93168122  0.36889589  1  0.025433  0  0.096122  0.057318  0  0.983698  0
H  H90  1  0.57441111  0.43168041  0.13110802  1  0.025348  0  0.096089  0.057245  0  0.983697  0
H  H91  1  0.42559218  0.06832058  0.63110973  1  0.025152  0  0.096091  0.057231  0  0.983711  0
H  H92  1  0.35021734  0.64489672  0.96406897  1  0.019408  0  0.091535  0.057487  0  0.983579  0
H  H93  1  0.64978505  0.85509882  0.46406922  1  0.019412  0  0.091554  0.057518  0  0.983598  0
H  H94  1  0.64978447  0.35510506  0.03593154  1  0.019435  0  0.091552  0.057493  0  0.983561  0
H  H95  1  0.35022072  0.14489903  0.53593334  1  0.019438  0  0.09152  0.057419  0  0.983566  0
H  H96  1  0.19992646  0.54896031  0.92186556  1  0.038037  0  0.103238  0.068295  0  1.031928  0
H  H97  1  0.80007146  0.95103745  0.42186786  1  0.038112  0  0.103247  0.06833  0  1.031879  0
H  H98  1  0.80007394  0.45104465  0.07813342  1  0.03802  0  0.103237  0.068257  0  1.031996  0
H  H99  1  0.19993196  0.04895954  0.57813367  1  0.03804  0  0.103226  0.068238  0  1.031911  0
H  H100  1  0.95119579  0.86997165  0.61950542  1  0.016464  0  0.089162  0.06152  0  1.049732  0
H  H101  1  0.04880243  0.63003282  0.11950797  1  0.016571  0  0.089147  0.06146  0  1.049755  0
H  H102  1  0.04880030  0.13003239  0.38049560  1  0.01654  0  0.089147  0.061457  0  1.049754  0
H  H103  1  0.95119916  0.36997056  0.88049152  1  0.012477  0  0.089141  0.061471  0  1.049767  0
H  H104  1  0.13094782  0.90543243  0.64148209  1  0.084547  0  0.114523  0.104067  0  1.011658  0
H  H105  1  0.86904825  0.59456880  0.14148258  1  0.084687  0  0.114528  0.104015  0  1.011696  0
H  H106  1  0.86904715  0.09456514  0.35852148  1  0.084925  0  0.114525  0.103993  0  1.011619  0
H  H107  1  0.13094980  0.40543529  0.85851844  1  0.084715  0  0.114535  0.104035  0  1.011666  0
H  H108  1  0.41336021  0.83048248  0.95167952  1  0.027174  0  0.092078  0.080511  0  0.997421  0
H  H109  1  0.58664573  0.66951071  0.45167667  1  0.027378  0  0.092161  0.080608  0  0.997357  0
H  H110  1  0.58665103  0.16951873  0.04832201  1  0.027457  0  0.092118  0.080549  0  0.997387  0
H  H111  1  0.41334942  0.33048928  0.54832282  1  0.027503  0  0.092135  0.080586  0  0.997398  0
H  H112  1  0.27997612  0.87732116  0.93056488  1  0.060975  0  0.112263  0.104374  0  0.983128  0
H  H113  1  0.72003897  0.62268190  0.43056215  1  0.060895  0  0.112243  0.104332  0  0.983173  0
H  H114  1  0.72003584  0.12268571  0.06944022  1  0.061014  0  0.112226  0.10433  0  0.983053  0
H  H115  1  0.27996326  0.37731667  0.56944295  1  0.060998  0  0.112253  0.104363  0  0.983082  0
C  C116  1  0.11472834  0.69203096  0.96371392  1  0.313354  0  -0.067721  -0.103371  0  3.967161  0
C  C117  1  0.88528357  0.80797449  0.46371267  1  0.313698  0  -0.067745  -0.103555  0  3.967382  0
C  C118  1  0.88527914  0.30797257  0.03628608  1  0.31357  0  -0.067689  -0.103514  0  3.967471  0
C  C119  1  0.11472314  0.19202741  0.53628631  1  0.313145  0  -0.067664  -0.103324  0  3.967285  0
C  C120  1  0.97459057  0.60056665  0.94711542  1  0.450018  0  -0.068881  -0.002205  0  3.955635  0
C  C121  1  0.02541713  0.89943866  0.44711344  1  0.450112  0  -0.068914  -0.002254  0  3.95572  0
C  C122  1  0.02541256  0.39943999  0.05288152  1  0.450239  0  -0.068855  -0.00208  0  3.955608  0
C  C123  1  0.97458766  0.10055917  0.55288299  1  0.450427  0  -0.068883  -0.002121  0  3.955557  0
C  C124  1  0.77817063  0.55410548  0.87242982  1  0.388454  0  -0.065971  -0.006659  0  3.937855  0
C  C125  1  0.22183308  0.94589798  0.37243169  1  0.388464  0  -0.065998  -0.006739  0  3.937683  0
C  C126  1  0.22182812  0.44590829  0.12757018  1  0.388828  0  -0.066094  -0.006944  0  3.937959  0
C  C127  1  0.77817021  0.05409256  0.62756678  1  0.388571  0  -0.066151  -0.007054  0  3.938114  0
C  C128  1  0.72027940  0.59963858  0.81517430  1  0.456462  0  -0.063271  -0.002694  0  3.943362  0
C  C129  1  0.27972179  0.90036149  0.31517698  1  0.456473  0  -0.063275  -0.002662  0  3.943324  0
C  C130  1  0.27972186  0.40037848  0.18482519  1  0.456285  0  -0.063219  -0.002413  0  3.943213  0
C  C131  1  0.72027706  0.09962168  0.68482200  1  0.456553  0  -0.063227  -0.002455  0  3.943393  0
C  C132  1  0.76370273  0.65916934  0.70043763  1  0.404603  0  -0.071227  -0.010578  0  3.901891  0
C  C133  1  0.23629179  0.84083277  0.20043765  1  0.404592  0  -0.07121  -0.010771  0  3.902365  0
C  C134  1  0.23629008  0.34082979  0.29956033  1  0.404473  0  -0.071284  -0.010854  0  3.902441  0
C  C135  1  0.76370575  0.15916406  0.79955776  1  0.404585  0  -0.071207  -0.010655  0  3.902233  0
C  C136  1  0.85899987  0.66376902  0.64099359  1  0.259787  0  -0.06502  -0.085772  0  3.927469  0
C  C137  1  0.14099228  0.83623212  0.14099423  1  0.258474  0  -0.06509  -0.085767  0  3.92751  0
C  C138  1  0.14099392  0.33623014  0.35900590  1  0.259749  0  -0.065024  -0.085726  0  3.927472  0
C  C139  1  0.85900462  0.16376953  0.85900475  1  0.259357  0  -0.064968  -0.085663  0  3.927454  0
C  C140  1  0.09570587  0.72335197  0.59573578  1  0.295072  0  -0.065782  -0.094817  0  3.957637  0
C  C141  1  0.90428730  0.77664669  0.09573619  1  0.295253  0  -0.065825  -0.094934  0  3.957673  0
C  C142  1  0.90429478  0.27664736  0.40426116  1  0.294981  0  -0.065785  -0.094762  0  3.957608  0
C  C143  1  0.09570824  0.22335411  0.90426126  1  0.295052  0  -0.065811  -0.094899  0  3.957697  0
C  C144  1  0.13441103  0.62614871  0.60722046  1  0.434905  0  -0.06366  0.000417  0  3.948439  0
C  C145  1  0.86557781  0.87385067  0.10721956  1  0.435449  0  -0.06369  0.000375  0  3.948299  0
C  C146  1  0.86558881  0.37385302  0.39277903  1  0.435153  0  -0.063656  0.000403  0  3.948486  0
C  C147  1  0.13441320  0.12615083  0.89277993  1  0.434894  0  -0.063671  0.000473  0  3.948239  0
C  C148  1  0.28353031  0.56948800  0.67578219  1  0.3774  0  -0.069406  -0.011468  0  3.900429  0
C  C149  1  0.71646302  0.93051242  0.17578211  1  0.377521  0  -0.069368  -0.011456  0  3.900432  0
C  C150  1  0.71647009  0.43051696  0.32421730  1  0.377437  0  -0.069346  -0.011353  0  3.900308  0
C  C151  1  0.28352513  0.06948095  0.82421942  1  0.377454  0  -0.069364  -0.011375  0  3.900351  0
C  C152  1  0.37679817  0.59961429  0.73777817  1  0.392092  0  -0.067534  -0.010535  0  3.901794  0
C  C153  1  0.62319894  0.90038795  0.23777926  1  0.392001  0  -0.067552  -0.010499  0  3.901843  0
C  C154  1  0.62320283  0.40038988  0.26222184  1  0.391976  0  -0.067544  -0.010513  0  3.90185  0
C  C155  1  0.37679548  0.09960638  0.76222380  1  0.391789  0  -0.067561  -0.010458  0  3.901794  0
C  C156  1  0.37754345  0.62737657  0.85713491  1  0.450939  0  -0.064562  0.004112  0  3.936332  0
C  C157  1  0.62245611  0.87262273  0.35713603  1  0.450737  0  -0.064527  0.004173  0  3.936335  0
C  C158  1  0.62245976  0.37262202  0.14286356  1  0.450833  0  -0.064477  0.004237  0  3.936217  0
C  C159  1  0.37754510  0.12737984  0.64286601  1  0.450977  0  -0.064519  0.004204  0  3.93622  0
C  C160  1  0.28550673  0.63006692  0.91682431  1  0.269431  0  -0.066915  -0.089664  0  3.956348  0
C  C161  1  0.71449328  0.86992927  0.41682481  1  0.269405  0  -0.066986  -0.089796  0  3.956415  0
C  C162  1  0.71449861  0.36993414  0.08317467  1  0.269427  0  -0.066988  -0.08973  0  3.956296  0
C  C163  1  0.28550835  0.13007008  0.58317672  1  0.269466  0  -0.066893  -0.089498  0  3.956251  0
C  C164  1  0.02227729  0.85219985  0.65541647  1  0.225871  0  -0.071838  -0.23261  0  3.948451  0
C  C165  1  0.97771748  0.64779815  0.15541940  1  0.225539  0  -0.071812  -0.232348  0  3.948406  0
C  C166  1  0.97771986  0.14779617  0.34458200  1  0.225634  0  -0.071784  -0.232276  0  3.948266  0
C  C167  1  0.02227924  0.35220107  0.84458162  1  0.229974  0  -0.071792  -0.23246  0  3.948619  0
C  C168  1  0.00389090  0.89405704  0.72667777  1  1.626404  0  0.209559  0.627022  0  4.219207  0
C  C169  1  0.99610624  0.60594357  0.22668185  1  1.626071  0  0.209677  0.627126  0  4.219135  0
C  C170  1  0.99611820  0.10594170  0.27332427  1  1.62576  0  0.209393  0.626796  0  4.219285  0
C  C171  1  0.00388166  0.39405543  0.77332325  1  1.625785  0  0.209454  0.626891  0  4.219183  0
C  C172  1  0.33079020  0.82287894  0.91365040  1  0.243209  0  -0.074982  -0.222596  0  3.922032  0
C  C173  1  0.66922034  0.67711913  0.41364789  1  0.243302  0  -0.075101  -0.222665  0  3.922196  0
C  C174  1  0.66921805  0.17712622  0.08635113  1  0.243034  0  -0.075019  -0.222598  0  3.92195  0
C  C175  1  0.33078248  0.32287865  0.58635313  1  0.242987  0  -0.075056  -0.222654  0  3.922207  0
C  C176  1  0.40249040  0.87153303  0.84490806  1  1.621325  0  0.183168  0.590447  0  4.28518  0
C  C177  1  0.59752459  0.62845215  0.34490531  1  1.62001  0  0.182912  0.589894  0  4.286326  0
C  C178  1  0.59751981  0.12847219  0.15509500  1  1.621421  0  0.183006  0.590051  0  4.28566  0
C  C179  1  0.40247895  0.37153275  0.65509622  1  1.621743  0  0.182904  0.589915  0  4.286025  0
N  N180  1  0.22220614  0.71090400  0.91067530  1  -1.046595  0  -0.36387  -0.131145  0  3.464916  0
N  N181  1  0.77780000  0.78909717  0.41067566  1  -1.046718  0  -0.363836  -0.130961  0  3.46479  0
N  N182  1  0.77780292  0.28909876  0.08932470  1  -1.046745  0  -0.363847  -0.130928  0  3.464738  0
N  N183  1  0.22220338  0.21090384  0.58932434  1  -1.046706  0  -0.363855  -0.131102  0  3.464986  0
N  N184  1  0.00757068  0.73861944  0.65055775  1  -1.036557  0  -0.369222  -0.136758  0  3.474509  0
N  N185  1  0.99242244  0.76137932  0.15055702  1  -1.036447  0  -0.369225  -0.136875  0  3.474645  0
N  N186  1  0.99242353  0.26137650  0.34943919  1  -1.036862  0  -0.369281  -0.136956  0  3.474751  0
N  N187  1  0.00757447  0.23862233  0.84944094  1  -1.036755  0  -0.369262  -0.136788  0  3.474704  0
O  O188  1  0.91527234  0.63326105  0.89000936  1  -1.056694  0  -0.238588  -0.229508  0  2.528817  0
O  O189  1  0.08473089  0.86674082  0.39000819  1  -1.056702  0  -0.238517  -0.229333  0  2.528674  0
O  O190  1  0.08472567  0.36674707  0.10999166  1  -1.056684  0  -0.238571  -0.229465  0  2.528728  0
O  O191  1  0.91527002  0.13325288  0.60999079  1  -1.05675  0  -0.238549  -0.229457  0  2.52882  0
O  O192  1  0.81028874  0.61584953  0.75781300  1  -1.067069  0  -0.242458  -0.224076  0  2.562537  0
O  O193  1  0.18971127  0.88415202  0.25781481  1  -1.066861  0  -0.242472  -0.224004  0  2.562675  0
O  O194  1  0.18971086  0.38415782  0.24218649  1  -1.066958  0  -0.242488  -0.224085  0  2.562681  0
O  O195  1  0.81028498  0.11583592  0.74218417  1  -1.066881  0  -0.242474  -0.224006  0  2.562614  0
O  O196  1  0.22264452  0.64887480  0.66617926  1  -1.066887  0  -0.252839  -0.24804  0  2.53187  0
O  O197  1  0.77734689  0.85112395  0.16618005  1  -1.067073  0  -0.252834  -0.248016  0  2.531964  0
O  O198  1  0.77735588  0.35113016  0.33381921  1  -1.066961  0  -0.252791  -0.248047  0  2.532126  0
O  O199  1  0.22264262  0.14887026  0.83382046  1  -1.066847  0  -0.252807  -0.24811  0  2.532007  0
O  O200  1  0.29291564  0.59400903  0.79742372  1  -1.060447  0  -0.237952  -0.233156  0  2.541623  0
O  O201  1  0.70708385  0.90599418  0.29742465  1  -1.060364  0  -0.237941  -0.233198  0  2.541751  0
O  O202  1  0.70708480  0.40599190  0.20257679  1  -1.060359  0  -0.237978  -0.233204  0  2.541752  0
O  O203  1  0.29291621  0.09400593  0.70257688  1  -1.060289  0  -0.237939  -0.233215  0  2.541786  0
O  O204  1  0.01956528  0.84397290  0.77870207  1  -1.214586  0  -0.383331  -0.610245  0  2.202065  0
O  O205  1  0.98042916  0.65603257  0.27870551  1  -1.214337  0  -0.383377  -0.610289  0  2.20197  0
O  O206  1  0.98043209  0.15602152  0.22129895  1  -1.214449  0  -0.383221  -0.610122  0  2.201823  0
O  O207  1  0.01956178  0.34397698  0.72129653  1  -1.214537  0  -0.383256  -0.610189  0  2.201887  0
O  O208  1  0.98230229  0.98119640  0.72618246  1  -1.229448  0  -0.40127  -0.640734  0  2.23929  0
O  O209  1  0.01769775  0.51880831  0.22618246  1  -1.229323  0  -0.40131  -0.640807  0  2.239285  0
O  O210  1  0.01769273  0.01879714  0.27382468  1  -1.22901  0  -0.401194  -0.640655  0  2.239412  0
O  O211  1  0.98230437  0.48120233  0.77381703  1  -1.229012  0  -0.401228  -0.640679  0  2.239195  0
O  O212  1  0.33221038  0.83363861  0.79056170  1  -1.232235  0  -0.414091  -0.64304  0  2.189803  0
O  O213  1  0.66778405  0.66636849  0.29055716  1  -1.231188  0  -0.413972  -0.642789  0  2.190328  0
O  O214  1  0.66779195  0.16637043  0.20944034  1  -1.231638  0  -0.414059  -0.642952  0  2.190284  0
O  O215  1  0.33220897  0.33362903  0.70944080  1  -1.231982  0  -0.414039  -0.642889  0  2.190325  0
O  O216  1  0.52110654  0.94864781  0.84969103  1  -1.201832  0  -0.363648  -0.594433  0  2.10791  0
O  O217  1  0.47892165  0.55132000  0.34969398  1  -1.201688  0  -0.363497  -0.59421  0  2.108359  0
O  O218  1  0.47890588  0.05135182  0.15031101  1  -1.202448  0  -0.363538  -0.594224  0  2.107861  0
O  O219  1  0.52109203  0.44865148  0.65031571  1  -1.20247  0  -0.363474  -0.594153  0  2.108081  0
