# generated using pymatgen
data_NiH20C14O5
_symmetry_space_group_name_H-M   'P 1'
_cell_length_a   6.31309937
_cell_length_b   10.06481449
_cell_length_c   11.20843268
_cell_angle_alpha   112.73518928
_cell_angle_beta   90.00079445
_cell_angle_gamma   90.00195391
_symmetry_Int_Tables_number   1
_chemical_formula_structural   NiH20C14O5
_chemical_formula_sum   'Ni2 H40 C28 O10'
_cell_volume   656.84957212
_cell_formula_units_Z   2
loop_
 _symmetry_equiv_pos_site_id
 _symmetry_equiv_pos_as_xyz
  1  'x, y, z'
loop_
 _atom_site_type_symbol
 _atom_site_label
 _atom_site_symmetry_multiplicity
 _atom_site_fract_x
 _atom_site_fract_y
 _atom_site_fract_z
 _atom_site_occupancy
 _atom_site_hle17_ddec_charge
 _atom_site_hle17_ddec_spin_density
 _atom_site_hle17_ddec_sum_bond_order
 _atom_site_hle17_magmom
 _atom_site_hse06_10hf_ddec_charge
 _atom_site_hse06_10hf_ddec_spin_density
 _atom_site_hse06_10hf_ddec_sum_bond_order
 _atom_site_hse06_10hf_magmom
 _atom_site_hse06_ddec_charge
 _atom_site_hse06_ddec_spin_density
 _atom_site_hse06_ddec_sum_bond_order
 _atom_site_hse06_magmom
 _atom_site_pbe_cm5_charge
 _atom_site_pbe_ddec_charge
 _atom_site_pbe_ddec_spin_density
 _atom_site_pbe_ddec_sum_bond_order
 _atom_site_pbe_magmom
Ni  Ni0  1  0.63066538  0.99523649  0.00984778  1  1.008616  1.759562  1.808001  1.534  1.030702  1.830105  2.192535  1.665  1.118337  1.878865  2.12508  1.747  0.618354  0.949898  1.7851  2.262497  1.593
Ni  Ni1  1  0.13066557  0.00473816  0.99014161  1  1.008626  1.759574  1.807927  1.534  1.030697  1.830125  2.192521  1.665  1.11834  1.87888  2.12504  1.747  0.618357  0.949865  1.785113  2.262509  1.593
H  H2  1  0.50366124  0.04348652  0.40218225  1  0.113871  0.000119  0.939081  0.0  0.129035  0.000127  0.998084  0.0  0.13107  6.3e-05  0.997876  0.0  0.105355  0.127051  0.000284  0.999163  0.0
H  H3  1  0.00361700  0.95651327  0.59780812  1  0.113795  0.00012  0.939156  0.0  0.128999  0.000127  0.998115  0.0  0.131038  6.3e-05  0.997903  0.0  0.105325  0.127014  0.000284  0.999199  0.0
H  H4  1  0.65015956  0.96853000  0.25613802  1  0.110521  -0.000464  0.954316  0.0  0.120664  -8e-05  1.020468  0.0  0.122949  -0.000184  1.019061  0.0  0.099731  0.119259  5.5e-05  1.02141  0.0
H  H5  1  0.15013799  0.03146866  0.74384736  1  0.11059  -0.000466  0.954147  0.0  0.120679  -8e-05  1.020359  0.0  0.122993  -0.000183  1.018914  0.0  0.099656  0.119247  5.5e-05  1.021332  0.0
H  H6  1  0.77742435  0.87504505  0.44658501  1  0.072279  2e-05  0.95939  0.0  0.087716  2.1e-05  1.026351  0.0  0.088563  1.3e-05  1.026751  0.0  0.089052  0.087067  3.9e-05  1.026302  0.0
H  H7  1  0.27738685  0.12498022  0.55340583  1  0.072275  2e-05  0.959394  0.0  0.087743  2.1e-05  1.026297  0.0  0.088596  1.3e-05  1.026695  0.0  0.089076  0.087092  3.9e-05  1.026245  0.0
H  H8  1  0.84606421  0.78973823  0.28111379  1  0.075192  -3.9e-05  0.934746  0.0  0.090747  -2.6e-05  0.999258  0.0  0.09198  -1.8e-05  0.999091  0.0  0.087448  0.089744  -3.3e-05  0.999694  0.0
H  H9  1  0.34604406  0.21028047  0.71887868  1  0.07526  -3.9e-05  0.934761  0.0  0.0908  -2.6e-05  0.999266  0.0  0.092009  -1.8e-05  0.999127  0.0  0.087531  0.0898  -3.3e-05  0.999697  0.0
H  H10  1  0.91417965  0.62747188  0.39863429  1  0.036971  1.3e-05  0.95335  0.0  0.052484  2e-06  1.012748  0.0  0.052482  -1e-06  1.01395  0.0  0.088995  0.052677  1.4e-05  1.011641  0.0
H  H11  1  0.41412955  0.37256716  0.60137187  1  0.036786  1.5e-05  0.953462  0.0  0.052455  2e-06  1.012747  0.0  0.052455  -1e-06  1.01394  0.0  0.088908  0.052646  1.4e-05  1.01164  0.0
H  H12  1  0.80991343  0.51902641  0.16503254  1  0.069823  6e-06  0.945512  0.0  0.087024  2.2e-05  1.010796  0.0  0.087883  1.2e-05  1.01103  0.0  0.086987  0.086327  2.5e-05  1.010733  0.0
H  H13  1  0.30988328  0.48098958  0.83497486  1  0.069809  6e-06  0.945481  0.0  0.086964  2.2e-05  1.010818  0.0  0.087814  1.2e-05  1.011057  0.0  0.087031  0.086264  2.5e-05  1.010738  0.0
H  H14  1  0.71249552  0.41399286  0.24811903  1  0.068645  8.3e-05  0.947554  0.0  0.083941  5.9e-05  1.012011  0.0  0.08584  2.5e-05  1.010509  0.0  0.083839  0.08231  9.5e-05  1.013909  0.0
H  H15  1  0.21245079  0.58602495  0.75189743  1  0.06847  8.4e-05  0.94772  0.0  0.083824  5.8e-05  1.012079  0.0  0.08576  2.5e-05  1.01053  0.0  0.083808  0.082185  9.5e-05  1.013982  0.0
H  H16  1  0.54970521  0.69089762  0.11122747  1  0.088478  -1.5e-05  0.959681  0.0  0.104232  -1e-06  1.021914  0.0  0.10575  -2.1e-05  1.022176  0.0  0.08994  0.103094  4e-06  1.021819  0.0
H  H17  1  0.04969418  0.30909527  0.88876876  1  0.08853  -9e-06  0.959506  0.0  0.104236  -1e-06  1.02185  0.0  0.105757  -2.1e-05  1.022114  0.0  0.089943  0.103105  4e-06  1.021739  0.0
H  H18  1  0.28484925  0.70031760  0.16382581  1  0.074947  -7.6e-05  0.936767  0.0  0.091434  -2.7e-05  0.999856  0.0  0.092449  -2.3e-05  0.999991  0.0  0.088001  0.090572  -2.2e-05  0.999974  0.0
H  H19  1  0.78483579  0.29966141  0.83616767  1  0.074893  -7.5e-05  0.936879  0.0  0.091408  -2.7e-05  0.999975  0.0  0.09242  -2.3e-05  1.000118  0.0  0.088033  0.09054  -2.2e-05  1.000099  0.0
H  H20  1  0.33129796  0.43177453  0.31771978  1  0.069963  -5.6e-05  0.938312  0.0  0.087298  -4.9e-05  0.999841  0.0  0.088159  -4.3e-05  0.999996  0.0  0.086828  0.086337  -6.1e-05  1.000625  0.0
H  H21  1  0.83124796  0.56822450  0.68229341  1  0.070005  -5.7e-05  0.938182  0.0  0.087395  -5e-05  0.999733  0.0  0.088258  -4.3e-05  0.999893  0.0  0.086795  0.086424  -6.1e-05  1.00051  0.0
H  H22  1  0.15421943  0.54476857  0.27797816  1  0.071225  -0.0  0.961541  0.0  0.088464  -3e-06  1.025564  0.0  0.089339  -3e-06  1.026069  0.0  0.08859  0.088078  1e-06  1.024736  0.0
H  H23  1  0.65417874  0.45521392  0.72202925  1  0.071181  -4e-06  0.961654  0.0  0.088501  -3e-06  1.025667  0.0  0.08938  -3e-06  1.026165  0.0  0.088541  0.088111  1e-06  1.024833  0.0
H  H24  1  0.25933329  0.65801559  0.51153830  1  0.030649  2.8e-05  0.931705  0.0  0.046132  4e-05  0.988643  0.0  0.046728  2.4e-05  0.988713  0.0  0.084987  0.045333  7.1e-05  0.989452  0.0
H  H25  1  0.75927066  0.34198674  0.48846854  1  0.03054  2.6e-05  0.93161  0.0  0.046083  4e-05  0.988473  0.0  0.046667  2.4e-05  0.988557  0.0  0.085002  0.045292  7.1e-05  0.989276  0.0
H  H26  1  0.19156502  0.82486698  0.39882285  1  0.076564  3.2e-05  0.955613  0.0  0.090005  2.7e-05  1.026882  0.0  0.09106  1.7e-05  1.027115  0.0  0.087579  0.089209  4.6e-05  1.02679  0.0
H  H27  1  0.69153180  0.17511824  0.60116964  1  0.076668  3e-05  0.955639  0.0  0.090092  2.7e-05  1.026912  0.0  0.091151  1.8e-05  1.027139  0.0  0.087631  0.089297  4.6e-05  1.026823  0.0
H  H28  1  0.39565337  0.89251737  0.51614388  1  0.080661  6.9e-05  0.950839  0.0  0.096576  6.9e-05  1.016383  0.0  0.097835  4.7e-05  1.016342  0.0  0.089499  0.095712  9.5e-05  1.01642  0.0
H  H29  1  0.89561379  0.10749125  0.48385068  1  0.080582  6.8e-05  0.950934  0.0  0.096557  6.9e-05  1.016404  0.0  0.097782  4.7e-05  1.01641  0.0  0.089494  0.095696  9.5e-05  1.016435  0.0
H  H30  1  0.63883052  0.72559435  0.56862016  1  0.068321  2.8e-05  0.947304  0.0  0.085029  3.9e-05  1.009862  0.0  0.086375  2.7e-05  1.009606  0.0  0.084046  0.083816  6.2e-05  1.010619  0.0
H  H31  1  0.13877136  0.27444076  0.43138412  1  0.06845  2.9e-05  0.947254  0.0  0.085019  3.9e-05  1.009965  0.0  0.086373  2.7e-05  1.009713  0.0  0.084014  0.083807  6.2e-05  1.010723  0.0
H  H32  1  0.61106153  0.53598865  0.48773809  1  0.062567  1e-05  0.958759  0.0  0.079099  2e-06  1.025034  0.0  0.079733  1e-06  1.025661  0.0  0.084794  0.078671  3e-06  1.024664  0.0
H  H33  1  0.11099236  0.46404387  0.51228031  1  0.062729  1e-05  0.958725  0.0  0.079314  2e-06  1.024899  0.0  0.079956  1e-06  1.025526  0.0  0.084896  0.078883  3e-06  1.024527  0.0
H  H34  1  0.24857589  0.45453874  0.04376856  1  0.094449  0.000669  0.969883  0.001  0.107096  0.00067  1.03612  0.001  0.109008  0.000448  1.035177  0.001  0.095677  0.105616  0.000889  1.037135  0.001
H  H35  1  0.74855366  0.54543540  0.95623821  1  0.094474  0.000672  0.969778  0.001  0.107042  0.00067  1.036092  0.001  0.108979  0.000449  1.035129  0.001  0.095699  0.105561  0.00089  1.037108  0.001
H  H36  1  0.51787191  0.42856320  0.99475353  1  0.100765  -4.2e-05  0.950062  0.0  0.113844  0.000209  1.015454  0.0  0.116287  0.000118  1.013821  0.0  0.098644  0.111984  0.000305  1.016916  0.0
H  H37  1  0.01785511  0.57142705  0.00525321  1  0.100672  -4.2e-05  0.950024  0.0  0.113692  0.000208  1.015512  0.0  0.116149  0.000118  1.013866  0.0  0.098602  0.111829  0.000305  1.016977  0.0
H  H38  1  0.89178468  0.18052150  0.17004964  1  0.441189  -0.001529  0.7948  -0.002  0.426031  -0.000294  0.847604  0.0  0.436445  -0.00049  0.836736  0.0  0.330099  0.41781  -4.1e-05  0.855692  0.0
H  H39  1  0.39176520  0.81945152  0.82993337  1  0.441125  -0.001529  0.794801  -0.002  0.425925  -0.000293  0.847664  0.0  0.43635  -0.00049  0.836781  0.0  0.330035  0.417703  -4e-05  0.855751  0.0
H  H40  1  0.98993104  0.04337818  0.20662638  1  0.423282  -0.000304  0.889542  0.0  0.389963  0.000394  0.958459  0.001  0.404537  0.000202  0.938237  0.001  0.289148  0.379371  0.000619  0.973051  0.002
H  H41  1  0.48990911  0.95660483  0.79336687  1  0.423176  -0.000303  0.889726  0.0  0.389892  0.000394  0.958549  0.001  0.404466  0.000202  0.938327  0.001  0.289073  0.379301  0.000619  0.973137  0.002
C  C42  1  0.32055774  0.98250146  0.23030986  1  0.73443  -0.008581  3.742418  -0.006  0.696032  -0.00162  4.040065  -0.001  0.735208  -0.001371  4.028956  -0.001  0.233482  0.667451  -0.001829  4.047186  -0.001
C  C43  1  0.82054071  0.01749315  0.76968478  1  0.734536  -0.008582  3.742151  -0.006  0.696136  -0.001619  4.039784  -0.001  0.73529  -0.00137  4.028707  -0.001  0.233466  0.667559  -0.001829  4.046895  -0.001
C  C44  1  0.50439633  0.95767639  0.30470062  1  -0.326516  0.004973  3.622814  0.007  -0.370699  0.002764  3.862276  0.004  -0.378341  0.001685  3.869826  0.003  -0.159884  -0.365097  0.003879  3.857785  0.005
C  C45  1  0.00437088  0.04232341  0.69529066  1  -0.326437  0.004972  3.622765  0.007  -0.370602  0.002764  3.862083  0.004  -0.378257  0.001684  3.869626  0.003  -0.159722  -0.364993  0.003878  3.857613  0.005
C  C46  1  0.50731446  0.81008184  0.31790507  1  0.178999  0.000517  3.532942  0.001  0.203873  0.000297  3.760308  0.0  0.204726  0.000151  3.780079  0.0  -0.010934  0.203423  0.000416  3.746489  0.0
C  C47  1  0.00728981  0.18992015  0.68208877  1  0.178807  0.000516  3.53335  0.001  0.203739  0.000297  3.760653  0.0  0.204597  0.00015  3.780419  0.0  -0.010983  0.203289  0.000416  3.746823  0.0
C  C48  1  0.73461765  0.78609422  0.35551768  1  -0.195747  0.000346  3.620162  0.0  -0.240073  0.000153  3.864998  0.0  -0.24234  8.6e-05  3.879412  0.0  -0.164336  -0.238288  0.000226  3.855019  0.0
C  C49  1  0.23458584  0.21392288  0.64447723  1  -0.196143  0.000345  3.620307  0.0  -0.240423  0.000153  3.865127  0.0  -0.242684  8.6e-05  3.879546  0.0  -0.164593  -0.238622  0.000226  3.855127  0.0
C  C50  1  0.75152431  0.64144026  0.37032253  1  0.037436  0.000175  3.638804  0.0  0.036806  6.2e-05  3.876697  0.0  0.036316  2.5e-05  3.894706  0.0  -0.094087  0.037251  9.8e-05  3.863783  0.0
C  C51  1  0.25147874  0.35858460  0.62968321  1  0.038068  0.000173  3.638254  0.0  0.037202  6.3e-05  3.876284  0.0  0.036715  2.5e-05  3.894313  0.0  -0.093847  0.037647  9.8e-05  3.863363  0.0
C  C52  1  0.69778911  0.51941334  0.24049016  1  -0.190804  0.000224  3.62309  0.0  -0.236358  0.000148  3.868452  0.0  -0.238255  7.6e-05  3.882258  0.0  -0.16548  -0.23488  0.000192  3.85872  0.0
C  C53  1  0.19775009  0.48060104  0.75951968  1  -0.19067  0.000222  3.623094  0.0  -0.236169  0.000148  3.868449  0.0  -0.23806  7.4e-05  3.882191  0.0  -0.165519  -0.23468  0.000192  3.858722  0.0
C  C54  1  0.46981089  0.53856001  0.20067852  1  0.171012  -0.0006  3.542246  -0.001  0.197686  -0.000174  3.768458  0.0  0.198649  -0.000223  3.788242  0.0  -0.01272  0.197232  -9e-05  3.75448  0.0
C  C55  1  0.96977803  0.46143778  0.79932870  1  0.170756  -0.000603  3.542443  -0.001  0.197605  -0.000175  3.768465  0.0  0.198557  -0.000221  3.788293  0.0  -0.012744  0.197137  -9e-05  3.754483  0.0
C  C56  1  0.44967148  0.68654573  0.18998458  1  -0.225098  0.000626  3.584004  0.001  -0.265127  0.00019  3.811995  0.0  -0.268643  5.5e-05  3.827122  0.0  -0.164903  -0.262161  0.0004  3.801134  0.001
C  C57  1  0.94965038  0.31344749  0.81001201  1  -0.224922  0.000623  3.584184  0.001  -0.265059  0.000191  3.812262  0.0  -0.268583  5.5e-05  3.827401  0.0  -0.164911  -0.262081  0.0004  3.801388  0.001
C  C58  1  0.31830535  0.53602070  0.30725275  1  -0.201979  -2.8e-05  3.629815  0.0  -0.24873  -2.6e-05  3.876442  0.0  -0.250902  -3.6e-05  3.890764  0.0  -0.166967  -0.246834  7e-06  3.865811  0.0
C  C59  1  0.81826126  0.46397384  0.69275613  1  -0.201767  -2.2e-05  3.629438  0.0  -0.248862  -2.5e-05  3.876362  0.0  -0.251048  -3.5e-05  3.890698  0.0  -0.166829  -0.246927  6e-06  3.865682  0.0
C  C60  1  0.37105219  0.65957832  0.43641552  1  0.046756  6.8e-05  3.632004  0.0  0.047806  6.4e-05  3.871573  0.0  0.047638  3.4e-05  3.888973  0.0  -0.091865  0.047987  9.6e-05  3.859269  0.0
C  C61  1  0.87100143  0.34042669  0.56359015  1  0.046806  7.2e-05  3.631576  0.0  0.047907  6.4e-05  3.871198  0.0  0.047752  3.4e-05  3.888597  0.0  -0.09192  0.048072  9.6e-05  3.858899  0.0
C  C62  1  0.35446084  0.80572987  0.42329293  1  -0.207886  0.000167  3.614058  0.0  -0.255259  0.000128  3.859492  0.0  -0.257522  6.9e-05  3.873513  0.0  -0.169076  -0.25327  0.000229  3.849324  0.0
C  C63  1  0.85442366  0.19426954  0.57670267  1  -0.20788  0.000168  3.614172  0.0  -0.255275  0.000128  3.859536  0.0  -0.257501  6.8e-05  3.873517  0.0  -0.169104  -0.25331  0.000229  3.849412  0.0
C  C64  1  0.59772987  0.63906089  0.47551969  1  -0.169944  2.9e-05  3.646396  0.0  -0.215993  6.4e-05  3.898329  0.0  -0.217679  3.8e-05  3.912533  0.0  -0.168158  -0.214681  9e-05  3.88837  0.0
C  C65  1  0.09767309  0.36096392  0.52448881  1  -0.170419  2.9e-05  3.646463  0.0  -0.216389  6.4e-05  3.89836  0.0  -0.218113  3.9e-05  3.912593  0.0  -0.168293  -0.215075  9e-05  3.888407  0.0
C  C66  1  0.40494675  0.42481854  0.06826371  1  -0.314679  0.011831  3.64198  0.016  -0.361137  0.006224  3.882688  0.008  -0.369038  0.004192  3.890715  0.006  -0.161071  -0.3556  0.008098  3.877826  0.01
C  C67  1  0.90492143  0.57516753  0.93174445  1  -0.314393  0.011827  3.641831  0.016  -0.360858  0.006224  3.88255  0.008  -0.36874  0.004191  3.890468  0.006  -0.160979  -0.355331  0.008098  3.877732  0.01
C  C68  1  0.39260374  0.26890582  0.05367352  1  0.724424  -0.014624  3.78166  -0.012  0.693318  -0.003603  4.080665  -0.003  0.733297  -0.003091  4.070548  -0.002  0.219649  0.664178  -0.003972  4.085907  -0.004
C  C69  1  0.89257450  0.73107794  0.94633108  1  0.723974  -0.014626  3.782476  -0.012  0.693092  -0.003603  4.081133  -0.003  0.733068  -0.003091  4.071047  -0.002  0.2195  0.663933  -0.003972  4.086395  -0.004
O  O70  1  0.35992656  0.98589438  0.11862557  1  -0.643976  0.075383  2.196668  0.13  -0.628207  0.052362  2.500474  0.092  -0.675325  0.038911  2.488616  0.072  -0.303911  -0.588008  0.064281  2.507544  0.107
O  O71  1  0.85991927  0.01408356  0.88136257  1  -0.644083  0.075378  2.196826  0.13  -0.628318  0.052359  2.50058  0.092  -0.675449  0.038909  2.48878  0.072  -0.304005  -0.588125  0.06428  2.507662  0.107
O  O72  1  0.13479102  0.00012011  0.27792831  1  -0.588025  0.006921  1.971039  0.012  -0.535409  0.003563  2.186721  0.007  -0.561684  0.001531  2.174687  0.004  -0.300632  -0.516432  0.006143  2.195231  0.011
O  O73  1  0.63476569  0.99988369  0.72207127  1  -0.588026  0.006924  1.97082  0.012  -0.535432  0.003562  2.186484  0.007  -0.5617  0.001532  2.174457  0.004  -0.300552  -0.516461  0.006143  2.195001  0.011
O  O74  1  0.89489558  0.07572190  0.14109858  1  -0.82904  0.06527  2.008704  0.109  -0.806505  0.050948  2.249304  0.084  -0.844025  0.038338  2.213875  0.067  -0.537613  -0.773298  0.062454  2.275274  0.098
O  O75  1  0.39488104  0.92425222  0.85889019  1  -0.828939  0.065266  2.008892  0.109  -0.806356  0.050947  2.249479  0.084  -0.843887  0.038338  2.214019  0.067  -0.537529  -0.77314  0.062454  2.275429  0.098
O  O76  1  0.56650944  0.20650648  0.05752689  1  -0.616927  0.048229  2.055167  0.084  -0.595578  0.027954  2.32551  0.051  -0.63338  0.019863  2.313966  0.039  -0.31811  -0.56534  0.034965  2.333494  0.06
O  O77  1  0.06648042  0.79348016  0.94247706  1  -0.616663  0.048228  2.055605  0.084  -0.595413  0.027951  2.325884  0.051  -0.633228  0.019861  2.314349  0.039  -0.318046  -0.565172  0.034962  2.333877  0.06
O  O78  1  0.20826367  0.21164354  0.03339279  1  -0.621443  0.050957  2.0429  0.089  -0.60397  0.029187  2.316834  0.053  -0.641533  0.02058  2.303371  0.041  -0.320972  -0.573547  0.036762  2.325683  0.064
O  O79  1  0.70823512  0.78833329  0.96660133  1  -0.621213  0.050963  2.043078  0.089  -0.603832  0.029191  2.316891  0.053  -0.6414  0.020585  2.303446  0.041  -0.320848  -0.573404  0.036767  2.32575  0.064
