# generated using pymatgen
data_ZnH10(C5O2)3
_symmetry_space_group_name_H-M   'P 1'
_cell_length_a   6.27398257
_cell_length_b   7.22625384
_cell_length_c   14.59020478
_cell_angle_alpha   103.99475987
_cell_angle_beta   90.05526089
_cell_angle_gamma   89.95592958
_symmetry_Int_Tables_number   1
_chemical_formula_structural   ZnH10(C5O2)3
_chemical_formula_sum   'Zn2 H20 C30 O12'
_cell_volume   641.84721325
_cell_formula_units_Z   2
loop_
 _symmetry_equiv_pos_site_id
 _symmetry_equiv_pos_as_xyz
  1  'x, y, z'
loop_
 _atom_site_type_symbol
 _atom_site_label
 _atom_site_symmetry_multiplicity
 _atom_site_fract_x
 _atom_site_fract_y
 _atom_site_fract_z
 _atom_site_occupancy
 _atom_site_hle17_bader_spin_density
 _atom_site_hle17_ddec_charge
 _atom_site_hle17_ddec_spin_density
 _atom_site_hle17_ddec_sum_bond_order
 _atom_site_hle17_magmom
 _atom_site_hse06_10hf_bader_spin_density
 _atom_site_hse06_10hf_ddec_charge
 _atom_site_hse06_10hf_ddec_spin_density
 _atom_site_hse06_10hf_ddec_sum_bond_order
 _atom_site_hse06_10hf_magmom
 _atom_site_hse06_bader_spin_density
 _atom_site_hse06_ddec_charge
 _atom_site_hse06_ddec_spin_density
 _atom_site_hse06_ddec_sum_bond_order
 _atom_site_hse06_magmom
 _atom_site_pbe_bader_spin_density
 _atom_site_pbe_cm5_charge
 _atom_site_pbe_ddec_charge
 _atom_site_pbe_ddec_spin_density
 _atom_site_pbe_ddec_sum_bond_order
 _atom_site_pbe_magmom
Zn  Zn0  1  0.30878857  0.74999526  0.49993696  1  0  1.234842  0  1.665577  0  0  1.066768  0  2.133784  0  0  1.114491  0  2.069922  0  0  0.705052  1.033007  0  2.178198  0
Zn  Zn1  1  0.69120187  0.25002612  0.50007840  1  0  1.23513  0  1.665216  0  0  1.06701  0  2.133386  0  0  1.114714  0  2.069536  0  0  0.705203  1.033255  0  2.177788  0
H  H2  1  0.56075272  0.40066125  0.04077958  1  0  0.100126  0  0.968251  0  0  0.109838  0  1.031728  0  0  0.112744  0  1.030296  0  0  0.105332  0.107765  0  1.032864  0
H  H3  1  0.56082608  0.09936368  0.95924478  1  0  0.100168  0  0.96817  0  0  0.109823  0  1.031763  0  0  0.112729  0  1.030316  0  0  0.105263  0.107761  0  1.032884  0
H  H4  1  0.43918349  0.59939447  0.95922005  1  0  0.100107  0  0.968624  0  0  0.109866  0  1.03206  0  0  0.112764  0  1.030637  0  0  0.105402  0.107806  0  1.033178  0
H  H5  1  0.43921373  0.90066641  0.04073669  1  0  0.100178  0  0.968106  0  0  0.110022  0  1.031454  0  0  0.112945  0  1.029986  0  0  0.105356  0.107953  0  1.032587  0
H  H6  1  0.40522901  0.51820846  0.19962330  1  0  0.106285  0  0.954721  0  0  0.114439  0  1.018564  0  0  0.117056  0  1.018381  0  0  0.105902  0.112453  0  1.019018  0
H  H7  1  0.40525762  0.98178536  0.80033319  1  0  0.106375  0  0.954889  0  0  0.114625  0  1.018513  0  0  0.117231  0  1.018339  0  0  0.105974  0.112651  0  1.018959  0
H  H8  1  0.59475826  0.48177157  0.80038638  1  0  0.106381  0  0.954798  0  0  0.114495  0  1.018664  0  0  0.117111  0  1.018482  0  0  0.105928  0.112515  0  1.019117  0
H  H9  1  0.59477106  0.01821185  0.19966144  1  0  0.106372  0  0.954631  0  0  0.114597  0  1.018337  0  0  0.117203  0  1.018167  0  0  0.105936  0.112617  0  1.018793  0
H  H10  1  0.96645479  0.34027647  0.32523238  1  0  0.103533  0  0.947866  0  0  0.111608  0  1.010226  0  0  0.115372  0  1.007683  0  0  0.104678  0.108824  0  1.012207  0
H  H11  1  0.96596505  0.15969400  0.67500924  1  0  0.104337  0  0.948533  0  0  0.112333  0  1.010863  0  0  0.116108  0  1.008317  0  0  0.105151  0.109576  0  1.012793  0
H  H12  1  0.03358026  0.65967948  0.67473533  1  0  0.103767  0  0.948515  0  0  0.11184  0  1.010781  0  0  0.115611  0  1.008232  0  0  0.104869  0.109068  0  1.012738  0
H  H13  1  0.03397915  0.84027904  0.32496875  1  0  0.104235  0  0.948241  0  0  0.112243  0  1.010601  0  0  0.11602  0  1.008053  0  0  0.105094  0.109487  0  1.012529  0
H  H14  1  0.12835009  0.22754934  0.16498970  1  0  0.096718  0  0.975133  0  0  0.103136  0  1.042955  0  0  0.105677  0  1.043023  0  0  0.101409  0.101188  0  1.043257  0
H  H15  1  0.12799865  0.27244792  0.83530227  1  0  0.096259  0  0.975302  0  0  0.102814  0  1.043068  0  0  0.105395  0  1.043077  0  0  0.101527  0.100868  0  1.04337  0
H  H16  1  0.87163712  0.77241950  0.83496996  1  0  0.09679  0  0.974946  0  0  0.103263  0  1.042676  0  0  0.105801  0  1.04275  0  0  0.10153  0.101315  0  1.042977  0
H  H17  1  0.87197260  0.72757940  0.16466378  1  0  0.096313  0  0.974925  0  0  0.10291  0  1.042664  0  0  0.105467  0  1.042684  0  0  0.101479  0.100958  0  1.042972  0
H  H18  1  0.89683512  0.85989191  0.52640419  1  0  0.44363  0  0.857256  0  0  0.414704  0  0.916424  0  0  0.424865  0  0.901756  0  0  0.299852  0.407531  0  0.926763  0
H  H19  1  0.89702996  0.64004306  0.47335205  1  0  0.44386  0  0.856662  0  0  0.414427  0  0.916671  0  0  0.424605  0  0.901984  0  0  0.299602  0.407261  0  0.927002  0
H  H20  1  0.10316178  0.14016051  0.47368895  1  0  0.443145  0  0.857825  0  0  0.414352  0  0.916739  0  0  0.424486  0  0.902123  0  0  0.299795  0.407203  0  0.927054  0
H  H21  1  0.10296215  0.36001652  0.52673510  1  0  0.443681  0  0.856892  0  0  0.414197  0  0.91701  0  0  0.424382  0  0.902314  0  0  0.299532  0.407028  0  0.927344  0
C  C22  1  0.67730327  0.43871163  0.27221501  1  0  -0.062659  0  3.737367  0  0  -0.040789  0  3.969823  0  0  -0.048819  0  3.992646  0  0  -0.012287  -0.03543  0  3.954282  0
C  C23  1  0.67713739  0.06119260  0.72789564  1  0  -0.061806  0  3.737133  0  0  -0.039887  0  3.969654  0  0  -0.0479  0  3.992467  0  0  -0.012184  -0.034536  0  3.95411  0
C  C24  1  0.32269036  0.56128697  0.72779143  1  0  -0.062518  0  3.737385  0  0  -0.040568  0  3.969756  0  0  -0.04859  0  3.992565  0  0  -0.012208  -0.035272  0  3.954301  0
C  C25  1  0.32285783  0.93880456  0.27211131  1  0  -0.061827  0  3.737202  0  0  -0.03978  0  3.969576  0  0  -0.047798  0  3.992407  0  0  -0.012147  -0.034419  0  3.954027  0
C  C26  1  0.65107546  0.38574932  0.10221853  1  0  -0.076875  0  3.711957  0  0  -0.100525  0  3.965281  0  0  -0.10222  0  3.985206  0  0  -0.076878  -0.099258  0  3.951672  0
C  C27  1  0.65099321  0.11432167  0.89784679  1  0  -0.07646  0  3.711634  0  0  -0.100153  0  3.964994  0  0  -0.101818  0  3.984909  0  0  -0.076645  -0.098899  0  3.951373  0
C  C28  1  0.34892770  0.61426078  0.89776874  1  0  -0.076777  0  3.712618  0  0  -0.100474  0  3.965952  0  0  -0.102161  0  3.985872  0  0  -0.076927  -0.099211  0  3.952329  0
C  C29  1  0.34900355  0.88570988  0.10213005  1  0  -0.076296  0  3.711233  0  0  -0.100125  0  3.964535  0  0  -0.101789  0  3.984436  0  0  -0.076743  -0.09888  0  3.950931  0
C  C30  1  0.85626500  0.30538409  0.09222560  1  0  -0.023298  0  3.738236  0  0  -0.006862  0  3.971074  0  0  -0.011689  0  3.994017  0  0  -0.010503  -0.00362  0  3.955671  0
C  C31  1  0.85612855  0.19469717  0.90794793  1  0  -0.025824  0  3.738536  0  0  -0.008983  0  3.970982  0  0  -0.014064  0  3.994403  0  0  -0.011739  -0.005646  0  3.955405  0
C  C32  1  0.14373016  0.69462471  0.90773410  1  0  -0.023284  0  3.73624  0  0  -0.006857  0  3.969146  0  0  -0.01167  0  3.992149  0  0  -0.010466  -0.003617  0  3.953733  0
C  C33  1  0.14388413  0.80533727  0.09202035  1  0  -0.026014  0  3.740195  0  0  -0.009246  0  3.972707  0  0  -0.014306  0  3.996144  0  0  -0.011524  -0.005879  0  3.957076  0
C  C34  1  0.56284874  0.45308242  0.19166755  1  0  -0.059007  0  3.701404  0  0  -0.083273  0  3.952615  0  0  -0.083266  0  3.972705  0  0  -0.077109  -0.083192  0  3.939159  0
C  C35  1  0.56273393  0.04691166  0.80836544  1  0  -0.059618  0  3.702116  0  0  -0.083969  0  3.953468  0  0  -0.083948  0  3.973532  0  0  -0.077462  -0.083899  0  3.940016  0
C  C36  1  0.43716083  0.54690904  0.80833667  1  0  -0.05926  0  3.70201  0  0  -0.083517  0  3.953239  0  0  -0.08351  0  3.973317  0  0  -0.077189  -0.083427  0  3.939811  0
C  C37  1  0.43724055  0.95310127  0.19162834  1  0  -0.059724  0  3.701199  0  0  -0.084096  0  3.952617  0  0  -0.084084  0  3.972705  0  0  -0.077414  -0.084025  0  3.939161  0
C  C38  1  0.88027174  0.35401958  0.26238495  1  0  -0.051873  0  3.70577  0  0  -0.075486  0  3.955477  0  0  -0.075787  0  3.974797  0  0  -0.07726  -0.075104  0  3.94236  0
C  C39  1  0.87995274  0.14597447  0.73780776  1  0  -0.053748  0  3.707281  0  0  -0.077463  0  3.957529  0  0  -0.077774  0  3.976802  0  0  -0.078171  -0.077107  0  3.944473  0
C  C40  1  0.11971387  0.64592932  0.73756613  1  0  -0.052198  0  3.706899  0  0  -0.075865  0  3.956662  0  0  -0.076172  0  3.975952  0  0  -0.077604  -0.07548  0  3.943594  0
C  C41  1  0.12004564  0.85400428  0.26216818  1  0  -0.053954  0  3.707214  0  0  -0.077737  0  3.957479  0  0  -0.078051  0  3.976754  0  0  -0.078302  -0.077385  0  3.944421  0
C  C42  1  0.97142047  0.25005951  0.00014536  1  0  0.381557  0  3.704563  0  0  0.362623  0  3.963129  0  0  0.384324  0  3.965613  0  0  0.161552  0.347731  0  3.961319  0
C  C43  1  0.02858907  0.75001610  0.99986971  1  0  0.381716  0  3.704043  0  0  0.362813  0  3.962599  0  0  0.384419  0  3.965243  0  0  0.1615  0.347924  0  3.960785  0
C  C44  1  0.96917659  0.28956953  0.17339888  1  0  -0.074045  0  3.715061  0  0  -0.095408  0  3.964672  0  0  -0.097149  0  3.986143  0  0  -0.078304  -0.094198  0  3.950311  0
C  C45  1  0.96890303  0.21051403  0.82681560  1  0  -0.071537  0  3.714409  0  0  -0.093047  0  3.963884  0  0  -0.094746  0  3.98526  0  0  -0.07764  -0.091869  0  3.949567  0
C  C46  1  0.03079784  0.71038942  0.82653902  1  0  -0.074132  0  3.714436  0  0  -0.09552  0  3.964102  0  0  -0.097261  0  3.985559  0  0  -0.078419  -0.094306  0  3.949735  0
C  C47  1  0.03111284  0.78949478  0.17313930  1  0  -0.07126  0  3.714638  0  0  -0.092742  0  3.964004  0  0  -0.094408  0  3.98541  0  0  -0.077423  -0.091566  0  3.949687  0
C  C48  1  0.58836406  0.51716238  0.36851850  1  0  0.681581  0  3.849286  0  0  0.626979  0  4.138828  0  0  0.663151  0  4.129068  0  0  0.225575  0.602307  0  4.144752  0
C  C49  1  0.58821083  0.98265572  0.63150355  1  0  0.681063  0  3.848427  0  0  0.626344  0  4.138236  0  0  0.662502  0  4.128518  0  0  0.225572  0.601695  0  4.144113  0
C  C50  1  0.41171566  0.48280765  0.63148930  1  0  0.681658  0  3.848032  0  0  0.626962  0  4.137706  0  0  0.663145  0  4.127926  0  0  0.225643  0.602305  0  4.143634  0
C  C51  1  0.41175411  0.01731866  0.36849448  1  0  0.681364  0  3.849053  0  0  0.626556  0  4.138933  0  0  0.662701  0  4.129215  0  0  0.225522  0.601891  0  4.144832  0
O  O52  1  0.99353985  0.75014804  0.49963878  1  0  -0.866124  0  1.896668  0  0  -0.793944  0  2.114463  0  0  -0.816879  0  2.077491  0  0  -0.585798  -0.777737  0  2.14009  0
O  O53  1  0.00644288  0.24983541  0.50055774  1  0  -0.865609  0  1.897205  0  0  -0.793418  0  2.114888  0  0  -0.816327  0  2.07792  0  0  -0.585755  -0.777251  0  2.140488  0
O  O54  1  0.40830475  0.60177874  0.37481027  1  0  -0.625291  0  2.058335  0  0  -0.551956  0  2.323356  0  0  -0.582206  0  2.31048  0  0  -0.299521  -0.530859  0  2.331606  0
O  O55  1  0.40821797  0.89805978  0.62512920  1  0  -0.625393  0  2.05779  0  0  -0.551736  0  2.322749  0  0  -0.582003  0  2.309864  0  0  -0.299432  -0.530651  0  2.331017  0
O  O56  1  0.59179094  0.39817833  0.62522338  1  0  -0.625315  0  2.057984  0  0  -0.551866  0  2.32299  0  0  -0.58213  0  2.310129  0  0  -0.299476  -0.530763  0  2.331226  0
O  O57  1  0.59172148  0.10193020  0.37488990  1  0  -0.625666  0  2.058089  0  0  -0.551926  0  2.323045  0  0  -0.582159  0  2.310126  0  0  -0.299464  -0.530841  0  2.331335  0
O  O58  1  0.16919629  0.25009112  0.00015783  1  0  -0.456035  0  1.916083  0  0  -0.413314  0  2.128328  0  0  -0.430643  0  2.12698  0  0  -0.254542  -0.401098  0  2.129112  0
O  O59  1  0.83082120  0.74996891  0.99983000  1  0  -0.456103  0  1.916238  0  0  -0.413372  0  2.128437  0  0  -0.43067  0  2.127148  0  0  -0.25457  -0.401155  0  2.129213  0
O  O60  1  0.69627659  0.50246331  0.44095532  1  0  -0.705756  0  2.13011  0  0  -0.637051  0  2.390109  0  0  -0.662913  0  2.372395  0  0  -0.323494  -0.618969  0  2.401896  0
O  O61  1  0.69602423  0.99732628  0.55912617  1  0  -0.704965  0  2.130154  0  0  -0.636664  0  2.390305  0  0  -0.662483  0  2.372562  0  0  -0.323531  -0.618582  0  2.402057  0
O  O62  1  0.30381745  0.49748541  0.55903003  1  0  -0.706001  0  2.129766  0  0  -0.63726  0  2.389827  0  0  -0.663118  0  2.372075  0  0  -0.323638  -0.619168  0  2.401605  0
O  O63  1  0.30392955  0.00262390  0.44085728  1  0  -0.704923  0  2.130138  0  0  -0.636705  0  2.390329  0  0  -0.662508  0  2.37259  0  0  -0.323461  -0.618641  0  2.402118  0
