# generated using pymatgen
data_CdH30C35N3O11
_symmetry_space_group_name_H-M   'P 1'
_cell_length_a   10.45014727
_cell_length_b   11.21976280
_cell_length_c   15.17203042
_cell_angle_alpha   98.49150337
_cell_angle_beta   92.63060834
_cell_angle_gamma   110.65361907
_symmetry_Int_Tables_number   1
_chemical_formula_structural   CdH30C35N3O11
_chemical_formula_sum   'Cd2 H60 C70 N6 O22'
_cell_volume   1637.06349008
_cell_formula_units_Z   2
loop_
 _symmetry_equiv_pos_site_id
 _symmetry_equiv_pos_as_xyz
  1  'x, y, z'
loop_
 _atom_site_type_symbol
 _atom_site_label
 _atom_site_symmetry_multiplicity
 _atom_site_fract_x
 _atom_site_fract_y
 _atom_site_fract_z
 _atom_site_occupancy
 _atom_site_pbe_bader_charge
 _atom_site_pbe_bader_spin_density
 _atom_site_pbe_cm5_charge
 _atom_site_pbe_ddec_charge
 _atom_site_pbe_ddec_spin_density
 _atom_site_pbe_ddec_sum_bond_order
 _atom_site_pbe_magmom
Cd  Cd0  1  0.18942339  0.63454559  0.80650821  1  1.295084  0  0.757052  0.987005  0  2.029848  0
Cd  Cd1  1  0.81057447  0.36545265  0.19349110  1  1.295176  0  0.757101  0.987058  0  2.029819  0
H  H2  1  0.05611422  0.59885146  0.96033045  1  0.649547  0  0.289322  0.380884  0  0.969346  0
H  H3  1  0.94388671  0.40115266  0.03967351  1  0.649616  0  0.289332  0.380876  0  0.96933  0
H  H4  1  0.08731935  0.46434052  0.94359111  1  0.636857  0  0.282398  0.37572  0  0.978232  0
H  H5  1  0.91267964  0.53566356  0.05641345  1  0.636845  0  0.282355  0.375679  0  0.978276  0
H  H6  1  0.57436141  0.55724002  0.93466469  1  0.168147  0  0.119617  0.141317  0  1.029081  0
H  H7  1  0.42564744  0.44276996  0.06533422  1  0.168187  0  0.119669  0.141238  0  1.029204  0
H  H8  1  0.31342062  0.22693091  0.74191668  1  0.146078  0  0.12399  0.135865  0  0.976521  0
H  H9  1  0.68657504  0.77306923  0.25808538  1  0.146364  0  0.124004  0.135828  0  0.976608  0
H  H10  1  0.18719719  0.08270796  0.90525068  1  0.08468  0  0.098707  0.099025  0  1.024341  0
H  H11  1  0.81279761  0.91729496  0.09474636  1  0.084707  0  0.098725  0.099026  0  1.024438  0
H  H12  1  0.70390079  0.42244182  0.97780367  1  0.205448  0  0.133677  0.121872  0  1.035526  0
H  H13  1  0.29610737  0.57756618  0.02219172  1  0.205639  0  0.133677  0.121822  0  1.035597  0
H  H14  1  0.45940327  0.10427892  0.78988290  1  0.179038  0  0.143078  0.125896  0  0.957379  0
H  H15  1  0.54059344  0.89572415  0.21012213  1  0.178208  0  0.143074  0.125939  0  0.957387  0
H  H16  1  0.60069709  0.12606710  0.96134376  1  0.108347  0  0.121898  0.118963  0  1.010236  0
H  H17  1  0.39931035  0.87393908  0.03865999  1  0.108264  0  0.121919  0.119009  0  1.010369  0
H  H18  1  0.75247068  0.25841292  0.96114223  1  0.14868  0  0.123345  0.11837  0  1.023642  0
H  H19  1  0.24753746  0.74159515  0.03885844  1  0.148728  0  0.12334  0.118349  0  1.023778  0
H  H20  1  0.62432710  0.93622838  0.97879036  1  0.08331  0  0.092724  0.137936  0  1.016938  0
H  H21  1  0.37566374  0.06377160  0.02120822  1  0.083167  0  0.092731  0.137968  0  1.016924  0
H  H22  1  0.53625418  0.80441214  0.89071316  1  0.026742  0  0.092384  0.145179  0  1.046411  0
H  H23  1  0.46373280  0.19558768  0.10928065  1  0.026803  0  0.092397  0.145195  0  1.046415  0
H  H24  1  0.48693326  0.93895166  0.90619080  1  0.084248  0  0.092077  0.137346  0  1.028768  0
H  H25  1  0.51306576  0.06105232  0.09380583  1  0.084147  0  0.092098  0.137408  0  1.028779  0
H  H26  1  0.76296267  0.33268089  0.75684207  1  0.010519  0  0.087917  0.117924  0  1.031015  0
H  H27  1  0.23704828  0.66732441  0.24316106  1  0.010387  0  0.087903  0.117874  0  1.030963  0
H  H28  1  0.94020529  0.36023150  0.76427103  1  0.043838  0  0.096255  0.137968  0  1.027785  0
H  H29  1  0.05980232  0.63976987  0.23573026  1  0.043909  0  0.096225  0.137966  0  1.027736  0
H  H30  1  0.85932951  0.36768881  0.86278098  1  0.061344  0  0.098573  0.140231  0  1.024714  0
H  H31  1  0.14068364  0.63231459  0.13722005  1  0.061402  0  0.098573  0.140237  0  1.024624  0
H  H32  1  0.83579474  0.76949109  0.81989474  1  0.153996  0  0.115525  0.10705  0  1.055981  0
H  H33  1  0.16419838  0.23050995  0.18010732  1  0.153908  0  0.115506  0.107039  0  1.055968  0
H  H34  1  0.67760650  0.74536676  0.86382870  1  0.104391  0  0.118573  0.114258  0  1.007528  0
H  H35  1  0.32239242  0.25463438  0.13617160  1  0.104381  0  0.118554  0.114235  0  1.007517  0
H  H36  1  0.06174471  0.26160903  0.73319316  1  0.171788  0  0.12234  0.130988  0  1.028394  0
H  H37  1  0.93826081  0.73838649  0.26680417  1  0.171769  0  0.122375  0.131032  0  1.028443  0
H  H38  1  0.05079677  0.11614236  0.66643924  1  0.081641  0  0.118504  0.106535  0  0.991844  0
H  H39  1  0.94920057  0.88384912  0.33355673  1  0.08151  0  0.118516  0.106569  0  0.99189  0
H  H40  1  0.97936793  0.94486285  0.63726870  1  -0.005494  0  0.08707  0.121658  0  1.026268  0
H  H41  1  0.02062660  0.05513148  0.36273075  1  -0.005546  0  0.087065  0.121641  0  1.026221  0
H  H42  1  0.81675676  0.82084570  0.62096292  1  0.141666  0  0.094229  0.149567  0  1.029373  0
H  H43  1  0.18323715  0.17914958  0.37903660  1  0.141766  0  0.094257  0.149561  0  1.02933  0
H  H44  1  0.94024560  0.83018815  0.70956752  1  0.07223  0  0.093179  0.137325  0  1.019049  0
H  H45  1  0.05974637  0.16980710  0.29043326  1  0.072357  0  0.093175  0.137317  0  1.019042  0
H  H46  1  0.82371069  0.59752995  0.74203532  1  0.191523  0  0.135039  0.132901  0  0.999853  0
H  H47  1  0.17628548  0.40246645  0.25797298  1  0.191548  0  0.135046  0.132907  0  0.999924  0
H  H48  1  0.50290537  0.73019255  0.70668973  1  0.168459  0  0.137986  0.124883  0  0.97395  0
H  H49  1  0.49709216  0.26980465  0.29330419  1  0.168876  0  0.137995  0.124829  0  0.974008  0
H  H50  1  0.74286727  0.12677673  0.60801697  1  0.156509  0  0.137972  0.119589  0  0.977034  0
H  H51  1  0.25713939  0.87322456  0.39198032  1  0.156476  0  0.137977  0.119639  0  0.976845  0
H  H52  1  0.16285968  0.31780008  0.59880064  1  0.212063  0  0.132319  0.124317  0  1.024594  0
H  H53  1  0.83714540  0.68219157  0.40119430  1  0.211996  0  0.132375  0.124328  0  1.024611  0
H  H54  1  0.70148324  0.39599309  0.62557375  1  0.120533  0  0.110502  0.119115  0  1.026036  0
H  H55  1  0.29851820  0.60399677  0.37443736  1  0.120288  0  0.110509  0.119166  0  1.026011  0
H  H56  1  0.36806555  0.53165470  0.59509231  1  0.133714  0  0.118551  0.133364  0  0.987977  0
H  H57  1  0.63193926  0.46833889  0.40490545  1  0.134095  0  0.118535  0.133373  0  0.988054  0
H  H58  1  0.68402337  0.20549851  0.47033358  1  0.230561  0  0.122429  0.159204  0  1.00863  0
H  H59  1  0.31597019  0.79449580  0.52966584  1  0.23066  0  0.122455  0.159214  0  1.008546  0
H  H60  1  0.12089791  0.39966930  0.46082533  1  0.138548  0  0.119788  0.133269  0  0.993949  0
H  H61  1  0.87909741  0.60032984  0.53917464  1  0.139364  0  0.119779  0.133201  0  0.994043  0
C  C62  1  0.34493055  0.47885617  0.81536650  1  1.623229  0  0.198632  0.550489  0  4.247376  0
C  C63  1  0.65507803  0.52115576  0.18463523  1  1.629548  0  0.198511  0.550247  0  4.247712  0
C  C64  1  0.10536457  0.82575982  0.89286272  1  1.557013  0  0.193491  0.569471  0  4.229291  0
C  C65  1  0.89462944  0.17423831  0.10713513  1  1.557235  0  0.193346  0.569166  0  4.229547  0
C  C66  1  0.43067296  0.40104476  0.83610492  1  -0.036474  0  0.026122  0.047882  0  3.905363  0
C  C67  1  0.56933106  0.59896511  0.16389447  1  -0.036698  0  0.026172  0.047896  0  3.905292  0
C  C68  1  0.05190722  0.91401885  0.95081598  1  -0.030858  0  -0.01115  -0.036779  0  3.946866  0
C  C69  1  0.94809047  0.08598414  0.04918117  1  -0.031101  0  -0.011114  -0.036556  0  3.94664  0
C  C70  1  0.54337476  0.45736573  0.90102952  1  0.142181  0  -0.059865  -0.117825  0  3.905957  0
C  C71  1  0.45663172  0.54264038  0.09897023  1  0.14329  0  -0.059909  -0.117728  0  3.905812  0
C  C72  1  0.39925936  0.27274320  0.79399776  1  0.011269  0  -0.056582  -0.113571  0  3.920595  0
C  C73  1  0.60074193  0.72726186  0.20600433  1  0.010758  0  -0.056555  -0.113412  0  3.920446  0
C  C74  1  0.94590588  0.86702577  0.00520458  1  0.012464  0  -0.010368  -0.042677  0  3.936034  0
C  C75  1  0.05409444  0.13297924  0.99479551  1  0.012288  0  -0.010354  -0.042675  0  3.935928  0
C  C76  1  0.10470048  0.04586835  0.94697060  1  -0.07706  0  -0.084703  -0.124664  0  3.970576  0
C  C77  1  0.89529914  0.95413473  0.05302992  1  -0.077087  0  -0.084669  -0.124655  0  3.970609  0
C  C78  1  0.61746561  0.38491599  0.92550784  1  0.3436  0  0.076489  0.065122  0  3.781487  0
C  C79  1  0.38253552  0.61509378  0.07448880  1  0.342502  0  0.076477  0.065102  0  3.781562  0
C  C80  1  0.47776134  0.20421891  0.81934954  1  0.361434  0  0.072066  0.04079  0  3.827212  0
C  C81  1  0.52223669  0.79578512  0.18065300  1  0.362334  0  0.072077  0.04068  0  3.82695  0
C  C82  1  0.88603307  0.72797486  0.01840312  1  1.601339  0  0.204212  0.584023  0  4.219867  0
C  C83  1  0.11397051  0.27203118  0.98159718  1  1.601541  0  0.204154  0.583882  0  4.219934  0
C  C84  1  0.66412829  0.18636996  0.91768799  1  0.203693  0  -0.051252  -0.126811  0  3.839079  0
C  C85  1  0.33587485  0.81363221  0.08230993  1  0.203577  0  -0.051281  -0.126948  0  3.839408  0
C  C86  1  0.71365035  0.10833247  0.84747277  1  -0.022953  0  -0.024161  -0.053515  0  3.942259  0
C  C87  1  0.28635243  0.89166878  0.15252834  1  -0.022952  0  -0.024159  -0.053389  0  3.942157  0
C  C88  1  0.67917764  0.97493179  0.84801955  1  -0.058284  0  0.003292  0.107172  0  3.934005  0
C  C89  1  0.32082041  0.02507217  0.15197771  1  -0.058444  0  0.003299  0.107082  0  3.934155  0
C  C90  1  0.81040527  0.17265354  0.79257594  1  0.023095  0  -0.001242  0.09829  0  3.953773  0
C  C91  1  0.18960068  0.82734586  0.20742443  1  0.023564  0  -0.001211  0.098324  0  3.953757  0
C  C92  1  0.74517748  0.90681744  0.79331069  1  0.03494  0  -0.019724  -0.040423  0  3.91708  0
C  C93  1  0.25481266  0.09318059  0.20668635  1  0.035006  0  -0.019773  -0.040363  0  3.917042  0
C  C94  1  0.57677882  0.90983868  0.90889509  1  -0.107434  0  -0.24976  -0.437959  0  3.936683  0
C  C95  1  0.42321386  0.09015850  0.09110525  1  -0.107193  0  -0.249788  -0.438062  0  3.936922  0
C  C96  1  0.87297188  0.10203296  0.73659816  1  -0.002337  0  -0.02472  -0.05616  0  3.957935  0
C  C97  1  0.12703310  0.89796641  0.26340217  1  -0.00294  0  -0.024754  -0.056189  0  3.957811  0
C  C98  1  0.84553847  0.31508455  0.79407817  1  -0.02921  0  -0.245659  -0.419595  0  3.946799  0
C  C99  1  0.15447047  0.68491781  0.20592327  1  -0.029211  0  -0.245618  -0.419584  0  3.946637  0
C  C100  1  0.73310725  0.77293634  0.80613211  1  0.180963  0  -0.05484  -0.13504  0  3.855656  0
C  C101  1  0.26688939  0.22706377  0.19386603  1  0.181078  0  -0.054818  -0.13505  0  3.85569  0
C  C102  1  0.83875263  0.96830924  0.73497361  1  -0.041514  0  0.003469  0.110665  0  3.919952  0
C  C103  1  0.16124330  0.03168896  0.26502629  1  -0.041104  0  0.003496  0.110725  0  3.91993  0
C  C104  1  0.99023306  0.17488791  0.68874829  1  0.181692  0  -0.053642  -0.136491  0  3.877477  0
C  C105  1  0.00976789  0.82510558  0.31124867  1  0.182867  0  -0.05362  -0.136612  0  3.877805  0
C  C106  1  0.89749904  0.88780080  0.67310919  1  -0.122639  0  -0.247047  -0.425518  0  3.940726  0
C  C107  1  0.10249321  0.11219249  0.32688810  1  -0.1231  0  -0.247072  -0.425529  0  3.940756  0
C  C108  1  0.72233067  0.57628814  0.70744571  1  0.313158  0  0.062559  0.032332  0  3.82766  0
C  C109  1  0.27766323  0.42370719  0.29255777  1  0.312659  0  0.062538  0.032232  0  3.827735  0
C  C110  1  0.54096617  0.65235766  0.68795540  1  0.415643  0  0.07733  0.069257  0  3.799448  0
C  C111  1  0.45903618  0.34763971  0.31204266  1  0.41515  0  0.077308  0.069223  0  3.799235  0
C  C112  1  0.82112770  0.18818891  0.57261906  1  0.36384  0  0.070448  0.049316  0  3.817851  0
C  C113  1  0.17887334  0.81180743  0.42737555  1  0.363885  0  0.070475  0.049212  0  3.81755  0
C  C114  1  0.05907322  0.29671764  0.56854919  1  0.408018  0  0.07478  0.065631  0  3.796529  0
C  C115  1  0.94093036  0.70327784  0.43144872  1  0.407972  0  0.074778  0.065634  0  3.796421  0
C  C116  1  0.65393561  0.46674752  0.64446744  1  0.024403  0  -0.074536  -0.138113  0  3.970116  0
C  C117  1  0.34606548  0.53324130  0.35553828  1  0.025342  0  -0.074566  -0.13806  0  3.970059  0
C  C118  1  0.46810729  0.54217719  0.62614912  1  0.008963  0  -0.063785  -0.115724  0  3.926687  0
C  C119  1  0.53189944  0.45781649  0.37385202  1  0.008258  0  -0.063745  -0.115568  0  3.926816  0
C  C120  1  0.79109133  0.23029408  0.49576064  1  -0.005433  0  -0.059992  -0.124172  0  3.897989  0
C  C121  1  0.20889968  0.76970111  0.50423811  1  -0.005644  0  -0.060026  -0.124177  0  3.898014  0
C  C122  1  0.03425200  0.34098543  0.49173280  1  0.022  0  -0.057413  -0.104687  0  3.908721  0
C  C123  1  0.96574208  0.65901561  0.50826798  1  0.02116  0  -0.057365  -0.104536  0  3.908855  0
C  C124  1  0.52253792  0.44550273  0.60442782  1  0.056703  0  0.017225  0.036524  0  3.872712  0
C  C125  1  0.47747013  0.55449197  0.39557544  1  0.056809  0  0.017203  0.036338  0  3.87286  0
C  C126  1  0.89920417  0.30734957  0.45394610  1  0.022891  0  0.020646  0.035264  0  3.901853  0
C  C127  1  0.10078764  0.69265043  0.54605251  1  0.023027  0  0.020567  0.035112  0  3.902124  0
C  C128  1  0.44225107  0.31940519  0.53871957  1  1.662692  0  0.171599  0.537322  0  4.353374  0
C  C129  1  0.55775716  0.68058470  0.46128190  1  1.662115  0  0.171752  0.537704  0  4.352899  0
C  C130  1  0.87189684  0.34866826  0.36708070  1  1.587311  0  0.191554  0.54699  0  4.24626  0
C  C131  1  0.12809417  0.65132693  0.63291806  1  1.587594  0  0.191629  0.547122  0  4.246131  0
N  N132  1  0.58384328  0.26057239  0.88493130  1  -1.211708  0  -0.202692  0.111515  0  3.714038  0
N  N133  1  0.41615863  0.73943169  0.11506809  1  -1.211851  0  -0.20269  0.111645  0  3.714011  0
N  N134  1  0.66389252  0.66581436  0.72937673  1  -1.214981  0  -0.207399  0.105964  0  3.712836  0
N  N135  1  0.33610605  0.33418580  0.27062148  1  -1.214772  0  -0.207357  0.106045  0  3.71242  0
N  N136  1  0.95324815  0.22097611  0.60707533  1  -1.203435  0  -0.201282  0.109726  0  3.704991  0
N  N137  1  0.04675535  0.77901643  0.39291833  1  -1.204281  0  -0.201382  0.109824  0  3.704974  0
O  O138  1  0.23381044  0.42361655  0.76442129  1  -1.173457  0  -0.314099  -0.551398  0  2.211801  0
O  O139  1  0.76619357  0.57639337  0.23558206  1  -1.173451  0  -0.314038  -0.551313  0  2.21197  0
O  O140  1  0.39054573  0.59797341  0.85199033  1  -1.161404  0  -0.318854  -0.552279  0  2.233228  0
O  O141  1  0.60946084  0.40203556  0.14800905  1  -1.167487  0  -0.318895  -0.552263  0  2.233265  0
O  O142  1  0.11975701  0.55851145  0.93390295  1  -1.271021  0  -0.594677  -0.779631  0  2.170341  0
O  O143  1  0.88024391  0.44149267  0.06610102  1  -1.271039  0  -0.594667  -0.779572  0  2.170438  0
O  O144  1  0.01765083  0.72811574  0.84071955  1  -1.158481  0  -0.331003  -0.572803  0  2.22152  0
O  O145  1  0.98234413  0.27188242  0.15927965  1  -1.158368  0  -0.331025  -0.572753  0  2.221495  0
O  O146  1  0.23441921  0.85114560  0.89696318  1  -1.175475  0  -0.331686  -0.567186  0  2.157457  0
O  O147  1  0.76557575  0.14885258  0.10303734  1  -1.175651  0  -0.331578  -0.567063  0  2.157601  0
O  O148  1  0.03178442  0.56428015  0.66013204  1  -1.157834  0  -0.325784  -0.559857  0  2.157439  0
O  O149  1  0.96820535  0.43571695  0.33986819  1  -1.158066  0  -0.325755  -0.559819  0  2.157319  0
O  O150  1  0.24776872  0.71181341  0.67551312  1  -1.144985  0  -0.329698  -0.55056  0  2.168721  0
O  O151  1  0.75222396  0.28818377  0.32448722  1  -1.144594  0  -0.329691  -0.550543  0  2.16894  0
O  O152  1  0.97236393  0.67125926  0.02893569  1  -1.205989  0  -0.328038  -0.577294  0  2.265703  0
O  O153  1  0.02763604  0.32874479  0.97106495  1  -1.205986  0  -0.328089  -0.577292  0  2.265677  0
O  O154  1  0.75908047  0.67956020  0.02305481  1  -1.168575  0  -0.330414  -0.558677  0  2.137267  0
O  O155  1  0.24092345  0.32044684  0.97694824  1  -1.168629  0  -0.33037  -0.5586  0  2.137289  0
O  O156  1  0.31859361  0.30312183  0.51474346  1  -1.195664  0  -0.35271  -0.601329  0  2.164583  0
O  O157  1  0.68141162  0.69686517  0.48526222  1  -1.195294  0  -0.352662  -0.601425  0  2.164461  0
O  O158  1  0.50797553  0.24673752  0.51619739  1  -1.189526  0  -0.362202  -0.588646  0  2.096862  0
O  O159  1  0.49203421  0.75325906  0.48380085  1  -1.189441  0  -0.362382  -0.588866  0  2.096583  0
