# generated using pymatgen
data_CdH4C7(N3O)2
_symmetry_space_group_name_H-M   'P 1'
_cell_length_a   3.57557487
_cell_length_b   11.46566007
_cell_length_c   12.00521676
_cell_angle_alpha   70.78052582
_cell_angle_beta   82.82550589
_cell_angle_gamma   87.40357743
_symmetry_Int_Tables_number   1
_chemical_formula_structural   CdH4C7(N3O)2
_chemical_formula_sum   'Cd2 H8 C14 N12 O4'
_cell_volume   461.09514508
_cell_formula_units_Z   2
loop_
 _symmetry_equiv_pos_site_id
 _symmetry_equiv_pos_as_xyz
  1  'x, y, z'
loop_
 _atom_site_type_symbol
 _atom_site_label
 _atom_site_symmetry_multiplicity
 _atom_site_fract_x
 _atom_site_fract_y
 _atom_site_fract_z
 _atom_site_occupancy
 _atom_site_hle17_bader_spin_density
 _atom_site_hle17_ddec_charge
 _atom_site_hle17_ddec_spin_density
 _atom_site_hle17_ddec_sum_bond_order
 _atom_site_hle17_magmom
 _atom_site_hse06_10hf_bader_spin_density
 _atom_site_hse06_10hf_ddec_charge
 _atom_site_hse06_10hf_ddec_spin_density
 _atom_site_hse06_10hf_ddec_sum_bond_order
 _atom_site_hse06_10hf_magmom
 _atom_site_hse06_bader_spin_density
 _atom_site_hse06_ddec_charge
 _atom_site_hse06_ddec_spin_density
 _atom_site_hse06_ddec_sum_bond_order
 _atom_site_hse06_magmom
 _atom_site_pbe_bader_spin_density
 _atom_site_pbe_cm5_charge
 _atom_site_pbe_ddec_charge
 _atom_site_pbe_ddec_spin_density
 _atom_site_pbe_ddec_sum_bond_order
 _atom_site_pbe_magmom
Cd  Cd0  1  0.31515828  0.50062900  0.36581222  1  0  1.188911  0  1.834473  0  0  1.023299  0  2.284313  0  0  1.066144  0  2.246947  0  0  0.811418  0.992836  0  2.309737  0
Cd  Cd1  1  0.68484035  0.49937109  0.63418797  1  0  1.188868  0  1.834507  0  0  1.023267  0  2.284322  0  0  1.0661  0  2.246974  0  0  0.811395  0.992791  0  2.309759  0
H  H2  1  0.11067521  0.52439280  0.09147372  1  0  0.095074  0  0.957548  0  0  0.100365  0  1.026887  0  0  0.102305  0  1.024577  0  0  0.132374  0.098671  0  1.028947  0
H  H3  1  0.88932341  0.47560728  0.90852731  1  0  0.095081  0  0.957549  0  0  0.100356  0  1.026906  0  0  0.102307  0  1.024586  0  0  0.132372  0.098671  0  1.028955  0
H  H4  1  0.72699179  0.99827920  0.40359960  1  0  0.094907  0  0.927149  0  0  0.104005  0  0.988221  0  0  0.10654  0  0.985113  0  0  0.123849  0.102074  0  0.990534  0
H  H5  1  0.27300969  0.00171997  0.59639994  1  0  0.094935  0  0.927124  0  0  0.104028  0  0.988198  0  0  0.106566  0  0.985089  0  0  0.123842  0.102075  0  0.990543  0
H  H6  1  0.68289996  0.95797001  0.21284025  1  0  0.136974  0  0.961223  0  0  0.144063  0  1.019851  0  0  0.147448  0  1.019637  0  0  0.117353  0.141506  0  1.020504  0
H  H7  1  0.31710148  0.04203193  0.78715843  1  0  0.13695  0  0.961233  0  0  0.144024  0  1.019883  0  0  0.147407  0  1.019673  0  0  0.117313  0.141466  0  1.020546  0
H  H8  1  0.43955003  0.13185858  0.04091856  1  0  0.13006  0  0.931002  0  0  0.138445  0  0.991987  0  0  0.14155  0  0.987747  0  0  0.139953  0.136077  0  0.994284  0
H  H9  1  0.56045425  0.86814244  0.95908031  1  0  0.130127  0  0.931008  0  0  0.138513  0  0.991992  0  0  0.141623  0  0.98775  0  0  0.140018  0.136157  0  0.994284  0
C  C10  1  0.21549228  0.43079767  0.12813175  1  0  0.234476  0  3.714007  0  0  0.179274  0  4.008907  0  0  0.194412  0  4.018598  0  0  0.153553  0.170048  0  3.999766  0
C  C11  1  0.78450918  0.56920242  0.87186834  1  0  0.234469  0  3.714001  0  0  0.179269  0  4.008889  0  0  0.194411  0  4.018592  0  0  0.153568  0.170056  0  3.999738  0
C  C12  1  0.42384114  0.26731460  0.25130309  1  0  0.446298  0  3.807302  0  0  0.391497  0  4.082818  0  0  0.420129  0  4.096219  0  0  0.33354  0.378616  0  4.073612  0
C  C13  1  0.57615751  0.73268550  0.74869627  1  0  0.446183  0  3.807447  0  0  0.391474  0  4.08285  0  0  0.420091  0  4.096268  0  0  0.333503  0.37858  0  4.073643  0
C  C14  1  0.63013653  0.07139386  0.32853475  1  0  0.184604  0  3.655207  0  0  0.144535  0  3.93116  0  0  0.15833  0  3.942089  0  0  0.071084  0.136015  0  3.923159  0
C  C15  1  0.36986209  0.92860715  0.67146515  1  0  0.184499  0  3.655105  0  0  0.144442  0  3.931045  0  0  0.158225  0  3.941983  0  0  0.071019  0.135927  0  3.92306  0
C  C16  1  0.60350265  0.04744502  0.22148486  1  0  -0.171022  0  3.714583  0  0  -0.18685  0  3.984936  0  0  -0.19817  0  4.00253  0  0  -0.081761  -0.179702  0  3.971237  0
C  C17  1  0.39649601  0.95255508  0.77851450  1  0  -0.170983  0  3.714605  0  0  -0.186777  0  3.984932  0  0  -0.198097  0  4.002522  0  0  -0.081708  -0.179632  0  3.971239  0
C  C18  1  0.47561384  0.13866163  0.12729218  1  0  0.107607  0  3.593208  0  0  0.046054  0  3.85045  0  0  0.066627  0  3.867611  0  0  0.07187  0.039846  0  3.84123  0
C  C19  1  0.52438760  0.86133938  0.87270762  1  0  0.10752  0  3.593267  0  0  0.04593  0  3.850537  0  0  0.066511  0  3.867684  0  0  0.071799  0.039726  0  3.841305  0
C  C20  1  0.80852726  0.27866620  0.54036061  1  0  0.69585  0  4.001825  0  0  0.633504  0  4.307737  0  0  0.671641  0  4.307021  0  0  0.293342  0.607488  0  4.307722  0
C  C21  1  0.19146855  0.72133296  0.45964080  1  0  0.695826  0  4.001895  0  0  0.633483  0  4.307809  0  0  0.671619  0  4.307094  0  0  0.293322  0.607457  0  4.307793  0
C  C22  1  0.87586276  0.72283852  0.18927055  1  0  0.668202  0  4.035933  0  0  0.617367  0  4.33269  0  0  0.653997  0  4.332606  0  0  0.282441  0.592329  0  4.332426  0
C  C23  1  0.12413587  0.27716157  0.81072964  1  0  0.668158  0  4.035955  0  0  0.617316  0  4.332717  0  0  0.653945  0  4.332638  0  0  0.28241  0.592275  0  4.332454  0
N  N24  1  0.24798917  0.35226496  0.06624858  1  0  -0.282969  0  2.819455  0  0  -0.286958  0  3.096315  0  0  -0.288764  0  3.116073  0  0  -0.226175  -0.279168  0  3.086552  0
N  N25  1  0.75201227  0.64773605  0.93375123  1  0  -0.282947  0  2.819445  0  0  -0.286896  0  3.096262  0  0  -0.288741  0  3.116062  0  0  -0.226178  -0.279151  0  3.086542  0
N  N26  1  0.31821753  0.38482928  0.23945855  1  0  -0.49844  0  3.137222  0  0  -0.428218  0  3.42588  0  0  -0.452968  0  3.435277  0  0  -0.350814  -0.411151  0  3.416576  0
N  N27  1  0.68178392  0.61517080  0.76054154  1  0  -0.498388  0  3.137279  0  0  -0.428204  0  3.425924  0  0  -0.452956  0  3.435325  0  0  -0.350798  -0.41115  0  3.416649  0
N  N28  1  0.54545988  0.17992017  0.34398362  1  0  -0.37459  0  3.010695  0  0  -0.338824  0  3.290461  0  0  -0.355632  0  3.299996  0  0  -0.304792  -0.327778  0  3.282117  0
N  N29  1  0.45454159  0.82007899  0.65601676  1  0  -0.37447  0  3.01061  0  0  -0.338729  0  3.290351  0  0  -0.355541  0  3.299898  0  0  -0.304712  -0.327684  0  3.282004  0
N  N30  1  0.38261715  0.24829196  0.14448925  1  0  -0.004056  0  3.625931  0  0  0.112534  0  3.807792  0  0  0.072153  0  3.86943  0  0  -0.110429  0.119187  0  3.791863  0
N  N31  1  0.61738429  0.75170812  0.85551167  1  0  -0.004027  0  3.625905  0  0  0.112528  0  3.807745  0  0  0.072167  0  3.869388  0  0  -0.110428  0.119204  0  3.79182  0
N  N32  1  0.76931907  0.38890090  0.48943081  1  0  -0.890042  0  2.994039  0  0  -0.799256  0  3.304528  0  0  -0.834133  0  3.301689  0  0  -0.503589  -0.774857  0  3.305733  0
N  N33  1  0.23067959  0.61109734  0.51056995  1  0  -0.889979  0  2.994048  0  0  -0.799194  0  3.304534  0  0  -0.834077  0  3.3017  0  0  -0.503539  -0.774799  0  3.305744  0
N  N34  1  0.83481839  0.62249116  0.26463279  1  0  -0.848006  0  2.95006  0  0  -0.770849  0  3.253818  0  0  -0.803825  0  3.253592  0  0  -0.49119  -0.747998  0  3.253532  0
N  N35  1  0.16518024  0.37750800  0.73536852  1  0  -0.847927  0  2.950078  0  0  -0.770753  0  3.253805  0  0  -0.803742  0  3.253597  0  0  -0.491146  -0.747917  0  3.253544  0
O  O36  1  0.85302683  0.17210076  0.59308030  1  0  -0.437492  0  2.027569  0  0  -0.392308  0  2.244103  0  0  -0.414946  0  2.237852  0  0  -0.216488  -0.376861  0  2.248129  0
O  O37  1  0.14696902  0.82789748  0.40692057  1  0  -0.43752  0  2.027627  0  0  -0.392352  0  2.24417  0  0  -0.414975  0  2.23792  0  0  -0.216521  -0.37689  0  2.248193  0
O  O38  1  0.92047817  0.82258000  0.11416596  1  0  -0.476357  0  2.003593  0  0  -0.431697  0  2.203944  0  0  -0.452842  0  2.195272  0  0  -0.24553  -0.417173  0  2.209586  0
O  O39  1  0.07952047  0.17741917  0.88583452  1  0  -0.476362  0  2.003551  0  0  -0.431708  0  2.203913  0  0  -0.452837  0  2.195237  0  0  -0.245538  -0.417168  0  2.209546  0
