# generated using pymatgen
data_Cu3H32C18N8O13
_symmetry_space_group_name_H-M   'P 1'
_cell_length_a   11.20143603
_cell_length_b   11.20946371
_cell_length_c   12.49297975
_cell_angle_alpha   105.03351796
_cell_angle_beta   104.83325992
_cell_angle_gamma   102.73963401
_symmetry_Int_Tables_number   1
_chemical_formula_structural   Cu3H32C18N8O13
_chemical_formula_sum   'Cu6 H64 C36 N16 O26'
_cell_volume   1393.59211006
_cell_formula_units_Z   2
loop_
 _symmetry_equiv_pos_site_id
 _symmetry_equiv_pos_as_xyz
  1  'x, y, z'
loop_
 _atom_site_type_symbol
 _atom_site_label
 _atom_site_symmetry_multiplicity
 _atom_site_fract_x
 _atom_site_fract_y
 _atom_site_fract_z
 _atom_site_occupancy
 _atom_site_pbe_bader_charge
 _atom_site_pbe_bader_spin_density
 _atom_site_pbe_cm5_charge
 _atom_site_pbe_ddec_charge
 _atom_site_pbe_ddec_spin_density
 _atom_site_pbe_ddec_sum_bond_order
 _atom_site_pbe_magmom
Cu  Cu0  1  0.75961376  0.69298747  0.78805185  1  1.023935  -0.565872  0.716585  0.846195  -0.737249  2.122762  -0.564
Cu  Cu1  1  0.30581006  0.24108350  0.71514563  1  1.017556  -0.560622  0.717929  0.84887  -0.730924  2.096026  -0.559
Cu  Cu2  1  0.24160540  0.30584862  0.21448161  1  1.019313  -0.561674  0.718434  0.850751  -0.732899  2.096  -0.56
Cu  Cu3  1  0.69182125  0.75967469  0.28589799  1  1.023688  0.564345  0.716491  0.844141  0.755261  2.122061  0.563
Cu  Cu4  1  0.15196460  0.84546320  0.24918912  1  1.052395  -0.582079  0.710109  0.891794  -0.751515  2.157628  -0.58
Cu  Cu5  1  0.84588345  0.15174391  0.74687972  1  1.050718  0.576691  0.708898  0.885427  0.762732  2.153328  0.574
H  H6  1  0.39171605  0.66893584  0.96659701  1  0.085387  0.000301  0.105829  0.092289  0.000363  1.068276  0.0
H  H7  1  0.32515471  0.60870550  0.52985235  1  0.117769  -0.00037  0.105005  0.09054  -0.000322  1.072428  0.0
H  H8  1  0.61117147  0.32524969  0.02861579  1  0.099982  -0.000313  0.104918  0.091206  -0.000323  1.071026  0.0
H  H9  1  0.66834865  0.39386266  0.46554054  1  0.105244  -0.000296  0.105829  0.092693  -0.000363  1.067486  0.0
H  H10  1  0.19908103  0.95778537  0.95551893  1  0.086375  -0.000677  0.104229  0.100691  -0.000548  1.040188  0.0
H  H11  1  0.04093669  0.80595160  0.55319488  1  0.090635  -0.000311  0.103682  0.098258  -0.000199  1.046036  0.0
H  H12  1  0.80545307  0.03893008  0.05124808  1  0.082855  0.00028  0.104354  0.098634  0.000201  1.048668  0.0
H  H13  1  0.95741992  0.20104703  0.45493260  1  0.096913  0.000166  0.104224  0.100552  0.000139  1.039278  0.0
H  H14  1  0.47511570  0.92574141  0.77444382  1  0.09108  -0.000331  0.106868  0.106921  -0.000227  1.029247  0.0
H  H15  1  0.07747222  0.52854615  0.73098695  1  0.128429  -0.000365  0.107943  0.108609  -0.000273  1.028817  0.0
H  H16  1  0.52691756  0.07750390  0.22825618  1  0.106168  -0.000534  0.107426  0.107339  -0.00045  1.0298  0.0
H  H17  1  0.92491156  0.47448226  0.27194683  1  0.099397  -0.000832  0.10765  0.10774  -0.000729  1.030365  0.0
H  H18  1  0.93548532  0.95361903  0.20581268  1  0.616955  1.9e-05  0.281174  0.379577  -7.7e-05  0.96413  0.0
H  H19  1  0.06148800  0.07617616  0.28002849  1  0.634661  2.3e-05  0.281967  0.37874  -6.5e-05  0.965712  0.0
H  H20  1  0.07736724  0.06444771  0.77456504  1  0.631384  -7e-06  0.282905  0.377041  -3.9e-05  0.967832  0.0
H  H21  1  0.95641900  0.93791235  0.70001243  1  0.640477  1e-06  0.280901  0.378162  6.5e-05  0.966749  0.0
H  H22  1  0.67461647  0.45828982  0.64936593  1  0.474715  -0.000469  0.289495  0.335662  -0.000652  0.957069  -0.001
H  H23  1  0.54208367  0.32564661  0.84747774  1  0.464687  -0.000483  0.293007  0.336426  -0.000637  0.9436  -0.001
H  H24  1  0.32528430  0.54190510  0.34865566  1  0.466147  -0.000419  0.291891  0.336421  -0.000623  0.946815  -0.001
H  H25  1  0.45654576  0.67400773  0.14934058  1  0.468575  0.000467  0.290244  0.335729  0.000689  0.953354  0.001
H  H26  1  0.54797818  0.51435841  0.64913113  1  0.460657  -0.000634  0.287764  0.335524  -0.000806  0.970571  -0.001
H  H27  1  0.48698336  0.45297562  0.85096311  1  0.497978  -0.000549  0.288391  0.336512  -0.00069  0.969223  -0.001
H  H28  1  0.45286733  0.48720944  0.35070721  1  0.498055  -0.00058  0.288534  0.336604  -0.000722  0.969471  -0.001
H  H29  1  0.51308657  0.54761711  0.14809521  1  0.487785  0.000539  0.287653  0.334806  0.000732  0.971634  0.001
H  H30  1  0.64508135  0.55816872  0.57623408  1  0.441184  0.000411  0.290854  0.320455  -3.8e-05  0.95989  0.0
H  H31  1  0.44650352  0.35623099  0.92533070  1  0.461388  0.000558  0.290696  0.322125  0.000104  0.961689  0.0
H  H32  1  0.35623797  0.44512156  0.42478201  1  0.457017  0.00047  0.291142  0.321962  -2e-05  0.96055  0.0
H  H33  1  0.55562338  0.64464876  0.07483232  1  0.450547  -0.000515  0.290364  0.320835  -3.9e-05  0.960462  0.0
H  H34  1  0.83119073  0.83842021  0.00277158  1  0.475603  -0.000682  0.293427  0.334938  -0.00075  0.952818  -0.001
H  H35  1  0.14484055  0.16639630  0.50706109  1  0.447587  -0.000794  0.290147  0.330839  -0.000872  0.960956  0.0
H  H36  1  0.16823689  0.14697088  0.00516505  1  0.466983  -0.000653  0.288658  0.330659  -0.000859  0.961392  0.0
H  H37  1  0.83923447  0.83310349  0.49958571  1  0.473335  0.00065  0.294643  0.334846  0.000761  0.947969  0.001
H  H38  1  0.96289570  0.81811755  0.97297323  1  0.494279  -0.000602  0.292758  0.343608  -0.000795  0.946462  0.0
H  H39  1  0.18207661  0.03807574  0.53207571  1  0.490902  -0.000625  0.289844  0.337539  -0.000855  0.955592  0.0
H  H40  1  0.03859033  0.17971759  0.03178424  1  0.483128  -0.000289  0.290125  0.339133  -0.000483  0.953288  0.0
H  H41  1  0.81856050  0.96433399  0.46971832  1  0.487934  0.000594  0.293327  0.343683  0.000768  0.946234  0.0
H  H42  1  0.89133234  0.91855233  0.92492038  1  0.427852  -1e-05  0.298653  0.326386  -0.000272  0.93468  0.0
H  H43  1  0.08178965  0.09664176  0.59291278  1  0.453277  0.00059  0.287844  0.325454  0.000196  0.961465  0.0
H  H44  1  0.10142975  0.08029458  0.09031852  1  0.456366  0.000134  0.290548  0.324334  -0.000245  0.955015  0.0
H  H45  1  0.91843634  0.89224541  0.42064675  1  0.436241  -0.000838  0.298884  0.326515  -0.000394  0.933582  0.0
H  H46  1  0.33021568  0.02312050  0.24023854  1  0.406672  -0.000201  0.288303  0.317756  -0.000419  0.957774  0.0
H  H47  1  0.97181362  0.66849302  0.25808291  1  0.431465  -0.000138  0.285997  0.315473  -0.000274  0.965375  0.0
H  H48  1  0.67036443  0.97213290  0.75751319  1  0.429902  0.000179  0.285934  0.315262  0.000366  0.964117  0.0
H  H49  1  0.02478046  0.32996179  0.73912631  1  0.435857  -4e-06  0.2882  0.318432  0.000233  0.956549  0.0
H  H50  1  0.38920222  0.92661061  0.30451205  1  0.425729  -0.000684  0.297466  0.331006  -0.00071  0.928775  0.0
H  H51  1  0.07019391  0.61036769  0.19517678  1  0.43721  -0.000606  0.296475  0.328297  -0.000741  0.927071  0.0
H  H52  1  0.61126369  0.06933783  0.69424728  1  0.443261  0.000468  0.297632  0.329269  0.000683  0.927907  0.0
H  H53  1  0.92725687  0.38845406  0.80301969  1  0.429385  0.000632  0.297152  0.329952  0.000734  0.927309  0.0
H  H54  1  0.35211735  0.05210571  0.38135845  1  0.499842  -7e-05  0.27347  0.326463  -0.000411  0.992678  0.0
H  H55  1  0.94485278  0.64594506  0.11718307  1  0.499991  -9.9e-05  0.274231  0.327397  -0.000398  0.989575  0.0
H  H56  1  0.64650934  0.94350558  0.61615387  1  0.494369  4.7e-05  0.274006  0.327567  0.000355  0.989782  0.0
H  H57  1  0.05200175  0.35099562  0.87992505  1  0.497002  0.00012  0.273576  0.32576  0.000426  0.992846  0.0
H  H58  1  0.74810925  0.55716115  0.08649490  1  0.407204  -4.6e-05  0.268672  0.296385  -0.000144  0.997178  0.0
H  H59  1  0.43845095  0.24920994  0.41185345  1  0.396252  9.2e-05  0.268238  0.294557  2e-06  0.999075  0.0
H  H60  1  0.24887078  0.43805372  0.91155966  1  0.392478  6.1e-05  0.268039  0.294223  0.00015  1.00076  0.0
H  H61  1  0.55674823  0.74756942  0.58636660  1  0.404893  8.9e-05  0.269499  0.297322  0.000139  0.993628  0.0
H  H62  1  0.76486170  0.47055802  0.96605592  1  0.459838  2.7e-05  0.26546  0.310531  -6e-06  1.020946  0.0
H  H63  1  0.52386589  0.23684455  0.53443337  1  0.459128  5e-05  0.264634  0.308586  9e-06  1.024206  0.0
H  H64  1  0.23507040  0.52324499  0.03383973  1  0.460028  -2.4e-05  0.264823  0.308974  1.9e-05  1.024167  0.0
H  H65  1  0.47028021  0.76377420  0.46598360  1  0.460018  -7.5e-05  0.265532  0.310394  -0.000127  1.021798  0.0
H  H66  1  0.71280816  0.59809644  0.96767690  1  0.433142  -0.000118  0.260106  0.288857  -8.5e-05  1.066131  0.0
H  H67  1  0.39347807  0.28454213  0.52842201  1  0.438141  -0.000105  0.259173  0.287661  -4.7e-05  1.062802  0.0
H  H68  1  0.28434356  0.39378180  0.02820785  1  0.438448  0.000375  0.259471  0.287841  0.000377  1.063076  0.0
H  H69  1  0.59819035  0.71239711  0.46750144  1  0.43183  6.3e-05  0.260211  0.289497  -9.1e-05  1.066811  0.0
C  C70  1  0.44537153  0.79100030  0.86883330  1  -0.042346  -0.00981  -0.020917  -0.046687  -0.006891  3.992555  -0.008
C  C71  1  0.20814844  0.55669812  0.63227202  1  -0.008162  -0.010189  -0.020107  -0.043906  -0.007132  3.985568  -0.008
C  C72  1  0.55714714  0.20813449  0.13027437  1  -0.033994  -0.009097  -0.020208  -0.044083  -0.006538  3.984819  -0.007
C  C73  1  0.79030836  0.44612008  0.36709038  1  -0.023292  0.009378  -0.021017  -0.046164  0.006922  3.991985  0.008
C  C74  1  0.37605853  0.74895393  0.93732046  1  0.043396  -0.000751  -0.072135  -0.087452  -0.000458  3.934997  -0.001
C  C75  1  0.24702099  0.62530213  0.56206445  1  -0.059543  -0.001047  -0.072189  -0.08803  -0.000559  3.931123  -0.001
C  C76  1  0.62671054  0.24680657  0.06055294  1  -0.032108  -0.00023  -0.071119  -0.08793  -0.000145  3.926803  0.0
C  C77  1  0.74836338  0.37767118  0.43616337  1  -0.037046  0.002244  -0.072661  -0.089862  0.001505  3.936687  0.002
C  C78  1  0.28861164  0.80923587  0.97025489  1  -0.046332  -0.009824  -0.019891  -0.03634  -0.006856  3.988258  -0.008
C  C79  1  0.18638236  0.71354960  0.53138534  1  -0.042116  -0.009909  -0.019294  -0.032247  -0.006909  3.979858  -0.008
C  C80  1  0.71475900  0.18548111  0.02990825  1  0.022947  0.008293  -0.019793  -0.034904  0.006021  3.977153  0.007
C  C81  1  0.80854994  0.29039121  0.46919136  1  0.010867  0.008197  -0.018925  -0.032965  0.005928  3.988921  0.006
C  C82  1  0.26681574  0.90997078  0.92995651  1  -0.064737  -0.000777  -0.072905  -0.090261  -0.000546  3.930062  -0.001
C  C83  1  0.08865757  0.73715109  0.57603136  1  0.017837  -0.000254  -0.072687  -0.090582  -0.000254  3.926571  0.0
C  C84  1  0.73693332  0.08727468  0.07403338  1  -0.06704  0.001585  -0.074076  -0.092363  0.001197  3.929224  0.001
C  C85  1  0.90943300  0.26829434  0.42885640  1  -0.072423  -0.000699  -0.072926  -0.089979  -0.000361  3.928147  -0.001
C  C86  1  0.33320313  0.95150624  0.85902447  1  -0.01712  -0.009335  -0.019172  -0.041172  -0.006597  3.988503  -0.007
C  C87  1  0.05001950  0.67116609  0.64829973  1  -0.051772  -0.008901  -0.019875  -0.042386  -0.006243  3.989255  -0.007
C  C88  1  0.66994280  0.04890295  0.14583569  1  -0.039957  0.008527  -0.018694  -0.040286  0.006283  3.987212  0.007
C  C89  1  0.95093056  0.33384767  0.35745797  1  -0.035525  -0.009399  -0.019955  -0.042645  -0.006777  3.988228  -0.008
C  C90  1  0.42303636  0.89218202  0.82877285  1  0.03047  -7.7e-05  -0.066624  -0.079463  -0.000282  3.904592  0.0
C  C91  1  0.10921511  0.58023230  0.67570630  1  -0.041834  0.000155  -0.067271  -0.082259  -0.00013  3.904556  0.001
C  C92  1  0.57944070  0.10887985  0.17334707  1  0.038446  0.000248  -0.067225  -0.080928  0.000227  3.903929  0.0
C  C93  1  0.89144386  0.42324751  0.32681599  1  0.018932  0.000479  -0.067123  -0.080037  0.000325  3.903342  0.0
C  C94  1  0.54637478  0.72941183  0.84684318  1  1.547944  0.001802  0.206597  0.573412  0.000522  4.204851  0.004
C  C95  1  0.27112575  0.45613935  0.65356229  1  1.563633  0.001628  0.206835  0.571951  0.000322  4.20322  0.004
C  C96  1  0.45679825  0.27155589  0.15179178  1  1.542328  0.001983  0.207007  0.573047  0.000607  4.200743  0.004
C  C97  1  0.72869204  0.54689968  0.34493427  1  1.550283  -0.001912  0.206379  0.572282  -0.000466  4.204879  -0.004
C  C98  1  0.23166728  0.77484909  0.05854361  1  1.558447  -0.000756  0.201806  0.564281  -0.001576  4.21902  0.001
C  C99  1  0.21778033  0.76959520  0.44148330  1  1.555239  -0.000277  0.200959  0.565501  -0.001191  4.208436  0.002
C  C100  1  0.77203497  0.21686997  0.94052903  1  1.54684  -1.6e-05  0.202037  0.569423  0.001009  4.208708  -0.002
C  C101  1  0.77418316  0.23396648  0.55775618  1  1.5662  0.000383  0.201674  0.56298  0.001467  4.219288  -0.001
C  C102  1  0.30863600  0.06146700  0.81971259  1  1.512106  0.001682  0.203278  0.564078  0.000296  4.19885  0.004
C  C103  1  0.94260600  0.69607772  0.69200620  1  1.532402  0.001879  0.199312  0.5625  0.000487  4.199606  0.004
C  C104  1  0.69357002  0.94127063  0.18926171  1  1.523616  -0.001988  0.199703  0.560861  -0.000408  4.199892  -0.004
C  C105  1  0.06120115  0.30902221  0.31835761  1  1.532005  0.001867  0.202774  0.563139  0.000422  4.204194  0.004
N  N106  1  0.64309720  0.53856727  0.65170880  1  -1.180454  -0.091967  -0.795654  -0.841796  -0.060798  3.193553  -0.072
N  N107  1  0.46294321  0.35793073  0.84841303  1  -1.225852  -0.089031  -0.793204  -0.841229  -0.05892  3.191128  -0.07
N  N108  1  0.35784737  0.46270814  0.34836622  1  -1.222888  -0.090615  -0.793479  -0.842041  -0.059983  3.192397  -0.071
N  N109  1  0.53681411  0.64270853  0.15072167  1  -1.209662  0.091778  -0.795605  -0.839983  0.062144  3.193082  0.072
N  N110  1  0.87455660  0.83130525  0.93904469  1  -1.204564  -0.082273  -0.786347  -0.83851  -0.054718  3.184218  -0.064
N  N111  1  0.16289513  0.12201331  0.56928836  1  -1.199515  -0.085201  -0.78974  -0.839178  -0.05615  3.189057  -0.065
N  N112  1  0.12391958  0.16246930  0.06802392  1  -1.214862  -0.0844  -0.787588  -0.838663  -0.055803  3.184937  -0.065
N  N113  1  0.83151875  0.87580234  0.43562537  1  -1.202865  0.080357  -0.783995  -0.8342  0.054728  3.180746  0.063
N  N114  1  0.32364865  0.97753412  0.30068410  1  -1.161258  -0.083329  -0.7983  -0.843742  -0.054893  3.217778  -0.064
N  N115  1  0.01857002  0.67533584  0.19833822  1  -1.196825  -0.084537  -0.798693  -0.844751  -0.05571  3.222967  -0.065
N  N116  1  0.67649478  0.01800378  0.69716505  1  -1.196347  0.083073  -0.79879  -0.84437  0.056183  3.226224  0.064
N  N117  1  0.97823267  0.32293787  0.79898511  1  -1.188915  0.082218  -0.798279  -0.841067  0.055504  3.217491  0.063
N  N118  1  0.77663919  0.56356083  0.01612180  1  -1.267624  -0.00558  -0.795299  -0.864438  -0.003549  2.966849  -0.004
N  N119  1  0.43085633  0.22146860  0.48229664  1  -1.261284  -0.00492  -0.794296  -0.863295  -0.003101  2.968734  -0.003
N  N120  1  0.22080607  0.43032522  0.98188592  1  -1.258279  0.004676  -0.795361  -0.863853  0.003124  2.970589  0.003
N  N121  1  0.56329448  0.77603405  0.51606329  1  -1.262528  0.000747  -0.794636  -0.864635  0.000495  2.966748  0.001
O  O122  1  0.61679648  0.77561062  0.79087542  1  -1.119782  -0.106681  -0.323156  -0.547014  -0.069968  2.29915  -0.097
O  O123  1  0.22529180  0.38505937  0.70926356  1  -1.12559  -0.10785  -0.323158  -0.547767  -0.070753  2.293606  -0.098
O  O124  1  0.38636442  0.22665060  0.20841979  1  -1.124221  -0.10868  -0.324382  -0.549079  -0.07115  2.292488  -0.099
O  O125  1  0.77484541  0.61700488  0.28878251  1  -1.125288  0.106315  -0.322404  -0.545949  0.071667  2.296911  0.096
O  O126  1  0.56116769  0.63891315  0.88645324  1  -1.202076  -0.003503  -0.317627  -0.583087  -0.002083  2.251626  -0.004
O  O127  1  0.36225815  0.44302855  0.61424908  1  -1.204554  -0.003787  -0.316927  -0.579878  -0.002173  2.247738  -0.004
O  O128  1  0.44336654  0.36204492  0.11191156  1  -1.19788  -0.002564  -0.316264  -0.579587  -0.001477  2.248346  -0.003
O  O129  1  0.63827590  0.56203259  0.38484156  1  -1.200599  0.002561  -0.317541  -0.58275  0.00165  2.253145  0.003
O  O130  1  0.14327496  0.82586519  0.07829129  1  -1.128968  -0.102205  -0.326105  -0.556412  -0.066789  2.285908  -0.092
O  O131  1  0.16377592  0.85576528  0.41995503  1  -1.135664  -0.100443  -0.330418  -0.573858  -0.065982  2.268733  -0.09
O  O132  1  0.85741910  0.16171880  0.91827128  1  -1.134162  0.098077  -0.331155  -0.576445  0.065999  2.264622  0.088
O  O133  1  0.82381900  0.14447238  0.57614945  1  -1.132156  0.102368  -0.325874  -0.553647  0.068797  2.283713  0.092
O  O134  1  0.27849127  0.70765563  0.11429209  1  -1.181363  -0.003167  -0.317094  -0.564243  -0.001764  2.187174  -0.003
O  O135  1  0.28610851  0.72417310  0.38607711  1  -1.181951  -0.005374  -0.316183  -0.563438  -0.00308  2.187989  -0.005
O  O136  1  0.72809764  0.28630107  0.88603503  1  -1.177344  0.003352  -0.316741  -0.564312  0.002043  2.184064  0.003
O  O137  1  0.70835892  0.28205365  0.61480485  1  -1.183508  0.002324  -0.316709  -0.563051  0.00131  2.188322  0.002
O  O138  1  0.23843077  0.12316670  0.86050769  1  -1.18869  -0.001164  -0.325166  -0.586106  -0.000348  2.209098  -0.002
O  O139  1  0.88400403  0.77266596  0.65989247  1  -1.194759  0.000161  -0.328497  -0.589868  0.000426  2.198295  -0.001
O  O140  1  0.76911325  0.88140829  0.15627702  1  -1.191663  -0.000272  -0.327028  -0.588942  -0.000378  2.209744  0.001
O  O141  1  0.12294886  0.23942590  0.35966087  1  -1.202168  -0.000978  -0.325092  -0.585683  -0.000214  2.206612  -0.002
O  O142  1  0.36039276  0.08855970  0.74471959  1  -1.099031  -0.118698  -0.31987  -0.518927  -0.077641  2.230152  -0.108
O  O143  1  0.91227254  0.63648680  0.76100050  1  -1.099881  -0.118952  -0.318752  -0.515919  -0.077764  2.22667  -0.108
O  O144  1  0.63458002  0.91227348  0.25916370  1  -1.103465  0.118844  -0.318708  -0.515601  0.079873  2.222318  0.108
O  O145  1  0.08860532  0.36027403  0.24321666  1  -1.102217  -0.119512  -0.320744  -0.51943  -0.07827  2.230294  -0.108
O  O146  1  0.03064636  0.98618176  0.22428724  1  -1.263379  -0.000676  -0.605147  -0.80138  -0.000381  2.037399  -0.001
O  O147  1  0.98968083  0.03237896  0.71466514  1  -1.280129  0.000573  -0.600107  -0.797031  0.00057  2.046373  0.001
