# generated using pymatgen
data_Ag2H3C6SClO4
_symmetry_space_group_name_H-M   'P 1'
_cell_length_a   6.09093716
_cell_length_b   11.82342620
_cell_length_c   11.75602704
_cell_angle_alpha   90.00070446
_cell_angle_beta   89.99881102
_cell_angle_gamma   91.46331394
_symmetry_Int_Tables_number   1
_chemical_formula_structural   Ag2H3C6SClO4
_chemical_formula_sum   'Ag8 H12 C24 S4 Cl4 O16'
_cell_volume   846.34295873
_cell_formula_units_Z   4
loop_
 _symmetry_equiv_pos_site_id
 _symmetry_equiv_pos_as_xyz
  1  'x, y, z'
loop_
 _atom_site_type_symbol
 _atom_site_label
 _atom_site_symmetry_multiplicity
 _atom_site_fract_x
 _atom_site_fract_y
 _atom_site_fract_z
 _atom_site_occupancy
 _atom_site_hle17_bader_spin_density
 _atom_site_hle17_ddec_charge
 _atom_site_hle17_ddec_spin_density
 _atom_site_hle17_ddec_sum_bond_order
 _atom_site_hle17_magmom
 _atom_site_hse06_10hf_bader_spin_density
 _atom_site_hse06_10hf_ddec_charge
 _atom_site_hse06_10hf_ddec_spin_density
 _atom_site_hse06_10hf_ddec_sum_bond_order
 _atom_site_hse06_10hf_magmom
 _atom_site_hse06_bader_spin_density
 _atom_site_hse06_ddec_charge
 _atom_site_hse06_ddec_spin_density
 _atom_site_hse06_ddec_sum_bond_order
 _atom_site_hse06_magmom
 _atom_site_pbe_bader_spin_density
 _atom_site_pbe_cm5_charge
 _atom_site_pbe_ddec_charge
 _atom_site_pbe_ddec_spin_density
 _atom_site_pbe_ddec_sum_bond_order
 _atom_site_pbe_magmom
Ag  Ag0  1  0.78681806  0.52822104  0.85960976  1  0  0.684018  0  1.261662  0  0  0.567585  0  1.694911  0  0  0.601329  0  1.636424  0  0  0.440603  0.542864  0  1.736192  0
Ag  Ag1  1  0.71318728  0.47177813  0.35961005  1  0  0.68399  0  1.261628  0  0  0.567566  0  1.694883  0  0  0.601301  0  1.636396  0  0  0.440558  0.542844  0  1.736165  0
Ag  Ag2  1  0.21322043  0.47178441  0.14038276  1  0  0.684049  0  1.261555  0  0  0.567593  0  1.69476  0  0  0.601331  0  1.636276  0  0  0.440608  0.542872  0  1.73604  0
Ag  Ag3  1  0.28681994  0.52822460  0.64038417  1  0  0.684  0  1.261553  0  0  0.567552  0  1.694785  0  0  0.601289  0  1.636305  0  0  0.440575  0.542831  0  1.736062  0
Ag  Ag4  1  0.88785396  0.35437616  0.65006289  1  0  0.652491  0  1.320623  0  0  0.547506  0  1.7404  0  0  0.577664  0  1.687977  0  0  0.437399  0.52565  0  1.777176  0
Ag  Ag5  1  0.61216738  0.64562746  0.15005445  1  0  0.65242  0  1.320597  0  0  0.547489  0  1.740371  0  0  0.577652  0  1.687956  0  0  0.437413  0.525629  0  1.77714  0
Ag  Ag6  1  0.11215817  0.64562575  0.34994579  1  0  0.652417  0  1.320637  0  0  0.547492  0  1.740421  0  0  0.577648  0  1.688003  0  0  0.437398  0.525636  0  1.777191  0
Ag  Ag7  1  0.38781521  0.35437513  0.84994317  1  0  0.652562  0  1.320533  0  0  0.547577  0  1.740323  0  0  0.577737  0  1.687901  0  0  0.437446  0.525719  0  1.777093  0
H  H8  1  0.41950284  0.81302032  0.27064990  1  0  0.111717  0  0.969375  0  0  0.120194  0  1.033809  0  0  0.123625  0  1.031961  0  0  0.093724  0.117711  0  1.035353  0
H  H9  1  0.08049850  0.18697390  0.77064296  1  0  0.111718  0  0.969331  0  0  0.120184  0  1.033788  0  0  0.123616  0  1.031938  0  0  0.093738  0.1177  0  1.035335  0
H  H10  1  0.58049134  0.18698573  0.72934602  1  0  0.111749  0  0.969415  0  0  0.120227  0  1.033833  0  0  0.123658  0  1.031985  0  0  0.093738  0.117745  0  1.035375  0
H  H11  1  0.91951015  0.81302123  0.22935466  1  0  0.111655  0  0.969374  0  0  0.120124  0  1.033826  0  0  0.123556  0  1.031974  0  0  0.09372  0.11764  0  1.035376  0
H  H12  1  0.20018927  0.93780768  0.39495053  1  0  0.100535  0  0.97383  0  0  0.105956  0  1.046691  0  0  0.109174  0  1.04397  0  0  0.092733  0.103614  0  1.048706  0
H  H13  1  0.29978355  0.06218611  0.89495183  1  0  0.100558  0  0.973673  0  0  0.10601  0  1.0465  0  0  0.109232  0  1.043769  0  0  0.092703  0.103664  0  1.048512  0
H  H14  1  0.79979132  0.06218221  0.60505049  1  0  0.100566  0  0.973666  0  0  0.106007  0  1.046514  0  0  0.109232  0  1.043784  0  0  0.09272  0.103661  0  1.048527  0
H  H15  1  0.70022203  0.93781662  0.10505260  1  0  0.100529  0  0.973794  0  0  0.106009  0  1.046596  0  0  0.109234  0  1.04386  0  0  0.092715  0.10366  0  1.048603  0
H  H16  1  0.52754204  0.80544459  0.68904919  1  0  0.128772  0  0.968672  0  0  0.132522  0  1.039156  0  0  0.136379  0  1.035725  0  0  0.104594  0.129713  0  1.04167  0
H  H17  1  0.97245460  0.19455934  0.18904943  1  0  0.128808  0  0.968636  0  0  0.132544  0  1.039139  0  0  0.136402  0  1.035706  0  0  0.104589  0.129708  0  1.041678  0
H  H18  1  0.47247021  0.19456156  0.31095779  1  0  0.128758  0  0.968622  0  0  0.132499  0  1.039133  0  0  0.136361  0  1.035685  0  0  0.104574  0.129699  0  1.041638  0
H  H19  1  0.02754594  0.80543912  0.81095755  1  0  0.12866  0  0.968743  0  0  0.132391  0  1.039288  0  0  0.136251  0  1.035848  0  0  0.104532  0.12959  0  1.04179  0
C  C20  1  0.62180756  0.73552847  0.52795476  1  0  -0.239334  0  3.682208  0  0  -0.208562  0  3.931544  0  0  -0.222757  0  3.953137  0  0  -0.042942  -0.199404  0  3.917283  0
C  C21  1  0.87817964  0.26446932  0.02794743  1  0  -0.239329  0  3.68228  0  0  -0.208535  0  3.931547  0  0  -0.222733  0  3.953142  0  0  -0.04297  -0.19937  0  3.917247  0
C  C22  1  0.37819795  0.26447172  0.47205137  1  0  -0.239436  0  3.682074  0  0  -0.208725  0  3.931559  0  0  -0.222918  0  3.953143  0  0  -0.043043  -0.199568  0  3.91729  0
C  C23  1  0.12181571  0.73551981  0.97205445  1  0  -0.239409  0  3.682543  0  0  -0.208671  0  3.931922  0  0  -0.222862  0  3.953506  0  0  -0.043014  -0.199519  0  3.917646  0
C  C24  1  0.59257264  0.73299142  0.40783352  1  0  0.365181  0  3.870288  0  0  0.339787  0  4.122178  0  0  0.358563  0  4.13905  0  0  0.068117  0.32697  0  4.110315  0
C  C25  1  0.90743586  0.26702101  0.90783555  1  0  0.365261  0  3.870028  0  0  0.339899  0  4.121884  0  0  0.35868  0  4.138748  0  0  0.068156  0.327082  0  4.110013  0
C  C26  1  0.40742154  0.26701462  0.59217091  1  0  0.365401  0  3.870048  0  0  0.339975  0  4.121999  0  0  0.358755  0  4.138869  0  0  0.068224  0.327159  0  4.11013  0
C  C27  1  0.09256489  0.73298507  0.09216207  1  0  0.365236  0  3.870271  0  0  0.33985  0  4.122157  0  0  0.35863  0  4.139018  0  0  0.068107  0.327038  0  4.110287  0
C  C28  1  0.43658056  0.80836806  0.36304920  1  0  -0.236643  0  3.793981  0  0  -0.241655  0  4.051463  0  0  -0.252128  0  4.071104  0  0  -0.131177  -0.234758  0  4.03821  0
C  C29  1  0.06339355  0.19162114  0.86304079  1  0  -0.236517  0  3.793866  0  0  -0.241552  0  4.051339  0  0  -0.252023  0  4.070973  0  0  -0.131134  -0.234663  0  4.038096  0
C  C30  1  0.56341008  0.19162865  0.63695182  1  0  -0.236778  0  3.794066  0  0  -0.24179  0  4.051561  0  0  -0.252266  0  4.071213  0  0  -0.131227  -0.234889  0  4.038299  0
C  C31  1  0.93660853  0.80837396  0.13695599  1  0  -0.236475  0  3.793986  0  0  -0.24149  0  4.051454  0  0  -0.251961  0  4.071094  0  0  -0.131127  -0.234601  0  4.038206  0
C  C32  1  0.31696475  0.88027543  0.43227770  1  0  -0.091817  0  3.777807  0  0  -0.120989  0  4.034206  0  0  -0.11735  0  4.052144  0  0  -0.098127  -0.123043  0  4.02196  0
C  C33  1  0.18300837  0.11972979  0.93227233  1  0  -0.091961  0  3.777907  0  0  -0.121144  0  4.03428  0  0  -0.117519  0  4.052255  0  0  -0.098146  -0.123185  0  4.022028  0
C  C34  1  0.68301772  0.11972293  0.56772333  1  0  -0.091795  0  3.777651  0  0  -0.120985  0  4.034066  0  0  -0.117343  0  4.051986  0  0  -0.098138  -0.123031  0  4.021809  0
C  C35  1  0.81698415  0.88027540  0.06773125  1  0  -0.091818  0  3.777788  0  0  -0.12103  0  4.034143  0  0  -0.117408  0  4.052089  0  0  -0.098136  -0.12306  0  4.021879  0
C  C36  1  0.34910004  0.87833072  0.54978662  1  0  0.123926  0  3.774218  0  0  0.136937  0  4.041488  0  0  0.135187  0  4.064021  0  0  -0.000842  0.137621  0  4.026472  0
C  C37  1  0.15086511  0.12166244  0.04978473  1  0  0.123958  0  3.774002  0  0  0.13697  0  4.041289  0  0  0.135216  0  4.063825  0  0  -0.000797  0.137631  0  4.026293  0
C  C38  1  0.65087753  0.12166846  0.45021355  1  0  0.123798  0  3.774329  0  0  0.136788  0  4.041637  0  0  0.135036  0  4.064181  0  0  -0.000845  0.137472  0  4.026614  0
C  C39  1  0.84912717  0.87833429  0.95021884  1  0  0.123709  0  3.774044  0  0  0.13674  0  4.041326  0  0  0.135018  0  4.063815  0  0  -0.000882  0.137398  0  4.026332  0
C  C40  1  0.50311029  0.80787163  0.59761537  1  0  -0.085056  0  3.729761  0  0  -0.12479  0  3.985151  0  0  -0.11994  0  4.002481  0  0  -0.092263  -0.127634  0  3.97334  0
C  C41  1  0.99687895  0.19213374  0.09761450  1  0  -0.08503  0  3.729803  0  0  -0.124773  0  3.985193  0  0  -0.119922  0  4.002518  0  0  -0.09223  -0.1276  0  3.973426  0
C  C42  1  0.49688049  0.19213016  0.40238991  1  0  -0.084908  0  3.729829  0  0  -0.124591  0  3.985193  0  0  -0.119742  0  4.002527  0  0  -0.092214  -0.127454  0  3.973394  0
C  C43  1  0.00312641  0.80786137  0.90238738  1  0  -0.084767  0  3.729501  0  0  -0.124495  0  3.984891  0  0  -0.119655  0  4.002213  0  0  -0.092125  -0.127362  0  3.973141  0
S  S44  1  0.79730806  0.63995589  0.59664489  1  0  1.302525  0  5.578278  0  0  1.202169  0  6.065157  0  0  1.251759  0  6.047401  0  0  0.498599  1.167902  0  6.075989  0
S  S45  1  0.70269928  0.36004957  0.09663704  1  0  1.302403  0  5.577934  0  0  1.202055  0  6.064836  0  0  1.251656  0  6.047067  0  0  0.498661  1.167793  0  6.075661  0
S  S46  1  0.20269599  0.36005105  0.40335018  1  0  1.302449  0  5.577844  0  0  1.202006  0  6.064785  0  0  1.251602  0  6.047043  0  0  0.498654  1.167745  0  6.075604  0
S  S47  1  0.29731273  0.63994811  0.90335803  1  0  1.302515  0  5.577931  0  0  1.202167  0  6.064811  0  0  1.251765  0  6.047048  0  0  0.498698  1.167904  0  6.075638  0
Cl  Cl48  1  0.19127023  0.96105666  0.63838841  1  0  -0.085561  0  1.350314  0  0  -0.060088  0  1.580986  0  0  -0.065519  0  1.578337  0  0  0.010076  -0.056165  0  1.583004  0
Cl  Cl49  1  0.30872894  0.03894363  0.13838482  1  0  -0.085547  0  1.350106  0  0  -0.060088  0  1.58075  0  0  -0.065516  0  1.578105  0  0  0.010064  -0.056166  0  1.582776  0
Cl  Cl50  1  0.80871231  0.03894424  0.36161602  1  0  -0.085533  0  1.350386  0  0  -0.060041  0  1.581036  0  0  -0.065473  0  1.578393  0  0  0.010089  -0.056122  0  1.583053  0
Cl  Cl51  1  0.69127483  0.96105316  0.86161366  1  0  -0.085513  0  1.350153  0  0  -0.060042  0  1.580782  0  0  -0.065476  0  1.57812  0  0  0.01008  -0.056118  0  1.582811  0
O  O52  1  0.79587852  0.66852518  0.71790373  1  0  -0.639387  0  2.115594  0  0  -0.566254  0  2.393277  0  0  -0.593402  0  2.37975  0  0  -0.322445  -0.54694  0  2.401769  0
O  O53  1  0.70410851  0.33147479  0.21790231  1  0  -0.639354  0  2.11537  0  0  -0.566345  0  2.393134  0  0  -0.5935  0  2.379608  0  0  -0.322495  -0.547029  0  2.401617  0
O  O54  1  0.20411219  0.33147407  0.28209219  1  0  -0.639329  0  2.115449  0  0  -0.566095  0  2.393067  0  0  -0.593246  0  2.379545  0  0  -0.322433  -0.54679  0  2.40156  0
O  O55  1  0.29589381  0.66852876  0.78209361  1  0  -0.639328  0  2.115283  0  0  -0.566153  0  2.392892  0  0  -0.593305  0  2.379374  0  0  -0.322467  -0.546841  0  2.401381  0
O  O56  1  0.69848537  0.52474219  0.57560010  1  0  -0.721602  0  2.162526  0  0  -0.645882  0  2.47325  0  0  -0.67355  0  2.452551  0  0  -0.347391  -0.626064  0  2.486704  0
O  O57  1  0.80153264  0.47525886  0.07559704  1  0  -0.721553  0  2.162498  0  0  -0.645891  0  2.473255  0  0  -0.673559  0  2.452556  0  0  -0.347462  -0.626077  0  2.486709  0
O  O58  1  0.30155298  0.47525818  0.42439497  1  0  -0.721527  0  2.162507  0  0  -0.645862  0  2.47334  0  0  -0.673533  0  2.452638  0  0  -0.34739  -0.626045  0  2.486797  0
O  O59  1  0.19847111  0.52473709  0.92439633  1  0  -0.721623  0  2.162485  0  0  -0.645945  0  2.473268  0  0  -0.673614  0  2.452565  0  0  -0.347446  -0.626131  0  2.486726  0
O  O60  1  0.01955020  0.65231116  0.54579475  1  0  -0.6661  0  2.133791  0  0  -0.585715  0  2.423572  0  0  -0.614269  0  2.408021  0  0  -0.340428  -0.565363  0  2.433481  0
O  O61  1  0.48045808  0.34769150  0.04578581  1  0  -0.666189  0  2.133864  0  0  -0.585668  0  2.423544  0  0  -0.614223  0  2.407976  0  0  -0.340443  -0.56532  0  2.433447  0
O  O62  1  0.98044741  0.34769998  0.45420883  1  0  -0.666218  0  2.133715  0  0  -0.585706  0  2.423459  0  0  -0.61425  0  2.407868  0  0  -0.340441  -0.565369  0  2.433401  0
O  O63  1  0.51955059  0.65230447  0.95420926  1  0  -0.666051  0  2.133711  0  0  -0.585666  0  2.423486  0  0  -0.614241  0  2.407966  0  0  -0.340406  -0.565316  0  2.433391  0
O  O64  1  0.70496265  0.66635904  0.33923625  1  0  -0.703601  0  2.300279  0  0  -0.598702  0  2.594275  0  0  -0.634746  0  2.583884  0  0  -0.370193  -0.572623  0  2.600008  0
O  O65  1  0.79503242  0.33365169  0.83923851  1  0  -0.703786  0  2.300314  0  0  -0.598839  0  2.594212  0  0  -0.634884  0  2.583811  0  0  -0.37027  -0.572779  0  2.599998  0
O  O66  1  0.29503976  0.33364790  0.66075967  1  0  -0.703743  0  2.300477  0  0  -0.598799  0  2.594469  0  0  -0.634845  0  2.584075  0  0  -0.370277  -0.572726  0  2.600217  0
O  O67  1  0.20495340  0.66634923  0.16076847  1  0  -0.703716  0  2.300117  0  0  -0.598812  0  2.594122  0  0  -0.634862  0  2.583728  0  0  -0.370235  -0.572738  0  2.599873  0
