# generated using pymatgen
data_KH6C5NO4
_symmetry_space_group_name_H-M   'P 1'
_cell_length_a   10.89624996
_cell_length_b   12.77552982
_cell_length_c   13.57459136
_cell_angle_alpha   118.06703280
_cell_angle_beta   113.66412646
_cell_angle_gamma   89.99820079
_symmetry_Int_Tables_number   1
_chemical_formula_structural   KH6C5NO4
_chemical_formula_sum   'K8 H48 C40 N8 O32'
_cell_volume   1484.95727712
_cell_formula_units_Z   8
loop_
 _symmetry_equiv_pos_site_id
 _symmetry_equiv_pos_as_xyz
  1  'x, y, z'
loop_
 _atom_site_type_symbol
 _atom_site_label
 _atom_site_symmetry_multiplicity
 _atom_site_fract_x
 _atom_site_fract_y
 _atom_site_fract_z
 _atom_site_occupancy
 _atom_site_hle17_bader_spin_density
 _atom_site_hle17_ddec_charge
 _atom_site_hle17_ddec_spin_density
 _atom_site_hle17_ddec_sum_bond_order
 _atom_site_hle17_magmom
 _atom_site_hse06_10hf_bader_spin_density
 _atom_site_hse06_10hf_ddec_charge
 _atom_site_hse06_10hf_ddec_spin_density
 _atom_site_hse06_10hf_ddec_sum_bond_order
 _atom_site_hse06_10hf_magmom
 _atom_site_hse06_bader_spin_density
 _atom_site_hse06_ddec_charge
 _atom_site_hse06_ddec_spin_density
 _atom_site_hse06_ddec_sum_bond_order
 _atom_site_hse06_magmom
 _atom_site_pbe_bader_spin_density
 _atom_site_pbe_cm5_charge
 _atom_site_pbe_ddec_charge
 _atom_site_pbe_ddec_spin_density
 _atom_site_pbe_ddec_sum_bond_order
 _atom_site_pbe_magmom
K  K0  1  0.25496415  0.24995230  0.49987870  1  0  0.931019  0  0.47926  0  0  0.891808  0  0.651828  0  0  0.903506  0  0.630923  0  0  0.797101  0.882644  0  0.667285  0
K  K1  1  0.24507998  0.75016920  0.50020018  1  0  0.931  0  0.480031  0  0  0.891785  0  0.652835  0  0  0.903513  0  0.631886  0  0  0.797997  0.882668  0  0.668238  0
K  K2  1  0.74503741  0.75005054  0.50012168  1  0  0.931033  0  0.479288  0  0  0.891832  0  0.651844  0  0  0.903526  0  0.630945  0  0  0.797096  0.882663  0  0.667306  0
K  K3  1  0.75491566  0.24983453  0.49980526  1  0  0.931005  0  0.480023  0  0  0.891813  0  0.652798  0  0  0.903535  0  0.631854  0  0  0.79799  0.882692  0  0.668204  0
K  K4  1  0.36500902  0.61487227  0.72987107  1  0  0.902575  0  0.460427  0  0  0.856803  0  0.632626  0  0  0.872148  0  0.608832  0  0  0.746173  0.844861  0  0.650217  0
K  K5  1  0.13507133  0.88502154  0.27015572  1  0  0.902604  0  0.459767  0  0  0.856812  0  0.63177  0  0  0.87212  0  0.608011  0  0  0.745531  0.844947  0  0.649279  0
K  K6  1  0.63499950  0.38512689  0.27013369  1  0  0.902543  0  0.460438  0  0  0.856774  0  0.632629  0  0  0.8721  0  0.608858  0  0  0.746161  0.844841  0  0.650211  0
K  K7  1  0.86492626  0.11497766  0.72984099  1  0  0.902599  0  0.459783  0  0  0.8568  0  0.631806  0  0  0.872102  0  0.608052  0  0  0.745532  0.844946  0  0.649303  0
H  H8  1  0.66910865  0.52631724  0.76539781  1  0  0.127035  0  0.973054  0  0  0.143787  0  1.036359  0  0  0.146117  0  1.035856  0  0  0.101508  0.142059  0  1.036803  0
H  H9  1  0.09595269  0.73886928  0.76546312  1  0  0.12747  0  0.970071  0  0  0.143885  0  1.033882  0  0  0.14623  0  1.033383  0  0  0.101484  0.142159  0  1.034333  0
H  H10  1  0.83055856  0.76134169  0.23469687  1  0  0.127187  0  0.971341  0  0  0.143926  0  1.034934  0  0  0.146284  0  1.034415  0  0  0.101312  0.142202  0  1.035356  0
H  H11  1  0.40408896  0.97396716  0.23467282  1  0  0.12739  0  0.972035  0  0  0.143968  0  1.035424  0  0  0.1463  0  1.034925  0  0  0.101403  0.142241  0  1.035894  0
H  H12  1  0.33089922  0.47367920  0.23460185  1  0  0.127092  0  0.972929  0  0  0.143787  0  1.036295  0  0  0.146119  0  1.035794  0  0  0.101478  0.142053  0  1.036754  0
H  H13  1  0.90404740  0.26112808  0.23453508  1  0  0.127464  0  0.970082  0  0  0.143886  0  1.033888  0  0  0.146231  0  1.033388  0  0  0.101486  0.142159  0  1.03434  0
H  H14  1  0.16944660  0.23865933  0.76530023  1  0  0.127192  0  0.971341  0  0  0.143938  0  1.034936  0  0  0.146295  0  1.034419  0  0  0.101319  0.142214  0  1.035357  0
H  H15  1  0.59591558  0.02603567  0.76532929  1  0  0.127381  0  0.971979  0  0  0.143927  0  1.035401  0  0  0.146258  0  1.034901  0  0  0.101388  0.142195  0  1.035869  0
H  H16  1  0.77035423  0.41797933  0.77676685  1  0  0.144686  0  0.956384  0  0  0.158528  0  1.024955  0  0  0.162205  0  1.02314  0  0  0.107862  0.15574  0  1.026516  0
H  H17  1  0.00619673  0.85864791  0.77683925  1  0  0.145477  0  0.956787  0  0  0.159351  0  1.024932  0  0  0.163038  0  1.023115  0  0  0.108205  0.156567  0  1.026492  0
H  H18  1  0.72933652  0.64161667  0.22331829  1  0  0.144197  0  0.957678  0  0  0.158545  0  1.025536  0  0  0.162239  0  1.023723  0  0  0.107728  0.155745  0  1.027092  0
H  H19  1  0.49375932  0.08241023  0.22327875  1  0  0.145511  0  0.956002  0  0  0.159094  0  1.024625  0  0  0.162783  0  1.022806  0  0  0.107925  0.156321  0  1.02618  0
H  H20  1  0.22964832  0.58201619  0.22323357  1  0  0.144781  0  0.956344  0  0  0.158634  0  1.024882  0  0  0.162315  0  1.023067  0  0  0.107907  0.155851  0  1.026437  0
H  H21  1  0.99380484  0.14135128  0.22316026  1  0  0.145479  0  0.956762  0  0  0.159353  0  1.024902  0  0  0.163041  0  1.023084  0  0  0.108217  0.156571  0  1.026458  0
H  H22  1  0.27066433  0.35838710  0.77668006  1  0  0.14421  0  0.957638  0  0  0.158565  0  1.025502  0  0  0.162253  0  1.023695  0  0  0.107733  0.155764  0  1.027059  0
H  H23  1  0.50624317  0.91759626  0.77672504  1  0  0.14546  0  0.95599  0  0  0.159063  0  1.024593  0  0  0.162754  0  1.022772  0  0  0.107895  0.156289  0  1.026145  0
H  H24  1  0.76740152  0.53653941  0.91207506  1  0  0.137108  0  0.936816  0  0  0.158142  0  0.993246  0  0  0.160331  0  0.992801  0  0  0.103876  0.15649  0  0.993703  0
H  H25  1  0.14443688  0.87532001  0.91214926  1  0  0.137107  0  0.937178  0  0  0.158326  0  0.993209  0  0  0.16058  0  0.9927  0  0  0.103832  0.156622  0  0.993742  0
H  H26  1  0.73233257  0.62487384  0.08803486  1  0  0.136677  0  0.937105  0  0  0.157961  0  0.993284  0  0  0.160204  0  0.992774  0  0  0.103574  0.156247  0  0.993811  0
H  H27  1  0.35561543  0.96374014  0.08797650  1  0  0.137178  0  0.936857  0  0  0.158527  0  0.992681  0  0  0.160775  0  0.992169  0  0  0.103783  0.156809  0  0.993241  0
H  H28  1  0.23260535  0.46345704  0.08792426  1  0  0.137144  0  0.936822  0  0  0.158171  0  0.993254  0  0  0.160361  0  0.992811  0  0  0.103895  0.156518  0  0.993712  0
H  H29  1  0.85556314  0.12468100  0.08785201  1  0  0.137116  0  0.93719  0  0  0.158348  0  0.993205  0  0  0.160602  0  0.992696  0  0  0.103843  0.156644  0  0.993737  0
H  H30  1  0.26766908  0.37512536  0.91196099  1  0  0.136657  0  0.937203  0  0  0.157973  0  0.993344  0  0  0.160225  0  0.992823  0  0  0.103571  0.156258  0  0.993874  0
H  H31  1  0.64438936  0.03626361  0.91202610  1  0  0.137151  0  0.936785  0  0  0.158523  0  0.992603  0  0  0.160766  0  0.992097  0  0  0.103776  0.156804  0  0.993162  0
H  H32  1  0.96750852  0.04971285  0.41833890  1  0  0.418408  0  0.887202  0  0  0.387415  0  0.951704  0  0  0.398347  0  0.935498  0  0  0.289545  0.379653  0  0.963194  0
H  H33  1  0.45090795  0.86862981  0.41821170  1  0  0.418602  0  0.887132  0  0  0.387469  0  0.951819  0  0  0.398377  0  0.935662  0  0  0.289338  0.379714  0  0.963291  0
H  H34  1  0.53288144  0.63145014  0.58190362  1  0  0.41734  0  0.8888  0  0  0.386771  0  0.952747  0  0  0.397694  0  0.936542  0  0  0.289369  0.379001  0  0.964244  0
H  H35  1  0.04919956  0.45036497  0.58167934  1  0  0.418847  0  0.886891  0  0  0.388051  0  0.95108  0  0  0.39899  0  0.934861  0  0  0.289799  0.380288  0  0.962572  0
H  H36  1  0.03249178  0.95028908  0.58166140  1  0  0.418425  0  0.887173  0  0  0.387435  0  0.951672  0  0  0.398369  0  0.935464  0  0  0.289536  0.379676  0  0.963157  0
H  H37  1  0.54909252  0.13137302  0.58179200  1  0  0.418644  0  0.887071  0  0  0.387522  0  0.951738  0  0  0.39843  0  0.935582  0  0  0.289354  0.379768  0  0.963207  0
H  H38  1  0.46710869  0.36854725  0.41808833  1  0  0.417245  0  0.888973  0  0  0.386717  0  0.952843  0  0  0.397635  0  0.936647  0  0  0.289307  0.378956  0  0.964342  0
H  H39  1  0.95080422  0.54963878  0.41832293  1  0  0.418833  0  0.886903  0  0  0.388034  0  0.951098  0  0  0.398972  0  0.934881  0  0  0.289783  0.380275  0  0.962584  0
H  H40  1  0.11548711  0.04314890  0.50372824  1  0  0.405818  0  0.907855  0  0  0.374408  0  0.974189  0  0  0.384952  0  0.958624  0  0  0.284174  0.366942  0  0.985202  0
H  H41  1  0.38820695  0.96036279  0.50360175  1  0  0.405002  0  0.909389  0  0  0.373756  0  0.975609  0  0  0.384307  0  0.959996  0  0  0.284015  0.366292  0  0.98665  0
H  H42  1  0.38474056  0.53982764  0.49650898  1  0  0.404836  0  0.909363  0  0  0.373625  0  0.975417  0  0  0.38416  0  0.959868  0  0  0.283807  0.366156  0  0.986436  0
H  H43  1  0.11185413  0.45702689  0.49637246  1  0  0.405497  0  0.908299  0  0  0.374154  0  0.974691  0  0  0.384699  0  0.959118  0  0  0.284223  0.366688  0  0.98571  0
H  H44  1  0.88451193  0.95685211  0.49627196  1  0  0.405794  0  0.90789  0  0  0.374381  0  0.974233  0  0  0.384925  0  0.958665  0  0  0.284164  0.366918  0  0.985238  0
H  H45  1  0.61179328  0.03963912  0.49640146  1  0  0.405024  0  0.909365  0  0  0.373779  0  0.975584  0  0  0.38433  0  0.95997  0  0  0.284013  0.366316  0  0.986625  0
H  H46  1  0.61524854  0.46016974  0.50348410  1  0  0.404896  0  0.909276  0  0  0.373702  0  0.975312  0  0  0.384243  0  0.959752  0  0  0.283844  0.366236  0  0.986324  0
H  H47  1  0.88814887  0.54297776  0.50363069  1  0  0.405491  0  0.90831  0  0  0.37418  0  0.974661  0  0  0.384716  0  0.959088  0  0  0.284241  0.366712  0  0.985683  0
H  H48  1  0.71168058  0.32637325  0.88614077  1  0  0.298014  0  0.9355  0  0  0.27761  0  1.00502  0  0  0.285866  0  0.998091  0  0  0.304445  0.27169  0  1.010072  0
H  H49  1  0.17432140  0.05964466  0.88628575  1  0  0.298081  0  0.934305  0  0  0.277943  0  1.003559  0  0  0.286207  0  0.996562  0  0  0.304326  0.272011  0  1.008651  0
H  H50  1  0.78817410  0.44057524  0.11375597  1  0  0.298819  0  0.933624  0  0  0.278153  0  1.003609  0  0  0.286406  0  0.996661  0  0  0.304549  0.272252  0  1.008655  0
H  H51  1  0.32570148  0.17392116  0.11388708  1  0  0.29834  0  0.933868  0  0  0.27797  0  1.003509  0  0  0.286246  0  0.996512  0  0  0.304241  0.272016  0  1.00862  0
H  H52  1  0.28831870  0.67362502  0.11385977  1  0  0.298049  0  0.935434  0  0  0.277638  0  1.00497  0  0  0.285895  0  0.998037  0  0  0.304453  0.271716  0  1.010025  0
H  H53  1  0.82568115  0.94035452  0.11371482  1  0  0.29798  0  0.934299  0  0  0.277837  0  1.003583  0  0  0.286102  0  0.996585  0  0  0.304275  0.271907  0  1.008666  0
H  H54  1  0.21181946  0.55942396  0.88624087  1  0  0.29878  0  0.933691  0  0  0.278121  0  1.003662  0  0  0.286373  0  0.996717  0  0  0.304561  0.272218  0  1.008707  0
H  H55  1  0.67429806  0.82608168  0.88611337  1  0  0.298391  0  0.933829  0  0  0.278065  0  1.003428  0  0  0.286346  0  0.996412  0  0  0.304235  0.272114  0  1.008532  0
C  C56  1  0.52416315  0.26375567  0.94538199  1  0  0.275608  0  3.823037  0  0  0.258081  0  4.094279  0  0  0.278092  0  4.100289  0  0  0.122048  0.244803  0  4.089726  0
C  C57  1  0.42117403  0.18143647  0.94545565  1  0  0.277424  0  3.822978  0  0  0.259957  0  4.094041  0  0  0.279946  0  4.100069  0  0  0.122239  0.246634  0  4.089511  0
C  C58  1  0.97579795  0.31878544  0.05462216  1  0  0.27617  0  3.82565  0  0  0.259402  0  4.096111  0  0  0.279282  0  4.102288  0  0  0.122311  0.246221  0  4.091408  0
C  C59  1  0.07887544  0.23652464  0.05465024  1  0  0.275927  0  3.824643  0  0  0.258126  0  4.096118  0  0  0.278178  0  4.102106  0  0  0.121487  0.244795  0  4.091564  0
C  C60  1  0.47583538  0.73624352  0.05461797  1  0  0.275569  0  3.82307  0  0  0.258121  0  4.094201  0  0  0.278125  0  4.100218  0  0  0.12208  0.244844  0  4.089649  0
C  C61  1  0.57882699  0.81856454  0.05454596  1  0  0.277521  0  3.823072  0  0  0.260024  0  4.094117  0  0  0.280019  0  4.10014  0  0  0.12228  0.246702  0  4.089586  0
C  C62  1  0.02419456  0.68121375  0.94537654  1  0  0.276128  0  3.825759  0  0  0.259309  0  4.096171  0  0  0.279187  0  4.102349  0  0  0.122282  0.246129  0  4.091463  0
C  C63  1  0.92112060  0.76347272  0.94534809  1  0  0.276003  0  3.824614  0  0  0.258203  0  4.096084  0  0  0.278254  0  4.10207  0  0  0.121488  0.244878  0  4.091521  0
C  C64  1  0.51003716  0.24430012  0.82916939  1  0  -0.049516  0  3.81162  0  0  -0.066917  0  4.080805  0  0  -0.080873  0  4.109111  0  0  0.040869  -0.057879  0  4.061864  0
C  C65  1  0.31904297  0.08464603  0.82931871  1  0  -0.051393  0  3.812719  0  0  -0.068697  0  4.082799  0  0  -0.082667  0  4.111093  0  0  0.040227  -0.059628  0  4.063864  0
C  C66  1  0.98982754  0.41556362  0.17078320  1  0  -0.049454  0  3.812694  0  0  -0.067543  0  4.082866  0  0  -0.081456  0  4.111162  0  0  0.040805  -0.058528  0  4.063917  0
C  C67  1  0.18096406  0.25590841  0.17081635  1  0  -0.050047  0  3.812917  0  0  -0.06697  0  4.082327  0  0  -0.080977  0  4.110594  0  0  0.040859  -0.057891  0  4.063378  0
C  C68  1  0.48996284  0.75570089  0.17083261  1  0  -0.049553  0  3.811744  0  0  -0.066979  0  4.08093  0  0  -0.080934  0  4.109241  0  0  0.04083  -0.057954  0  4.061995  0
C  C69  1  0.68095897  0.91535496  0.17068688  1  0  -0.051599  0  3.812829  0  0  -0.06888  0  4.082891  0  0  -0.082847  0  4.111182  0  0  0.040163  -0.059814  0  4.063967  0
C  C70  1  0.01016453  0.58443010  0.82921219  1  0  -0.049605  0  3.812745  0  0  -0.067494  0  4.082694  0  0  -0.0814  0  4.110988  0  0  0.040822  -0.058482  0  4.063746  0
C  C71  1  0.81903176  0.74409171  0.82918091  1  0  -0.050131  0  3.813061  0  0  -0.067099  0  4.082539  0  0  -0.081103  0  4.110807  0  0  0.040773  -0.058034  0  4.063604  0
C  C72  1  0.41116050  0.14605328  0.71487526  1  0  0.25568  0  3.841586  0  0  0.233909  0  4.117006  0  0  0.253065  0  4.125803  0  0  0.115785  0.221146  0  4.110803  0
C  C73  1  0.30358465  0.06849435  0.71496554  1  0  0.257941  0  3.839089  0  0  0.234247  0  4.116629  0  0  0.253468  0  4.125342  0  0  0.115343  0.221427  0  4.110488  0
C  C74  1  0.08873808  0.43169392  0.28513303  1  0  0.255606  0  3.84162  0  0  0.233333  0  4.118135  0  0  0.252553  0  4.126793  0  0  0.115096  0.220509  0  4.112035  0
C  C75  1  0.19639028  0.35408979  0.28515686  1  0  0.257861  0  3.840215  0  0  0.234482  0  4.117523  0  0  0.253767  0  4.12613  0  0  0.115537  0.22165  0  4.111409  0
C  C76  1  0.58883981  0.85394865  0.28512431  1  0  0.255785  0  3.841642  0  0  0.233997  0  4.117092  0  0  0.253155  0  4.125886  0  0  0.115799  0.221235  0  4.110892  0
C  C77  1  0.69641762  0.93150756  0.28503688  1  0  0.258007  0  3.839166  0  0  0.234298  0  4.116728  0  0  0.253514  0  4.125445  0  0  0.115368  0.221468  0  4.110599  0
C  C78  1  0.91125998  0.56830344  0.71486524  1  0  0.255745  0  3.841643  0  0  0.233386  0  4.118169  0  0  0.252602  0  4.126833  0  0  0.115132  0.220572  0  4.112061  0
C  C79  1  0.80360450  0.64591032  0.71484153  1  0  0.257762  0  3.840383  0  0  0.234382  0  4.11772  0  0  0.253664  0  4.126334  0  0  0.115475  0.221546  0  4.111611  0
C  C80  1  0.57964771  0.39558754  0.78757631  1  0  0.658297  0  3.779172  0  0  0.62605  0  4.060764  0  0  0.655631  0  4.057388  0  0  0.246678  0.605993  0  4.062442  0
C  C81  1  0.20777322  0.89181985  0.78771055  1  0  0.65712  0  3.780036  0  0  0.62411  0  4.062762  0  0  0.653696  0  4.059393  0  0  0.245481  0.604036  0  4.064534  0
C  C82  1  0.92013082  0.60845937  0.21258111  1  0  0.65671  0  3.781614  0  0  0.625433  0  4.061903  0  0  0.654962  0  4.058634  0  0  0.246902  0.605409  0  4.063508  0
C  C83  1  0.29218042  0.10460977  0.21236454  1  0  0.659185  0  3.776981  0  0  0.625618  0  4.06038  0  0  0.655218  0  4.056951  0  0  0.245751  0.605529  0  4.062203  0
C  C84  1  0.42035484  0.60441164  0.21242426  1  0  0.658306  0  3.7793  0  0  0.626071  0  4.060859  0  0  0.655671  0  4.057451  0  0  0.246702  0.606003  0  4.062543  0
C  C85  1  0.79222908  0.10817842  0.21229027  1  0  0.657172  0  3.779964  0  0  0.624083  0  4.062801  0  0  0.653683  0  4.059414  0  0  0.245475  0.603994  0  4.064595  0
C  C86  1  0.07987122  0.39154164  0.78742010  1  0  0.65665  0  3.781684  0  0  0.625368  0  4.062001  0  0  0.654894  0  4.05874  0  0  0.246876  0.605351  0  4.063597  0
C  C87  1  0.70781785  0.89538850  0.78763567  1  0  0.659447  0  3.77691  0  0  0.625809  0  4.060406  0  0  0.655416  0  4.056968  0  0  0.245873  0.605703  0  4.062255  0
C  C88  1  0.70357036  0.47327231  0.81103434  1  0  -0.459094  0  3.67869  0  0  -0.537629  0  3.917392  0  0  -0.544819  0  3.920669  0  0  -0.236168  -0.532368  0  3.915246  0
C  C89  1  0.10722749  0.83758321  0.81110720  1  0  -0.461084  0  3.676727  0  0  -0.539189  0  3.915791  0  0  -0.546447  0  3.918959  0  0  -0.237177  -0.533915  0  3.913813  0
C  C90  1  0.79616588  0.66264608  0.18908155  1  0  -0.457981  0  3.677759  0  0  -0.53736  0  3.915424  0  0  -0.544594  0  3.918668  0  0  -0.235854  -0.532066  0  3.913356  0
C  C91  1  0.39277105  0.02703163  0.18900889  1  0  -0.461591  0  3.677578  0  0  -0.539477  0  3.916732  0  0  -0.546727  0  3.919902  0  0  -0.236594  -0.534177  0  3.914704  0
C  C92  1  0.29643548  0.52672412  0.18896611  1  0  -0.459268  0  3.678634  0  0  -0.537769  0  3.917325  0  0  -0.544973  0  3.920595  0  0  -0.236207  -0.532502  0  3.915193  0
C  C93  1  0.89277304  0.16241597  0.18889343  1  0  -0.461129  0  3.676633  0  0  -0.539228  0  3.915725  0  0  -0.546491  0  3.918891  0  0  -0.237199  -0.533952  0  3.913749  0
C  C94  1  0.20383523  0.33735494  0.81091641  1  0  -0.457955  0  3.677881  0  0  -0.537385  0  3.915545  0  0  -0.544619  0  3.918789  0  0  -0.235842  -0.532089  0  3.913475  0
C  C95  1  0.60723250  0.97297121  0.81099216  1  0  -0.461512  0  3.677393  0  0  -0.539385  0  3.916557  0  0  -0.546635  0  3.919733  0  0  -0.23654  -0.534076  0  3.914532  0
N  N96  1  0.60924464  0.31995888  0.83332836  1  0  -0.42931  0  3.369508  0  0  -0.373532  0  3.609435  0  0  -0.392518  0  3.619595  0  0  -0.405351  -0.360378  0  3.602331  0
N  N97  1  0.22400211  0.01322155  0.83354508  1  0  -0.428121  0  3.370737  0  0  -0.371962  0  3.609535  0  0  -0.390977  0  3.619776  0  0  -0.404164  -0.358845  0  3.602476  0
N  N98  1  0.89057835  0.48702691  0.16658971  1  0  -0.428738  0  3.371152  0  0  -0.372803  0  3.61035  0  0  -0.391803  0  3.620594  0  0  -0.404619  -0.359674  0  3.603241  0
N  N99  1  0.27601318  0.18025468  0.16663424  1  0  -0.430402  0  3.370254  0  0  -0.374235  0  3.609985  0  0  -0.39324  0  3.62012  0  0  -0.40521  -0.361106  0  3.602966  0
N  N100  1  0.39075614  0.68004121  0.16667275  1  0  -0.429289  0  3.369654  0  0  -0.373507  0  3.609566  0  0  -0.392498  0  3.619714  0  0  -0.405328  -0.360334  0  3.602445  0
N  N101  1  0.77599866  0.98677854  0.16645676  1  0  -0.427978  0  3.370643  0  0  -0.371793  0  3.609452  0  0  -0.390815  0  3.619695  0  0  -0.4041  -0.358673  0  3.602394  0
N  N102  1  0.10941796  0.51297136  0.83340838  1  0  -0.428635  0  3.371302  0  0  -0.372754  0  3.610424  0  0  -0.391757  0  3.620674  0  0  -0.404665  -0.359634  0  3.60332  0
N  N103  1  0.72398092  0.81974270  0.83336050  1  0  -0.430536  0  3.370497  0  0  -0.374355  0  3.610139  0  0  -0.393366  0  3.620282  0  0  -0.405201  -0.361222  0  3.603134  0
O  O104  1  0.40440888  0.11573477  0.60819727  1  0  -0.583534  0  2.073194  0  0  -0.523886  0  2.290389  0  0  -0.546005  0  2.284326  0  0  -0.333695  -0.508418  0  2.294337  0
O  O105  1  0.20363349  0.99211677  0.60833439  1  0  -0.584859  0  2.073473  0  0  -0.52484  0  2.291656  0  0  -0.546966  0  2.28554  0  0  -0.334065  -0.509342  0  2.295608  0
O  O106  1  0.09543655  0.50803238  0.39178820  1  0  -0.583617  0  2.074099  0  0  -0.523861  0  2.291654  0  0  -0.546017  0  2.285574  0  0  -0.333659  -0.508387  0  2.295635  0
O  O107  1  0.29628921  0.38434633  0.39182864  1  0  -0.584581  0  2.073231  0  0  -0.524555  0  2.290876  0  0  -0.546756  0  2.284829  0  0  -0.333506  -0.509029  0  2.294799  0
O  O108  1  0.59559072  0.88426443  0.39180011  1  0  -0.583577  0  2.073299  0  0  -0.523916  0  2.290486  0  0  -0.546037  0  2.284428  0  0  -0.333688  -0.508448  0  2.294436  0
O  O109  1  0.79636501  0.00788606  0.39166719  1  0  -0.584811  0  2.073402  0  0  -0.524801  0  2.291598  0  0  -0.546925  0  2.285481  0  0  -0.334032  -0.509305  0  2.295561  0
O  O110  1  0.90456176  0.49196955  0.60821070  1  0  -0.583641  0  2.074096  0  0  -0.523904  0  2.291702  0  0  -0.54606  0  2.285615  0  0  -0.333673  -0.50844  0  2.295687  0
O  O111  1  0.70370635  0.61565287  0.60816887  1  0  -0.584539  0  2.073298  0  0  -0.524494  0  2.290962  0  0  -0.546696  0  2.284912  0  0  -0.333476  -0.508969  0  2.294875  0
O  O112  1  0.45939149  0.40201129  0.73011741  1  0  -0.676453  0  1.923233  0  0  -0.636813  0  2.15091  0  0  -0.657627  0  2.141795  0  0  -0.426172  -0.622227  0  2.156933  0
O  O113  1  0.27059980  0.82798883  0.73028088  1  0  -0.674837  0  1.922772  0  0  -0.634912  0  2.1506  0  0  -0.655711  0  2.141481  0  0  -0.42468  -0.620369  0  2.156703  0
O  O114  1  0.04037520  0.67239505  0.27025928  1  0  -0.676145  0  1.92388  0  0  -0.636936  0  2.15108  0  0  -0.65771  0  2.141977  0  0  -0.42696  -0.622377  0  2.157071  0
O  O115  1  0.22930387  0.09812832  0.26975107  1  0  -0.675634  0  1.92148  0  0  -0.635452  0  2.149515  0  0  -0.656254  0  2.140362  0  0  -0.424426  -0.620909  0  2.155655  0
O  O116  1  0.54061084  0.59798698  0.26988194  1  0  -0.676477  0  1.923314  0  0  -0.636843  0  2.150986  0  0  -0.657661  0  2.141861  0  0  -0.426179  -0.622256  0  2.157012  0
O  O117  1  0.72940020  0.17200852  0.26972097  1  0  -0.674852  0  1.922729  0  0  -0.6349  0  2.150584  0  0  -0.655704  0  2.141466  0  0  -0.424702  -0.620355  0  2.156698  0
O  O118  1  0.95962286  0.32760231  0.72973898  1  0  -0.676149  0  1.923815  0  0  -0.636937  0  2.15101  0  0  -0.657708  0  2.14191  0  0  -0.426966  -0.622377  0  2.156996  0
O  O119  1  0.77069549  0.90186997  0.73024583  1  0  -0.675798  0  1.921348  0  0  -0.635592  0  2.149413  0  0  -0.656391  0  2.140248  0  0  -0.424513  -0.621044  0  2.155565  0
O  O120  1  0.61917010  0.34384149  0.05018340  1  0  -0.520899  0  2.000474  0  0  -0.480104  0  2.220663  0  0  -0.499073  0  2.216515  0  0  -0.353266  -0.466793  0  2.223163  0
O  O121  1  0.43112680  0.20630764  0.05034685  1  0  -0.52174  0  2.001214  0  0  -0.480986  0  2.22148  0  0  -0.499985  0  2.217349  0  0  -0.354031  -0.467597  0  2.223986  0
O  O122  1  0.88080732  0.29396321  0.94976796  1  0  -0.52097  0  2.002445  0  0  -0.480432  0  2.222273  0  0  -0.499366  0  2.21818  0  0  -0.353148  -0.467173  0  2.224755  0
O  O123  1  0.06906101  0.15647579  0.94982559  1  0  -0.521341  0  2.000458  0  0  -0.480615  0  2.220758  0  0  -0.499617  0  2.216606  0  0  -0.353863  -0.467254  0  2.223264  0
O  O124  1  0.38083176  0.65615496  0.94981425  1  0  -0.520929  0  2.000497  0  0  -0.480154  0  2.220613  0  0  -0.499138  0  2.216502  0  0  -0.353331  -0.466847  0  2.223115  0
O  O125  1  0.56887619  0.79369336  0.94965688  1  0  -0.521772  0  2.001345  0  0  -0.48103  0  2.221635  0  0  -0.500032  0  2.217499  0  0  -0.354076  -0.467644  0  2.224135  0
O  O126  1  0.11918749  0.70603325  0.05022882  1  0  -0.520882  0  2.002533  0  0  -0.480356  0  2.22237  0  0  -0.499286  0  2.218277  0  0  -0.353095  -0.467101  0  2.224852  0
O  O127  1  0.93093555  0.84352340  0.05017226  1  0  -0.521344  0  2.000508  0  0  -0.480598  0  2.220779  0  0  -0.49961  0  2.216646  0  0  -0.353836  -0.467237  0  2.223278  0
O  O128  1  0.06656393  0.06604574  0.44007491  1  0  -0.919024  0  1.771249  0  0  -0.873129  0  1.934029  0  0  -0.891321  0  1.902583  0  0  -0.733125  -0.859926  0  1.956092  0
O  O129  1  0.37357615  0.87385989  0.43990500  1  0  -0.918534  0  1.772708  0  0  -0.872812  0  1.935125  0  0  -0.890952  0  1.903706  0  0  -0.732815  -0.859661  0  1.957147  0
O  O130  1  0.43384699  0.62629994  0.56023632  1  0  -0.917293  0  1.774142  0  0  -0.872068  0  1.935915  0  0  -0.890208  0  1.904504  0  0  -0.732593  -0.858863  0  1.957978  0
O  O131  1  0.12657400  0.43412212  0.56001885  1  0  -0.919144  0  1.772102  0  0  -0.873592  0  1.934315  0  0  -0.891783  0  1.902837  0  0  -0.733343  -0.860364  0  1.956363  0
O  O132  1  0.93343564  0.93395345  0.55992393  1  0  -0.919018  0  1.771249  0  0  -0.873131  0  1.934022  0  0  -0.891323  0  1.902574  0  0  -0.733114  -0.859934  0  1.95608  0
O  O133  1  0.62642608  0.12614201  0.56009888  1  0  -0.9186  0  1.772685  0  0  -0.872888  0  1.93511  0  0  -0.891025  0  1.903688  0  0  -0.732845  -0.859738  0  1.95713  0
O  O134  1  0.56614211  0.37369745  0.43975676  1  0  -0.917259  0  1.774265  0  0  -0.872073  0  1.935962  0  0  -0.890209  0  1.904548  0  0  -0.732566  -0.858884  0  1.957966  0
O  O135  1  0.87343001  0.56588254  0.43998463  1  0  -0.919136  0  1.77216  0  0  -0.873619  0  1.934321  0  0  -0.891797  0  1.902891  0  0  -0.733358  -0.860396  0  1.95637  0
