# generated using pymatgen
data_CoH7C9N2O5
_symmetry_space_group_name_H-M   'P 1'
_cell_length_a   5.96905417
_cell_length_b   7.82322943
_cell_length_c   26.83133534
_cell_angle_alpha   89.08524185
_cell_angle_beta   90.00576472
_cell_angle_gamma   89.99621861
_symmetry_Int_Tables_number   1
_chemical_formula_structural   CoH7C9N2O5
_chemical_formula_sum   'Co4 H28 C36 N8 O20'
_cell_volume   1252.79069191
_cell_formula_units_Z   4
loop_
 _symmetry_equiv_pos_site_id
 _symmetry_equiv_pos_as_xyz
  1  'x, y, z'
loop_
 _atom_site_type_symbol
 _atom_site_label
 _atom_site_symmetry_multiplicity
 _atom_site_fract_x
 _atom_site_fract_y
 _atom_site_fract_z
 _atom_site_occupancy
 _atom_site_pbe_bader_charge
 _atom_site_pbe_bader_spin_density
 _atom_site_pbe_cm5_charge
 _atom_site_pbe_ddec_charge
 _atom_site_pbe_ddec_spin_density
 _atom_site_pbe_ddec_sum_bond_order
 _atom_site_pbe_magmom
Co  Co0  1  0.96053194  0.74614635  0.71892101  1  1.317452  0  0.750292  0.915971  0  3.078836  0
Co  Co1  1  0.04149593  0.74230241  0.28104300  1  1.316453  0  0.751347  0.915251  0  3.083467  0
Co  Co2  1  0.46050322  0.25399746  0.78109112  1  1.316503  0  0.75019  0.915932  0  3.078991  0
Co  Co3  1  0.54156977  0.25768913  0.21893132  1  1.31673  0  0.751572  0.915324  0  3.084163  0
H  H4  1  0.01451652  0.59461821  0.84523583  1  0.058944  0  0.108036  0.077989  0  0.94827  0
H  H5  1  0.83971932  0.86178552  0.86318978  1  0.06132  0  0.104812  0.128989  0  0.990965  0
H  H6  1  0.60528898  0.73850557  0.84509153  1  0.112036  0  0.110765  0.141287  0  0.958953  0
H  H7  1  0.06585311  0.61729333  0.61790738  1  0.126933  0  0.122232  0.097534  0  1.030251  0
H  H8  1  0.86790187  0.60853784  0.53544033  1  0.091203  0  0.108701  0.11731  0  1.024505  0
H  H9  1  0.30589800  0.85469660  0.60614054  1  0.12711  0  0.115347  0.126168  0  1.018529  0
H  H10  1  0.53153247  0.86069584  0.68438699  1  0.179102  0  0.131066  0.111298  0  1.028575  0
H  H11  1  0.98789744  0.60464542  0.15473792  1  0.064955  0  0.108603  0.077956  0  0.945081  0
H  H12  1  0.15738294  0.87590825  0.13692838  1  0.086454  0  0.104913  0.12951  0  0.991728  0
H  H13  1  0.39419221  0.75214791  0.15430154  1  0.086861  0  0.110961  0.142054  0  0.957019  0
H  H14  1  0.92975400  0.61705910  0.38317177  1  0.148954  0  0.121999  0.097241  0  1.031748  0
H  H15  1  0.12099480  0.61316583  0.46649371  1  0.114305  0  0.108807  0.117259  0  1.025553  0
H  H16  1  0.69639327  0.84013445  0.39349226  1  0.089317  0  0.114707  0.124291  0  1.024396  0
H  H17  1  0.47746114  0.84187388  0.31432928  1  0.162094  0  0.131292  0.11099  0  1.026123  0
H  H18  1  0.51455656  0.40538301  0.65476320  1  0.058764  0  0.107969  0.077829  0  0.948366  0
H  H19  1  0.33967958  0.13824532  0.63681997  1  0.061803  0  0.104793  0.128986  0  0.991089  0
H  H20  1  0.10530028  0.26165999  0.65488986  1  0.111329  0  0.110686  0.141271  0  0.959029  0
H  H21  1  0.56600174  0.38267172  0.88207609  1  0.125999  0  0.122215  0.097532  0  1.030259  0
H  H22  1  0.36833183  0.39130673  0.96456074  1  0.095824  0  0.108612  0.117092  0  1.024708  0
H  H23  1  0.80603626  0.14547471  0.89387640  1  0.12817  0  0.115171  0.125896  0  1.018498  0
H  H24  1  0.03133489  0.13970379  0.81560015  1  0.133181  0  0.131229  0.111383  0  1.028275  0
H  H25  1  0.48768991  0.39524575  0.34525358  1  0.065934  0  0.108519  0.077915  0  0.944767  0
H  H26  1  0.65723537  0.12394992  0.36303922  1  0.085102  0  0.104955  0.129327  0  0.992376  0
H  H27  1  0.89405725  0.24776064  0.34570251  1  0.087365  0  0.110873  0.141664  0  0.957064  0
H  H28  1  0.43000763  0.38279109  0.11680553  1  0.150167  0  0.122018  0.0974  0  1.031711  0
H  H29  1  0.62131892  0.38679528  0.03351019  1  0.114934  0  0.108689  0.117102  0  1.025828  0
H  H30  1  0.19675004  0.15980902  0.10654815  1  0.087121  0  0.114576  0.124086  0  1.025198  0
H  H31  1  0.97775280  0.15798531  0.18568328  1  0.161526  0  0.131092  0.111081  0  1.026095  0
C  C32  1  0.79373095  0.52630631  0.78457356  1  1.53852  0  0.231296  0.558586  0  4.038164  0
C  C33  1  0.93093105  0.65819292  0.81317942  1  0.546646  0  -0.014814  0.087099  0  4.006291  0
C  C34  1  0.76496403  0.79376310  0.83183879  1  -0.077989  0  -0.159038  -0.359239  0  3.899297  0
C  C35  1  0.70807016  0.92675258  0.79172303  1  1.546257  0  0.242678  0.657421  0  4.013673  0
C  C36  1  0.89915391  0.67099053  0.61292365  1  0.431728  0  0.046921  0.086207  0  3.926149  0
C  C37  1  0.78839392  0.66556827  0.56765512  1  0.071238  0  -0.082253  -0.200062  0  3.953657  0
C  C38  1  0.57070521  0.73357140  0.56407695  1  0.272344  0  0.097256  0.19328  0  4.068336  0
C  C39  1  0.47471501  0.80226143  0.60690130  1  0.004164  0  -0.073895  -0.187604  0  3.927312  0
C  C40  1  0.59833620  0.80562690  0.65064213  1  0.457897  0  0.057053  0.103922  0  3.887398  0
C  C41  1  0.21011307  0.53128619  0.21524667  1  1.544049  0  0.232272  0.559817  0  4.035995  0
C  C42  1  0.07101371  0.66536336  0.18674031  1  0.534849  0  -0.0147  0.088599  0  4.003237  0
C  C43  1  0.23445606  0.80449882  0.16800956  1  -0.07996  0  -0.158934  -0.359774  0  3.898681  0
C  C44  1  0.29156181  0.93265789  0.20821397  1  1.546255  0  0.243313  0.657954  0  4.014697  0
C  C45  1  0.09778766  0.66807621  0.38782080  1  0.447284  0  0.046846  0.085768  0  3.926299  0
C  C46  1  0.20506859  0.66485668  0.43357441  1  -0.027122  0  -0.082083  -0.198631  0  3.94796  0
C  C47  1  0.42477712  0.72889156  0.43669739  1  0.308602  0  0.09704  0.194945  0  4.064463  0
C  C48  1  0.52606237  0.79072557  0.39297708  1  0.014746  0  -0.074774  -0.189329  0  3.927853  0
C  C49  1  0.40590539  0.79204810  0.34874999  1  0.49856  0  0.05717  0.10433  0  3.889359  0
C  C50  1  0.29374884  0.47380862  0.71540853  1  1.537086  0  0.230874  0.557862  0  4.038642  0
C  C51  1  0.43091886  0.34187182  0.68681532  1  0.547366  0  -0.014683  0.087695  0  4.0061  0
C  C52  1  0.26493211  0.20631945  0.66815562  1  -0.076937  0  -0.15907  -0.359595  0  3.89975  0
C  C53  1  0.20799554  0.07338058  0.70827817  1  1.545349  0  0.24235  0.657052  0  4.013629  0
C  C54  1  0.39931410  0.32898846  0.88707269  1  0.433679  0  0.046892  0.086157  0  3.92606  0
C  C55  1  0.28871741  0.33433540  0.93235504  1  0.065034  0  -0.082081  -0.199678  0  3.953062  0
C  C56  1  0.07105407  0.26636075  0.93594552  1  0.27176  0  0.097036  0.193504  0  4.066705  0
C  C57  1  0.97488749  0.19784094  0.89311062  1  0.002294  0  -0.07379  -0.187595  0  3.927388  0
C  C58  1  0.09832288  0.19457320  0.84935200  1  0.504552  0  0.057046  0.103962  0  3.887493  0
C  C59  1  0.71004625  0.46868307  0.28475565  1  1.542734  0  0.232124  0.559053  0  4.035458  0
C  C60  1  0.57092565  0.33458088  0.31324282  1  0.535111  0  -0.014409  0.089072  0  4.003883  0
C  C61  1  0.73432067  0.19540193  0.33198398  1  -0.078668  0  -0.158953  -0.358945  0  3.899146  0
C  C62  1  0.79151108  0.06728807  0.29177585  1  1.546586  0  0.243153  0.657393  0  4.014206  0
C  C63  1  0.59804466  0.33182454  0.11217665  1  0.445632  0  0.046738  0.085413  0  3.925476  0
C  C64  1  0.70536222  0.33505387  0.06643280  1  -0.024108  0  -0.081939  -0.198162  0  3.948057  0
C  C65  1  0.92506502  0.27099369  0.06332699  1  0.305385  0  0.09639  0.193697  0  4.065324  0
C  C66  1  0.02637537  0.20916441  0.10705674  1  0.014522  0  -0.074307  -0.188501  0  3.927715  0
C  C67  1  0.90616025  0.20785702  0.15127528  1  0.502616  0  0.057402  0.104397  0  3.888897  0
N  N68  1  0.80728959  0.74157966  0.65392429  1  -1.164039  0  -0.317223  -0.174529  0  3.552108  0
N  N69  1  0.43976266  0.73557974  0.52048572  1  -0.479894  0  -0.150523  -0.134169  0  3.246024  0
N  N70  1  0.19449443  0.73298692  0.34595880  1  -1.158726  0  -0.317685  -0.173391  0  3.553501  0
N  N71  1  0.55412111  0.73311969  0.48044317  1  -0.493562  0  -0.149845  -0.134705  0  3.252318  0
N  N72  1  0.30731511  0.25854095  0.84606787  1  -1.163773  0  -0.31722  -0.174553  0  3.552369  0
N  N73  1  0.94014037  0.26434096  0.97953581  1  -0.475104  0  -0.150431  -0.13437  0  3.246117  0
N  N74  1  0.69470186  0.26688676  0.15405828  1  -1.160241  0  -0.317637  -0.173402  0  3.553558  0
N  N75  1  0.05446791  0.26673862  0.01958707  1  -0.496998  0  -0.14974  -0.134277  0  3.252506  0
O  O76  1  0.78483915  0.55664146  0.73766800  1  -1.030349  0  -0.26184  -0.435638  0  2.429619  0
O  O77  1  0.08949862  0.73536625  0.78192425  1  -0.935259  0  -0.353979  -0.473561  0  2.198769  0
O  O78  1  0.74460890  0.90589393  0.74542848  1  -1.06687  0  -0.265134  -0.471122  0  2.391449  0
O  O79  1  0.61853675  0.06070755  0.80938320  1  -1.092347  0  -0.282662  -0.496245  0  2.401801  0
O  O80  1  0.68971972  0.40719317  0.80751919  1  -1.091503  0  -0.265939  -0.471675  0  2.425277  0
O  O81  1  0.21928831  0.55639015  0.26215340  1  -1.024772  0  -0.262161  -0.436222  0  2.431739  0
O  O82  1  0.91183821  0.73773559  0.21814660  1  -0.938088  0  -0.353775  -0.47249  0  2.196901  0
O  O83  1  0.25543778  0.90642093  0.25450951  1  -1.065533  0  -0.26492  -0.471195  0  2.391215  0
O  O84  1  0.38102409  0.06868366  0.19061302  1  -1.092002  0  -0.28321  -0.49682  0  2.40393  0
O  O85  1  0.31502172  0.41530098  0.19223888  1  -1.089151  0  -0.266091  -0.472582  0  2.424454  0
O  O86  1  0.28477852  0.44348663  0.76231268  1  -1.028124  0  -0.261505  -0.435255  0  2.429522  0
O  O87  1  0.58946922  0.26468189  0.71807865  1  -0.935197  0  -0.354043  -0.473671  0  2.198528  0
O  O88  1  0.24452534  0.09428753  0.75458145  1  -1.066931  0  -0.264901  -0.470838  0  2.390714  0
O  O89  1  0.11847881  0.93941993  0.69062477  1  -1.092102  0  -0.282493  -0.495918  0  2.401885  0
O  O90  1  0.18975392  0.59293970  0.69246696  1  -1.09162  0  -0.266052  -0.47156  0  2.425233  0
O  O91  1  0.71936304  0.44356868  0.23784139  1  -1.023859  0  -0.262191  -0.436046  0  2.430605  0
O  O92  1  0.41180044  0.26223817  0.28182198  1  -0.938775  0  -0.353888  -0.47286  0  2.197257  0
O  O93  1  0.75553156  0.09359053  0.24546939  1  -1.065954  0  -0.265015  -0.471165  0  2.390674  0
O  O94  1  0.88088619  0.93121546  0.30937541  1  -1.092212  0  -0.283095  -0.49656  0  2.404191  0
O  O95  1  0.81490449  0.58469887  0.30776039  1  -1.089017  0  -0.265965  -0.472166  0  2.423856  0
