# generated using pymatgen
data_UH13C6SNO11
_symmetry_space_group_name_H-M   'P 1'
_cell_length_a   8.16596892
_cell_length_b   12.21542189
_cell_length_c   14.41865889
_cell_angle_alpha   90.00094876
_cell_angle_beta   101.49124259
_cell_angle_gamma   90.00043551
_symmetry_Int_Tables_number   1
_chemical_formula_structural   UH13C6SNO11
_chemical_formula_sum   'U4 H52 C24 S4 N4 O44'
_cell_volume   1409.44219106
_cell_formula_units_Z   4
loop_
 _symmetry_equiv_pos_site_id
 _symmetry_equiv_pos_as_xyz
  1  'x, y, z'
loop_
 _atom_site_type_symbol
 _atom_site_label
 _atom_site_symmetry_multiplicity
 _atom_site_fract_x
 _atom_site_fract_y
 _atom_site_fract_z
 _atom_site_occupancy
 _atom_site_hle17_bader_spin_density
 _atom_site_hle17_ddec_charge
 _atom_site_hle17_ddec_spin_density
 _atom_site_hle17_ddec_sum_bond_order
 _atom_site_hle17_magmom
 _atom_site_hse06_10hf_bader_spin_density
 _atom_site_hse06_10hf_ddec_charge
 _atom_site_hse06_10hf_ddec_spin_density
 _atom_site_hse06_10hf_ddec_sum_bond_order
 _atom_site_hse06_10hf_magmom
 _atom_site_hse06_bader_spin_density
 _atom_site_hse06_ddec_charge
 _atom_site_hse06_ddec_spin_density
 _atom_site_hse06_ddec_sum_bond_order
 _atom_site_hse06_magmom
 _atom_site_pbe_bader_spin_density
 _atom_site_pbe_cm5_charge
 _atom_site_pbe_ddec_charge
 _atom_site_pbe_ddec_spin_density
 _atom_site_pbe_ddec_sum_bond_order
 _atom_site_pbe_magmom
U  U0  1  0.75628532  0.35778678  0.36235755  1  0  2.55706  0  4.082886  0  0  2.621618  0  4.729268  0  0  2.723897  0  4.695306  0  0  2.178981  2.547296  0  4.756057  0
U  U1  1  0.74371898  0.85779021  0.13764258  1  0  2.557319  0  4.08269  0  0  2.621753  0  4.729187  0  0  2.724028  0  4.695274  0  0  2.179115  2.547383  0  4.756039  0
U  U2  1  0.24371176  0.64221552  0.63764196  1  0  2.557157  0  4.082778  0  0  2.621716  0  4.729119  0  0  2.724028  0  4.695101  0  0  2.179046  2.547437  0  4.755842  0
U  U3  1  0.25628560  0.14220799  0.86235773  1  0  2.557086  0  4.082918  0  0  2.621696  0  4.729214  0  0  2.723961  0  4.695283  0  0  2.179062  2.547417  0  4.755931  0
H  H4  1  0.02243193  0.38966604  0.54050891  1  0  0.456408  0  0.833503  0  0  0.428097  0  0.893181  0  0  0.440521  0  0.87503  0  0  0.310702  0.419273  0  0.906029  0
H  H5  1  0.47756090  0.88966874  0.95949312  1  0  0.456372  0  0.833564  0  0  0.428011  0  0.893317  0  0  0.440438  0  0.875163  0  0  0.310652  0.419186  0  0.906168  0
H  H6  1  0.97756768  0.61033298  0.45949227  1  0  0.456439  0  0.833456  0  0  0.428119  0  0.893148  0  0  0.440545  0  0.874995  0  0  0.310722  0.419295  0  0.905998  0
H  H7  1  0.52243993  0.11032864  0.04050679  1  0  0.456364  0  0.833568  0  0  0.428034  0  0.893276  0  0  0.440458  0  0.875126  0  0  0.310639  0.419209  0  0.906126  0
H  H8  1  0.13363351  0.37387564  0.45811850  1  0  0.437133  0  0.865671  0  0  0.410209  0  0.923055  0  0  0.422956  0  0.904823  0  0  0.299736  0.401185  0  0.935894  0
H  H9  1  0.36636321  0.87387291  0.04188220  1  0  0.437105  0  0.865709  0  0  0.410195  0  0.923065  0  0  0.422941  0  0.904833  0  0  0.299723  0.401172  0  0.935904  0
H  H10  1  0.86636609  0.62612665  0.54188197  1  0  0.437096  0  0.865726  0  0  0.410171  0  0.923111  0  0  0.422918  0  0.904878  0  0  0.299716  0.401148  0  0.935951  0
H  H11  1  0.63364131  0.12612365  0.95811533  1  0  0.437146  0  0.865647  0  0  0.410237  0  0.923016  0  0  0.422985  0  0.904782  0  0  0.299689  0.401214  0  0.935856  0
H  H12  1  0.49394837  0.36851980  0.16527732  1  0  0.459682  0  0.82234  0  0  0.432576  0  0.878572  0  0  0.444549  0  0.860909  0  0  0.312343  0.423947  0  0.891301  0
H  H13  1  0.00605198  0.86852752  0.33472230  1  0  0.459602  0  0.822462  0  0  0.432489  0  0.878706  0  0  0.444464  0  0.861041  0  0  0.312315  0.423859  0  0.891437  0
H  H14  1  0.50604633  0.63148331  0.83472680  1  0  0.459624  0  0.822423  0  0  0.432507  0  0.878678  0  0  0.444481  0  0.861012  0  0  0.312326  0.423879  0  0.891405  0
H  H15  1  0.99394882  0.13147805  0.66527622  1  0  0.459659  0  0.822374  0  0  0.432554  0  0.878607  0  0  0.444526  0  0.860945  0  0  0.312334  0.423928  0  0.891333  0
H  H16  1  0.66908028  0.41008308  0.14512908  1  0  0.444947  0  0.800653  0  0  0.438128  0  0.834772  0  0  0.446867  0  0.822415  0  0  0.343654  0.431782  0  0.843798  0
H  H17  1  0.83092745  0.91009037  0.35487354  1  0  0.444894  0  0.800738  0  0  0.438072  0  0.83485  0  0  0.446812  0  0.822495  0  0  0.343641  0.431726  0  0.843877  0
H  H18  1  0.33092065  0.58991839  0.85487500  1  0  0.44486  0  0.80075  0  0  0.438047  0  0.834873  0  0  0.446784  0  0.822524  0  0  0.343621  0.431704  0  0.843896  0
H  H19  1  0.16906957  0.08991029  0.64512319  1  0  0.444883  0  0.800765  0  0  0.438068  0  0.834857  0  0  0.446805  0  0.822505  0  0  0.343635  0.431724  0  0.843881  0
H  H20  1  0.83519457  0.29856699  0.72281419  1  0  0.276744  0  0.884295  0  0  0.256293  0  0.948718  0  0  0.264947  0  0.941928  0  0  0.32068  0.250003  0  0.95382  0
H  H21  1  0.66480448  0.79855801  0.77718259  1  0  0.276685  0  0.884257  0  0  0.256242  0  0.948678  0  0  0.264892  0  0.941886  0  0  0.320642  0.249952  0  0.953778  0
H  H22  1  0.16480243  0.70143448  0.27718185  1  0  0.276755  0  0.884262  0  0  0.256306  0  0.948681  0  0  0.264959  0  0.94189  0  0  0.320673  0.250014  0  0.953783  0
H  H23  1  0.33519507  0.20144428  0.22281580  1  0  0.276799  0  0.884217  0  0  0.256337  0  0.948658  0  0  0.264995  0  0.941856  0  0  0.320675  0.250042  0  0.953763  0
H  H24  1  0.96581259  0.42094672  0.85712320  1  0  0.148575  0  0.912975  0  0  0.158603  0  0.971015  0  0  0.161847  0  0.96883  0  0  0.132749  0.156231  0  0.972727  0
H  H25  1  0.53419607  0.92094101  0.64287703  1  0  0.1486  0  0.913118  0  0  0.158625  0  0.971112  0  0  0.161873  0  0.968921  0  0  0.132758  0.156251  0  0.972825  0
H  H26  1  0.03418951  0.57904902  0.14287754  1  0  0.148593  0  0.913045  0  0  0.158653  0  0.971042  0  0  0.161897  0  0.968854  0  0  0.132758  0.156281  0  0.972754  0
H  H27  1  0.46580719  0.07906210  0.35711967  1  0  0.148562  0  0.913163  0  0  0.158561  0  0.971182  0  0  0.161805  0  0.968999  0  0  0.132704  0.15619  0  0.972897  0
H  H28  1  0.80883928  0.51565643  0.80526013  1  0  0.134841  0  0.943596  0  0  0.142769  0  1.00475  0  0  0.146002  0  1.003  0  0  0.120629  0.140406  0  1.006124  0
H  H29  1  0.69116398  0.01565267  0.69474626  1  0  0.134848  0  0.943531  0  0  0.14274  0  1.004699  0  0  0.145971  0  1.002953  0  0  0.120632  0.140373  0  1.006074  0
H  H30  1  0.19116288  0.48434013  0.19474339  1  0  0.134824  0  0.943572  0  0  0.142749  0  1.004737  0  0  0.14598  0  1.002992  0  0  0.120626  0.140384  0  1.006113  0
H  H31  1  0.30883811  0.98435044  0.30525448  1  0  0.134873  0  0.943494  0  0  0.142767  0  1.004649  0  0  0.145997  0  1.002902  0  0  0.120652  0.140403  0  1.006026  0
H  H32  1  0.65872508  0.44474323  0.63770698  1  0  0.112965  0  0.92056  0  0  0.122725  0  0.98272  0  0  0.124898  0  0.981818  0  0  0.128183  0.12106  0  0.983571  0
H  H33  1  0.84127407  0.94474253  0.86229605  1  0  0.113007  0  0.920442  0  0  0.122752  0  0.982615  0  0  0.124934  0  0.981721  0  0  0.128163  0.121085  0  0.983465  0
H  H34  1  0.34127205  0.55525660  0.36229463  1  0  0.112949  0  0.920515  0  0  0.122694  0  0.982679  0  0  0.124878  0  0.981785  0  0  0.128155  0.121024  0  0.983529  0
H  H35  1  0.15871935  0.05525812  0.13770655  1  0  0.112901  0  0.920481  0  0  0.122633  0  0.982649  0  0  0.124814  0  0.981761  0  0  0.128141  0.120968  0  0.983498  0
H  H36  1  0.53363806  0.43204916  0.72525872  1  0  0.109646  0  0.908075  0  0  0.121617  0  0.967512  0  0  0.122759  0  0.966843  0  0  0.128796  0.120845  0  0.968054  0
H  H37  1  0.96636959  0.93204657  0.77474364  1  0  0.109663  0  0.908075  0  0  0.121635  0  0.967481  0  0  0.122787  0  0.966827  0  0  0.128807  0.120866  0  0.968018  0
H  H38  1  0.46636154  0.56795149  0.27474176  1  0  0.109657  0  0.908067  0  0  0.121617  0  0.967497  0  0  0.122768  0  0.966836  0  0  0.128803  0.120846  0  0.96803  0
H  H39  1  0.03362629  0.06795736  0.22525783  1  0  0.109647  0  0.908087  0  0  0.121614  0  0.967465  0  0  0.122761  0  0.966814  0  0  0.128805  0.120846  0  0.967996  0
H  H40  1  0.41786275  0.32869695  0.58013410  1  0  0.168976  0  0.925302  0  0  0.181794  0  0.975838  0  0  0.185123  0  0.974417  0  0  0.126946  0.179495  0  0.976901  0
H  H41  1  0.08213282  0.82869771  0.91986874  1  0  0.168966  0  0.925335  0  0  0.181808  0  0.975871  0  0  0.185138  0  0.974445  0  0  0.12692  0.179509  0  0.976936  0
H  H42  1  0.58213559  0.67130452  0.41986555  1  0  0.16898  0  0.925343  0  0  0.181792  0  0.975878  0  0  0.185124  0  0.974452  0  0  0.126937  0.179492  0  0.976945  0
H  H43  1  0.91786798  0.17130458  0.08012978  1  0  0.168969  0  0.925319  0  0  0.181787  0  0.975877  0  0  0.185116  0  0.974456  0  0  0.126912  0.179489  0  0.976942  0
H  H44  1  0.46743434  0.23615190  0.67751890  1  0  0.136027  0  0.948957  0  0  0.142992  0  1.016593  0  0  0.146386  0  1.014333  0  0  0.115827  0.140591  0  1.018288  0
H  H45  1  0.03256345  0.73614969  0.82248495  1  0  0.135997  0  0.948977  0  0  0.14298  0  1.016608  0  0  0.146374  0  1.014349  0  0  0.115828  0.140591  0  1.018292  0
H  H46  1  0.53256028  0.76385039  0.32248175  1  0  0.136065  0  0.94897  0  0  0.142995  0  1.01663  0  0  0.14639  0  1.014371  0  0  0.115844  0.140604  0  1.018315  0
H  H47  1  0.96743487  0.26385261  0.17751401  1  0  0.136025  0  0.948931  0  0  0.142973  0  1.016598  0  0  0.146368  0  1.014337  0  0  0.115821  0.140581  0  1.018285  0
H  H48  1  0.59486302  0.25427082  0.81447148  1  0  0.123575  0  0.965075  0  0  0.131891  0  1.03285  0  0  0.13409  0  1.031762  0  0  0.128728  0.130454  0  1.03363  0
H  H49  1  0.90514535  0.75427027  0.68552913  1  0  0.123545  0  0.964988  0  0  0.131803  0  1.032826  0  0  0.134001  0  1.031744  0  0  0.128699  0.130369  0  1.033607  0
H  H50  1  0.40513648  0.74572329  0.18552483  1  0  0.123551  0  0.965095  0  0  0.131832  0  1.032888  0  0  0.134029  0  1.031808  0  0  0.128722  0.130393  0  1.033673  0
H  H51  1  0.09485555  0.24572957  0.31447356  1  0  0.123539  0  0.965007  0  0  0.131824  0  1.032835  0  0  0.13402  0  1.031754  0  0  0.128705  0.130389  0  1.033618  0
H  H52  1  0.71923505  0.34268477  0.89720761  1  0  0.140154  0  0.882467  0  0  0.156521  0  0.929598  0  0  0.158865  0  0.928275  0  0  0.137032  0.15481  0  0.930703  0
H  H53  1  0.78077857  0.84268034  0.60279411  1  0  0.140166  0  0.882471  0  0  0.156509  0  0.92963  0  0  0.158855  0  0.928309  0  0  0.137027  0.154798  0  0.930736  0
H  H54  1  0.28076452  0.65731179  0.10279147  1  0  0.14013  0  0.882546  0  0  0.156494  0  0.929687  0  0  0.158839  0  0.928364  0  0  0.137025  0.154783  0  0.930792  0
H  H55  1  0.21922729  0.15731868  0.39720772  1  0  0.140147  0  0.882416  0  0  0.156521  0  0.929573  0  0  0.158866  0  0.928251  0  0  0.137029  0.154812  0  0.930681  0
C  C56  1  0.88200251  0.44465933  0.79068267  1  0  -0.182954  0  3.501446  0  0  -0.238348  0  3.743815  0  0  -0.240416  0  3.747681  0  0  -0.0586  -0.236863  0  3.741302  0
C  C57  1  0.61800284  0.94465207  0.70931893  1  0  -0.183064  0  3.50139  0  0  -0.238359  0  3.743605  0  0  -0.240434  0  3.747467  0  0  -0.058642  -0.236878  0  3.741104  0
C  C58  1  0.11799710  0.55533805  0.20931850  1  0  -0.182944  0  3.501393  0  0  -0.238369  0  3.743799  0  0  -0.240434  0  3.747656  0  0  -0.058605  -0.236891  0  3.741303  0
C  C59  1  0.38199920  0.05534941  0.29067903  1  0  -0.183003  0  3.501501  0  0  -0.238273  0  3.743687  0  0  -0.240342  0  3.747544  0  0  -0.058601  -0.236808  0  3.741208  0
C  C60  1  0.98405412  0.46986634  0.71561775  1  0  0.711992  0  3.832334  0  0  0.669161  0  4.144206  0  0  0.704564  0  4.135214  0  0  0.236008  0.644922  0  4.149301  0
C  C61  1  0.51594534  0.96985920  0.78438081  1  0  0.712049  0  3.832297  0  0  0.669245  0  4.144056  0  0  0.704645  0  4.135068  0  0  0.236047  0.645006  0  4.14915  0
C  C62  1  0.01594671  0.53013432  0.28438217  1  0  0.71204  0  3.832328  0  0  0.669188  0  4.144212  0  0  0.70459  0  4.13522  0  0  0.236018  0.644949  0  4.149307  0
C  C63  1  0.48405422  0.03013736  0.21561827  1  0  0.711961  0  3.83246  0  0  0.669165  0  4.144208  0  0  0.704568  0  4.135219  0  0  0.235956  0.644925  0  4.1493  0
C  C64  1  0.61581523  0.38781229  0.68658031  1  0  0.024086  0  3.510196  0  0  -0.033318  0  3.762836  0  0  -0.028975  0  3.77226  0  0  -0.051613  -0.036137  0  3.756317  0
C  C65  1  0.88418542  0.88781085  0.81342138  1  0  0.024043  0  3.510009  0  0  -0.033327  0  3.762684  0  0  -0.029033  0  3.772159  0  0  -0.051588  -0.036144  0  3.756169  0
C  C66  1  0.38418310  0.61218918  0.31341934  1  0  0.024127  0  3.510178  0  0  -0.033221  0  3.762749  0  0  -0.028928  0  3.772239  0  0  -0.051573  -0.036031  0  3.756229  0
C  C67  1  0.11581297  0.11219226  0.18658105  1  0  0.024098  0  3.510185  0  0  -0.033163  0  3.762695  0  0  -0.02888  0  3.7722  0  0  -0.051537  -0.035981  0  3.756172  0
C  C68  1  0.52018430  0.29342182  0.63259437  1  0  -0.340375  0  3.588048  0  0  -0.37616  0  3.838876  0  0  -0.382679  0  3.844655  0  0  -0.147733  -0.371563  0  3.834866  0
C  C69  1  0.97981354  0.79342110  0.86740776  1  0  -0.34044  0  3.588051  0  0  -0.376281  0  3.838945  0  0  -0.382793  0  3.844735  0  0  -0.147764  -0.371693  0  3.834928  0
C  C70  1  0.47981530  0.70657965  0.36740610  1  0  -0.340489  0  3.588186  0  0  -0.376262  0  3.839037  0  0  -0.382771  0  3.844833  0  0  -0.147786  -0.371676  0  3.835015  0
C  C71  1  0.02018605  0.20658037  0.13259272  1  0  -0.340412  0  3.588037  0  0  -0.376236  0  3.838901  0  0  -0.382743  0  3.844698  0  0  -0.14776  -0.371644  0  3.834883  0
C  C72  1  0.84466471  0.19539312  0.86817405  1  0  0.711585  0  3.841789  0  0  0.664194  0  4.15942  0  0  0.700757  0  4.148794  0  0  0.235649  0.638972  0  4.165854  0
C  C73  1  0.65534131  0.69538535  0.63182131  1  0  0.711311  0  3.84187  0  0  0.664038  0  4.159328  0  0  0.700606  0  4.148697  0  0  0.235488  0.638815  0  4.165765  0
C  C74  1  0.15533482  0.80460426  0.13182364  1  0  0.711534  0  3.841823  0  0  0.664236  0  4.159288  0  0  0.700804  0  4.148658  0  0  0.235625  0.639013  0  4.165722  0
C  C75  1  0.34465709  0.30461531  0.36818112  1  0  0.711284  0  3.841988  0  0  0.663995  0  4.159517  0  0  0.700559  0  4.14889  0  0  0.235456  0.638773  0  4.165952  0
C  C76  1  0.72067323  0.28769304  0.83726511  1  0  -0.174676  0  3.513675  0  0  -0.232939  0  3.756197  0  0  -0.23433  0  3.760866  0  0  -0.054046  -0.232026  0  3.753051  0
C  C77  1  0.77933321  0.78769059  0.66273577  1  0  -0.174559  0  3.513524  0  0  -0.232793  0  3.756063  0  0  -0.23419  0  3.760722  0  0  -0.053966  -0.231882  0  3.752917  0
C  C78  1  0.27932509  0.71230352  0.16273384  1  0  -0.174609  0  3.513824  0  0  -0.232873  0  3.756383  0  0  -0.234267  0  3.761047  0  0  -0.054011  -0.23196  0  3.753239  0
C  C79  1  0.22066890  0.21230924  0.33726567  1  0  -0.174452  0  3.513473  0  0  -0.232786  0  3.756146  0  0  -0.234176  0  3.760805  0  0  -0.053952  -0.231879  0  3.753002  0
S  S80  1  0.63862106  0.21066544  0.56731310  1  0  1.382856  0  5.522374  0  0  1.295179  0  6.056391  0  0  1.345511  0  6.030932  0  0  0.536526  1.259997  0  6.072688  0
S  S81  1  0.86137413  0.71066703  0.93268827  1  0  1.383205  0  5.521941  0  0  1.295533  0  6.055967  0  0  1.34587  0  6.030499  0  0  0.536653  1.26035  0  6.072279  0
S  S82  1  0.36137855  0.78933522  0.43268807  1  0  1.383004  0  5.522309  0  0  1.295326  0  6.056318  0  0  1.345663  0  6.030852  0  0  0.536567  1.260144  0  6.072624  0
S  S83  1  0.13862545  0.28933444  0.06731151  1  0  1.383165  0  5.522109  0  0  1.29546  0  6.056178  0  0  1.345795  0  6.030714  0  0  0.536626  1.260277  0  6.072483  0
N  N84  1  0.76679906  0.35126285  0.75775243  1  0  -0.056133  0  3.390498  0  0  0.022553  0  3.602504  0  0  0.011158  0  3.619922  0  0  -0.349624  0.030187  0  3.590916  0
N  N85  1  0.73320472  0.85125598  0.74224907  1  0  -0.056015  0  3.390384  0  0  0.022635  0  3.602367  0  0  0.011271  0  3.619758  0  0  -0.349567  0.030265  0  3.590779  0
N  N86  1  0.23320052  0.64873699  0.24224735  1  0  -0.056168  0  3.390522  0  0  0.022517  0  3.602522  0  0  0.01114  0  3.619937  0  0  -0.349605  0.030148  0  3.590933  0
N  N87  1  0.26679736  0.14874631  0.25775098  1  0  -0.056144  0  3.390479  0  0  0.022514  0  3.602451  0  0  0.011146  0  3.619843  0  0  -0.349606  0.030154  0  3.590866  0
O  O88  1  0.06039468  0.56325917  0.72629989  1  0  -0.695587  0  2.003387  0  0  -0.682379  0  2.281562  0  0  -0.718232  0  2.276745  0  0  -0.392352  -0.656109  0  2.283522  0
O  O89  1  0.43959377  0.06324838  0.77369496  1  0  -0.695674  0  2.003363  0  0  -0.682461  0  2.281488  0  0  -0.71831  0  2.276675  0  0  -0.392437  -0.656187  0  2.283442  0
O  O90  1  0.93960110  0.43673985  0.27369740  1  0  -0.695627  0  2.003379  0  0  -0.682402  0  2.281578  0  0  -0.718253  0  2.276765  0  0  -0.39236  -0.656121  0  2.283539  0
O  O91  1  0.56040320  0.93674900  0.22629969  1  0  -0.695567  0  2.003372  0  0  -0.682351  0  2.281523  0  0  -0.718204  0  2.276715  0  0  -0.39236  -0.656064  0  2.28348  0
O  O92  1  0.52437223  0.13098831  0.51509851  1  0  -0.634598  0  1.902437  0  0  -0.594148  0  2.142113  0  0  -0.615949  0  2.128641  0  0  -0.327185  -0.578424  0  2.150675  0
O  O93  1  0.97562533  0.63098986  0.98490129  1  0  -0.634766  0  1.902107  0  0  -0.594352  0  2.14183  0  0  -0.616154  0  2.128357  0  0  -0.327275  -0.578632  0  2.150397  0
O  O94  1  0.47562488  0.86901480  0.48490240  1  0  -0.634665  0  1.902403  0  0  -0.594239  0  2.142102  0  0  -0.61604  0  2.128627  0  0  -0.327229  -0.57852  0  2.150664  0
O  O95  1  0.02438303  0.36901571  0.01510081  1  0  -0.634771  0  1.902253  0  0  -0.594305  0  2.14194  0  0  -0.616109  0  2.12847  0  0  -0.327256  -0.578583  0  2.150503  0
O  O96  1  0.81128838  0.12489090  0.92435258  1  0  -0.568172  0  1.969337  0  0  -0.517054  0  2.181355  0  0  -0.543131  0  2.171904  0  0  -0.270412  -0.498499  0  2.187406  0
O  O97  1  0.68871763  0.62488466  0.57563970  1  0  -0.568065  0  1.969482  0  0  -0.516928  0  2.181339  0  0  -0.543042  0  2.171964  0  0  -0.27027  -0.49837  0  2.187386  0
O  O98  1  0.18871366  0.87510730  0.07564607  1  0  -0.5681  0  1.9693  0  0  -0.517034  0  2.18129  0  0  -0.543103  0  2.171823  0  0  -0.270399  -0.498484  0  2.187348  0
O  O99  1  0.31128315  0.37511518  0.42435813  1  0  -0.568032  0  1.96956  0  0  -0.516899  0  2.181461  0  0  -0.543  0  2.172062  0  0  -0.270267  -0.49834  0  2.187504  0
O  O100  1  0.70655613  0.28914531  0.50518646  1  0  -0.74457  0  2.112259  0  0  -0.724465  0  2.419457  0  0  -0.755216  0  2.407675  0  0  -0.411624  -0.701366  0  2.426249  0
O  O101  1  0.79344790  0.78914449  0.99481696  1  0  -0.744729  0  2.112411  0  0  -0.72455  0  2.419575  0  0  -0.755312  0  2.407808  0  0  -0.41164  -0.701426  0  2.42632  0
O  O102  1  0.29344472  0.71085535  0.49481415  1  0  -0.744613  0  2.112292  0  0  -0.724497  0  2.419485  0  0  -0.75526  0  2.407708  0  0  -0.411628  -0.701382  0  2.426211  0
O  O103  1  0.20655796  0.21085534  0.00518487  1  0  -0.744651  0  2.112327  0  0  -0.724505  0  2.419497  0  0  -0.755255  0  2.407716  0  0  -0.41164  -0.701412  0  2.426281  0
O  O104  1  0.98592526  0.40097412  0.65223977  1  0  -0.577267  0  1.977304  0  0  -0.532713  0  2.198322  0  0  -0.556795  0  2.187992  0  0  -0.269029  -0.515646  0  2.204816  0
O  O105  1  0.51406934  0.90097149  0.84776007  1  0  -0.577248  0  1.977346  0  0  -0.53268  0  2.198316  0  0  -0.556761  0  2.187988  0  0  -0.268969  -0.515615  0  2.204811  0
O  O106  1  0.01407685  0.59902490  0.34776166  1  0  -0.577291  0  1.977278  0  0  -0.532718  0  2.198307  0  0  -0.556799  0  2.187976  0  0  -0.269024  -0.515652  0  2.2048  0
O  O107  1  0.48592523  0.09902753  0.15223849  1  0  -0.577281  0  1.97735  0  0  -0.532732  0  2.198325  0  0  -0.556816  0  2.187996  0  0  -0.26896  -0.515665  0  2.204819  0
O  O108  1  0.01867766  0.36736897  0.47350081  1  0  -0.912046  0  1.885986  0  0  -0.890595  0  2.088202  0  0  -0.91709  0  2.055076  0  0  -0.630477  -0.870612  0  2.110922  0
O  O109  1  0.48131901  0.86737552  0.02650257  1  0  -0.911977  0  1.886014  0  0  -0.890496  0  2.088311  0  0  -0.916997  0  2.055188  0  0  -0.630401  -0.870509  0  2.111025  0
O  O110  1  0.98132197  0.63263168  0.52650105  1  0  -0.912043  0  1.885991  0  0  -0.890595  0  2.088211  0  0  -0.917092  0  2.05508  0  0  -0.630503  -0.870625  0  2.110924  0
O  O111  1  0.51868556  0.13261940  0.97349705  1  0  -0.91196  0  1.885957  0  0  -0.890538  0  2.08818  0  0  -0.917035  0  2.055059  0  0  -0.630353  -0.870564  0  2.11089  0
O  O112  1  0.60323465  0.40163342  0.19384528  1  0  -0.86572  0  1.840018  0  0  -0.838712  0  2.007345  0  0  -0.858666  0  1.975921  0  0  -0.589363  -0.823928  0  2.029405  0
O  O113  1  0.89676664  0.90163927  0.30615447  1  0  -0.865602  0  1.840222  0  0  -0.838578  0  2.007571  0  0  -0.858533  0  1.976146  0  0  -0.589313  -0.823791  0  2.029634  0
O  O114  1  0.39676000  0.59836969  0.80615676  1  0  -0.865577  0  1.840147  0  0  -0.838566  0  2.007506  0  0  -0.858522  0  1.976078  0  0  -0.589297  -0.823789  0  2.02956  0
O  O115  1  0.10323415  0.09836548  0.69384336  1  0  -0.865621  0  1.840184  0  0  -0.838617  0  2.007504  0  0  -0.858567  0  1.976079  0  0  -0.589311  -0.82384  0  2.029559  0
O  O116  1  0.81708707  0.22527537  0.32333865  1  0  -0.724231  0  1.496234  0  0  -0.737097  0  1.76746  0  0  -0.756629  0  1.753601  0  0  -0.768163  -0.725682  0  1.778307  0
O  O117  1  0.68289863  0.72527761  0.17665348  1  0  -0.724302  0  1.496158  0  0  -0.737145  0  1.767405  0  0  -0.756681  0  1.753547  0  0  -0.768187  -0.725721  0  1.778262  0
O  O118  1  0.18291367  0.77472611  0.67665710  1  0  -0.724187  0  1.496277  0  0  -0.737043  0  1.767505  0  0  -0.756584  0  1.753643  0  0  -0.768167  -0.725643  0  1.778346  0
O  O119  1  0.31710350  0.27472059  0.82334865  1  0  -0.724208  0  1.496254  0  0  -0.73712  0  1.767519  0  0  -0.756649  0  1.753658  0  0  -0.768153  -0.725715  0  1.778356  0
O  O120  1  0.69967634  0.49164973  0.39800046  1  0  -0.687535  0  1.578913  0  0  -0.697757  0  1.871012  0  0  -0.718043  0  1.85843  0  0  -0.755847  -0.685926  0  1.880933  0
O  O121  1  0.80033164  0.99165275  0.10200820  1  0  -0.687629  0  1.578921  0  0  -0.697816  0  1.871019  0  0  -0.718107  0  1.858443  0  0  -0.755905  -0.685975  0  1.880945  0
O  O122  1  0.30032204  0.50834765  0.60200127  1  0  -0.687647  0  1.578854  0  0  -0.697864  0  1.870923  0  0  -0.718159  0  1.858338  0  0  -0.755867  -0.686045  0  1.880834  0
O  O123  1  0.19967042  0.00834545  0.89799115  1  0  -0.687551  0  1.578912  0  0  -0.697801  0  1.871002  0  0  -0.718093  0  1.858429  0  0  -0.755903  -0.685978  0  1.880909  0
O  O124  1  0.97608271  0.19831727  0.83211091  1  0  -0.688979  0  2.101727  0  0  -0.676443  0  2.392417  0  0  -0.711593  0  2.387018  0  0  -0.387295  -0.650474  0  2.394744  0
O  O125  1  0.52392216  0.69830873  0.66788645  1  0  -0.688845  0  2.101656  0  0  -0.676388  0  2.392328  0  0  -0.711541  0  2.386926  0  0  -0.387242  -0.650417  0  2.394653  0
O  O126  1  0.02391812  0.80168011  0.16788900  1  0  -0.688969  0  2.101729  0  0  -0.676445  0  2.392381  0  0  -0.711601  0  2.386988  0  0  -0.387274  -0.650461  0  2.394709  0
O  O127  1  0.47607871  0.30168947  0.33211485  1  0  -0.688879  0  2.101717  0  0  -0.676412  0  2.392405  0  0  -0.711565  0  2.38701  0  0  -0.387232  -0.650428  0  2.394728  0
O  O128  1  0.77730925  0.16382651  0.63784093  1  0  -0.684443  0  1.972817  0  0  -0.624856  0  2.207448  0  0  -0.647991  0  2.191966  0  0  -0.329888  -0.608274  0  2.217733  0
O  O129  1  0.72268516  0.66382111  0.86216038  1  0  -0.684493  0  1.972753  0  0  -0.624903  0  2.207382  0  0  -0.648038  0  2.191895  0  0  -0.329896  -0.608323  0  2.217667  0
O  O130  1  0.22268915  0.83617497  0.36216150  1  0  -0.684452  0  1.972741  0  0  -0.62486  0  2.207367  0  0  -0.647994  0  2.191882  0  0  -0.329877  -0.608282  0  2.217652  0
O  O131  1  0.27731694  0.33617545  0.13784036  1  0  -0.684516  0  1.972811  0  0  -0.624921  0  2.207441  0  0  -0.648058  0  2.191956  0  0  -0.329891  -0.608337  0  2.217724  0
