# generated using pymatgen
data_CuH7C9NCl
_symmetry_space_group_name_H-M   'P 1'
_cell_length_a   3.73589253
_cell_length_b   13.89826481
_cell_length_c   15.33754760
_cell_angle_alpha   89.99878795
_cell_angle_beta   89.99938570
_cell_angle_gamma   90.00090330
_symmetry_Int_Tables_number   1
_chemical_formula_structural   CuH7C9NCl
_chemical_formula_sum   'Cu4 H28 C36 N4 Cl4'
_cell_volume   796.36264358
_cell_formula_units_Z   4
loop_
 _symmetry_equiv_pos_site_id
 _symmetry_equiv_pos_as_xyz
  1  'x, y, z'
loop_
 _atom_site_type_symbol
 _atom_site_label
 _atom_site_symmetry_multiplicity
 _atom_site_fract_x
 _atom_site_fract_y
 _atom_site_fract_z
 _atom_site_occupancy
 _atom_site_hle17_bader_spin_density
 _atom_site_hle17_ddec_charge
 _atom_site_hle17_ddec_spin_density
 _atom_site_hle17_ddec_sum_bond_order
 _atom_site_hle17_magmom
 _atom_site_hse06_10hf_bader_spin_density
 _atom_site_hse06_10hf_ddec_charge
 _atom_site_hse06_10hf_ddec_spin_density
 _atom_site_hse06_10hf_ddec_sum_bond_order
 _atom_site_hse06_10hf_magmom
 _atom_site_hse06_bader_spin_density
 _atom_site_hse06_ddec_charge
 _atom_site_hse06_ddec_spin_density
 _atom_site_hse06_ddec_sum_bond_order
 _atom_site_hse06_magmom
 _atom_site_pbe_bader_spin_density
 _atom_site_pbe_cm5_charge
 _atom_site_pbe_ddec_charge
 _atom_site_pbe_ddec_spin_density
 _atom_site_pbe_ddec_sum_bond_order
 _atom_site_pbe_magmom
Cu  Cu0  1  0.83199008  0.07649083  0.23360412  1  0  0.396484  0  1.963888  0  0  0.30418  0  2.455444  0  0  0.31118  0  2.400495  0  0  0.343701  0.302445  0  2.491064  0
Cu  Cu1  1  0.33195595  0.92351152  0.26638806  1  0  0.396448  0  1.963797  0  0  0.304154  0  2.455377  0  0  0.311164  0  2.400448  0  0  0.343631  0.302415  0  2.490896  0
Cu  Cu2  1  0.16801921  0.42352882  0.73359937  1  0  0.396396  0  1.963844  0  0  0.3041  0  2.455425  0  0  0.311098  0  2.40046  0  0  0.343619  0.302361  0  2.491068  0
Cu  Cu3  1  0.66800450  0.57649478  0.76638421  1  0  0.39636  0  1.964089  0  0  0.304057  0  2.455658  0  0  0.311071  0  2.40069  0  0  0.343693  0.302318  0  2.491224  0
H  H4  1  0.14110088  0.04008732  0.06493031  1  0  0.071688  0  0.967436  0  0  0.079194  0  1.039001  0  0  0.082282  0  1.035142  0  0  0.102726  0.0766  0  1.042285  0
H  H5  1  0.64105151  0.95992130  0.43506948  1  0  0.071606  0  0.967471  0  0  0.079136  0  1.038997  0  0  0.082222  0  1.035138  0  0  0.102654  0.076548  0  1.042268  0
H  H6  1  0.85884182  0.45990968  0.56494742  1  0  0.071647  0  0.96738  0  0  0.079124  0  1.038992  0  0  0.082209  0  1.035135  0  0  0.102708  0.076535  0  1.042277  0
H  H7  1  0.35887649  0.54006304  0.93504616  1  0  0.071674  0  0.967205  0  0  0.079097  0  1.038882  0  0  0.082182  0  1.035027  0  0  0.10263  0.076507  0  1.042161  0
H  H8  1  0.32141881  0.13307477  0.93229344  1  0  0.095131  0  0.954634  0  0  0.110003  0  1.009202  0  0  0.112646  0  1.009444  0  0  0.102856  0.108151  0  1.00914  0
H  H9  1  0.82130001  0.86693735  0.56771261  1  0  0.095087  0  0.954642  0  0  0.110055  0  1.009058  0  0  0.112669  0  1.009393  0  0  0.102838  0.108196  0  1.008989  0
H  H10  1  0.67864755  0.36693301  0.43230214  1  0  0.09508  0  0.954717  0  0  0.110095  0  1.009084  0  0  0.112736  0  1.00937  0  0  0.102863  0.108238  0  1.009015  0
H  H11  1  0.17856321  0.63302830  0.06768843  1  0  0.094962  0  0.954856  0  0  0.110027  0  1.009199  0  0  0.112651  0  1.009505  0  0  0.102733  0.108167  0  1.009132  0
H  H12  1  0.18993677  0.31052977  0.92584172  1  0  0.105164  0  0.967633  0  0  0.114507  0  1.032058  0  0  0.117346  0  1.029819  0  0  0.093421  0.112119  0  1.034039  0
H  H13  1  0.68988370  0.68947595  0.57415485  1  0  0.105191  0  0.967476  0  0  0.114516  0  1.031924  0  0  0.117357  0  1.029676  0  0  0.093382  0.112126  0  1.033896  0
H  H14  1  0.81007638  0.18947528  0.42584958  1  0  0.105257  0  0.967401  0  0  0.114586  0  1.03185  0  0  0.11743  0  1.029599  0  0  0.093436  0.112192  0  1.03383  0
H  H15  1  0.30999794  0.81048379  0.07416091  1  0  0.105334  0  0.967231  0  0  0.114655  0  1.031668  0  0  0.117504  0  1.029413  0  0  0.093396  0.112258  0  1.033645  0
H  H16  1  0.91551886  0.45377518  0.99794036  1  0  0.094852  0  0.967273  0  0  0.106215  0  1.030424  0  0  0.108406  0  1.03015  0  0  0.096582  0.10445  0  1.030843  0
H  H17  1  0.41548161  0.54622588  0.50205765  1  0  0.094819  0  0.967093  0  0  0.106176  0  1.03027  0  0  0.108367  0  1.029999  0  0  0.09655  0.104413  0  1.030691  0
H  H18  1  0.08449874  0.04621378  0.49796369  1  0  0.094824  0  0.967137  0  0  0.106105  0  1.030412  0  0  0.108286  0  1.030154  0  0  0.096572  0.104342  0  1.030826  0
H  H19  1  0.58433937  0.95376938  0.00204535  1  0  0.094944  0  0.967026  0  0  0.106274  0  1.030204  0  0  0.10846  0  1.029929  0  0  0.096605  0.104513  0  1.030623  0
H  H20  1  0.62697132  0.52726799  0.12814383  1  0  0.077395  0  0.969987  0  0  0.088446  0  1.03433  0  0  0.091017  0  1.033527  0  0  0.095691  0.086549  0  1.035099  0
H  H21  1  0.12685317  0.47273912  0.37185664  1  0  0.077574  0  0.969845  0  0  0.088494  0  1.034319  0  0  0.091079  0  1.033499  0  0  0.09564  0.086604  0  1.035095  0
H  H22  1  0.37326365  0.97275236  0.62815855  1  0  0.077413  0  0.970137  0  0  0.088491  0  1.034433  0  0  0.091054  0  1.033635  0  0  0.095651  0.086592  0  1.035201  0
H  H23  1  0.87295922  0.02726793  0.87184804  1  0  0.077241  0  0.969991  0  0  0.088279  0  1.03435  0  0  0.090869  0  1.033528  0  0  0.095624  0.086385  0  1.035127  0
H  H24  1  0.49659780  0.42692124  0.25869840  1  0  0.077806  0  0.976785  0  0  0.090648  0  1.037919  0  0  0.092705  0  1.037588  0  0  0.095426  0.089168  0  1.038198  0
H  H25  1  0.99657345  0.57308767  0.24130057  1  0  0.077939  0  0.976964  0  0  0.090767  0  1.038099  0  0  0.092825  0  1.037767  0  0  0.095493  0.089284  0  1.038378  0
H  H26  1  0.50354409  0.07309998  0.75870542  1  0  0.078063  0  0.976918  0  0  0.09087  0  1.038065  0  0  0.092927  0  1.037735  0  0  0.095499  0.089386  0  1.038349  0
H  H27  1  0.00335880  0.92692282  0.74129940  1  0  0.077893  0  0.976905  0  0  0.09073  0  1.03803  0  0  0.092789  0  1.037693  0  0  0.095481  0.089248  0  1.038309  0
H  H28  1  0.63271618  0.25107877  0.25757588  1  0  0.103323  0  0.974687  0  0  0.111288  0  1.042505  0  0  0.115775  0  1.038722  0  0  0.091615  0.107867  0  1.045399  0
H  H29  1  0.13266646  0.74893125  0.24242523  1  0  0.103382  0  0.974728  0  0  0.111348  0  1.042553  0  0  0.115843  0  1.038766  0  0  0.091623  0.107923  0  1.045444  0
H  H30  1  0.36729460  0.24893528  0.75758574  1  0  0.103403  0  0.974597  0  0  0.11139  0  1.042393  0  0  0.115882  0  1.038617  0  0  0.091648  0.107971  0  1.04529  0
H  H31  1  0.86723361  0.75107778  0.74242086  1  0  0.10327  0  0.974786  0  0  0.111273  0  1.042549  0  0  0.115761  0  1.038759  0  0  0.091656  0.107845  0  1.045447  0
C  C32  1  0.09026635  0.11725299  0.06052606  1  0  0.135686  0  3.695931  0  0  0.098794  0  3.957392  0  0  0.109795  0  3.969854  0  0  0.040089  0.09132  0  3.949724  0
C  C33  1  0.59022895  0.88275538  0.43946863  1  0  0.135739  0  3.695944  0  0  0.098879  0  3.957384  0  0  0.109887  0  3.969847  0  0  0.040199  0.091405  0  3.949671  0
C  C34  1  0.90974350  0.38275562  0.56053605  1  0  0.135824  0  3.695894  0  0  0.098976  0  3.957393  0  0  0.10998  0  3.969866  0  0  0.040134  0.091502  0  3.949728  0
C  C35  1  0.40977378  0.61723246  0.93946394  1  0  0.135532  0  3.695792  0  0  0.098688  0  3.957286  0  0  0.109695  0  3.969754  0  0  0.040151  0.091213  0  3.949589  0
C  C36  1  0.18743437  0.16995611  0.98582983  1  0  -0.135451  0  3.766473  0  0  -0.146684  0  4.020774  0  0  -0.155681  0  4.041571  0  0  -0.095407  -0.141011  0  4.007237  0
C  C37  1  0.68736187  0.83005319  0.51416740  1  0  -0.135395  0  3.766411  0  0  -0.146704  0  4.020686  0  0  -0.155713  0  4.041458  0  0  -0.095396  -0.141015  0  4.007105  0
C  C38  1  0.81261864  0.33005472  0.48584088  1  0  -0.135577  0  3.76671  0  0  -0.146922  0  4.020994  0  0  -0.155943  0  4.0418  0  0  -0.095542  -0.141238  0  4.007443  0
C  C39  1  0.31260572  0.66992307  0.01416829  1  0  -0.13518  0  3.766671  0  0  -0.146578  0  4.020872  0  0  -0.155585  0  4.041654  0  0  -0.095276  -0.140894  0  4.007302  0
C  C40  1  0.11631332  0.26720553  0.98229583  1  0  -0.036448  0  3.680951  0  0  -0.063557  0  3.928675  0  0  -0.056661  0  3.943799  0  0  -0.068805  -0.068377  0  3.91908  0
C  C41  1  0.61627593  0.73279839  0.51769961  1  0  -0.036437  0  3.680831  0  0  -0.063544  0  3.928531  0  0  -0.056633  0  3.943635  0  0  -0.068758  -0.068362  0  3.918906  0
C  C42  1  0.88373451  0.23280035  0.48230205  1  0  -0.036368  0  3.680765  0  0  -0.063531  0  3.928491  0  0  -0.056629  0  3.943616  0  0  -0.068733  -0.06834  0  3.918883  0
C  C43  1  0.38369149  0.76717275  0.01770305  1  0  -0.036602  0  3.681186  0  0  -0.06373  0  3.92884  0  0  -0.056824  0  3.943942  0  0  -0.068762  -0.068538  0  3.919222  0
C  C44  1  0.94684579  0.31161178  0.05437818  1  0  0.017712  0  3.775729  0  0  0.039461  0  3.996791  0  0  0.034652  0  4.021998  0  0  -0.003512  0.042381  0  3.980071  0
C  C45  1  0.44681777  0.68840336  0.44561504  1  0  0.017597  0  3.775975  0  0  0.039404  0  3.996899  0  0  0.034591  0  4.022107  0  0  -0.003486  0.042325  0  3.980171  0
C  C46  1  0.05324198  0.18840417  0.55438795  1  0  0.017281  0  3.775861  0  0  0.039253  0  3.996646  0  0  0.034441  0  4.021852  0  0  -0.003433  0.042172  0  3.979937  0
C  C47  1  0.55314986  0.81158577  0.94562197  1  0  0.017695  0  3.776499  0  0  0.039575  0  3.997244  0  0  0.034763  0  4.022441  0  0  -0.003368  0.042494  0  3.980521  0
C  C48  1  0.85949027  0.41094913  0.05587041  1  0  -0.095297  0  3.729418  0  0  -0.116968  0  3.977216  0  0  -0.118651  0  4.000253  0  0  -0.08655  -0.115602  0  3.961711  0
C  C49  1  0.35945735  0.58905335  0.44411845  1  0  -0.095161  0  3.729167  0  0  -0.116859  0  3.976925  0  0  -0.118542  0  3.999965  0  0  -0.08643  -0.115488  0  3.961417  0
C  C50  1  0.14058672  0.08905384  0.55589099  1  0  -0.094915  0  3.728835  0  0  -0.116611  0  3.9766  0  0  -0.118286  0  3.99964  0  0  -0.086381  -0.115245  0  3.961094  0
C  C51  1  0.64045147  0.91093366  0.94412004  1  0  -0.095414  0  3.729302  0  0  -0.117135  0  3.977136  0  0  -0.118823  0  4.000219  0  0  -0.086636  -0.115758  0  3.961599  0
C  C52  1  0.69935373  0.45122630  0.12810405  1  0  -0.085305  0  3.799695  0  0  -0.099481  0  4.054942  0  0  -0.103313  0  4.077677  0  0  -0.096502  -0.097031  0  4.039588  0
C  C53  1  0.19930898  0.54877684  0.37189299  1  0  -0.085593  0  3.799997  0  0  -0.099645  0  4.055199  0  0  -0.103489  0  4.077935  0  0  -0.096561  -0.097211  0  4.039877  0
C  C54  1  0.30079196  0.04878144  0.62811656  1  0  -0.085715  0  3.79992  0  0  -0.099888  0  4.055162  0  0  -0.103708  0  4.077885  0  0  -0.096785  -0.097437  0  4.039815  0
C  C55  1  0.80062215  0.95121546  0.87189280  1  0  -0.085066  0  3.799524  0  0  -0.099194  0  4.054718  0  0  -0.103045  0  4.077447  0  0  -0.09642  -0.096756  0  4.039388  0
C  C56  1  0.62240767  0.39405048  0.20199003  1  0  -0.04946  0  3.776677  0  0  -0.063654  0  4.02325  0  0  -0.064011  0  4.045392  0  0  -0.089157  -0.063116  0  4.008135  0
C  C57  1  0.12235874  0.60595805  0.29799937  1  0  -0.049427  0  3.776976  0  0  -0.063587  0  4.023438  0  0  -0.06394  0  4.045573  0  0  -0.089119  -0.063044  0  4.008314  0
C  C58  1  0.37772900  0.10596488  0.70200062  1  0  -0.049504  0  3.776921  0  0  -0.063688  0  4.023454  0  0  -0.064048  0  4.045603  0  0  -0.089054  -0.063142  0  4.008331  0
C  C59  1  0.87761352  0.89404248  0.79800465  1  0  -0.049503  0  3.776719  0  0  -0.063707  0  4.023277  0  0  -0.064063  0  4.045418  0  0  -0.089188  -0.063172  0  4.008162  0
C  C60  1  0.69869223  0.29700690  0.20212191  1  0  -0.139375  0  3.713793  0  0  -0.156866  0  3.959673  0  0  -0.161344  0  3.979088  0  0  -0.091219  -0.154299  0  3.947239  0
C  C61  1  0.19863479  0.70299049  0.29787383  1  0  -0.139559  0  3.713776  0  0  -0.157082  0  3.959625  0  0  -0.161565  0  3.979032  0  0  -0.091289  -0.154499  0  3.947176  0
C  C62  1  0.30141499  0.20299623  0.70213084  1  0  -0.139627  0  3.713677  0  0  -0.157118  0  3.95953  0  0  -0.161607  0  3.978949  0  0  -0.091252  -0.154545  0  3.947103  0
C  C63  1  0.80133749  0.79700356  0.79788374  1  0  -0.139393  0  3.713985  0  0  -0.156925  0  3.959831  0  0  -0.161397  0  3.979234  0  0  -0.091237  -0.154351  0  3.947375  0
C  C64  1  0.86077472  0.25366102  0.12863060  1  0  0.195303  0  3.740284  0  0  0.195034  0  3.968286  0  0  0.200471  0  3.991534  0  0  0.105564  0.191531  0  3.952938  0
C  C65  1  0.36074525  0.74634003  0.37137651  1  0  0.195374  0  3.740307  0  0  0.195151  0  3.968248  0  0  0.200599  0  3.991486  0  0  0.105456  0.191633  0  3.952904  0
C  C66  1  0.13930402  0.24634312  0.62862473  1  0  0.195732  0  3.74028  0  0  0.19538  0  3.968284  0  0  0.200831  0  3.99152  0  0  0.105487  0.191868  0  3.952955  0
C  C67  1  0.63925550  0.75365229  0.87137718  1  0  0.195267  0  3.740897  0  0  0.195026  0  3.968756  0  0  0.200466  0  3.992002  0  0  0.105391  0.191512  0  3.953403  0
N  N68  1  0.93205374  0.15631737  0.13002150  1  0  -0.32425  0  3.346175  0  0  -0.254492  0  3.641868  0  0  -0.267114  0  3.648276  0  0  -0.360973  -0.247179  0  3.637744  0
N  N69  1  0.43202921  0.84369051  0.36997045  1  0  -0.32419  0  3.345802  0  0  -0.254562  0  3.641614  0  0  -0.267195  0  3.64802  0  0  -0.360959  -0.247242  0  3.637422  0
N  N70  1  0.06798211  0.34368745  0.63002828  1  0  -0.324269  0  3.345928  0  0  -0.254566  0  3.641669  0  0  -0.267199  0  3.648069  0  0  -0.360893  -0.247257  0  3.637572  0
N  N71  1  0.56798767  0.65630904  0.86996988  1  0  -0.324114  0  3.346155  0  0  -0.25439  0  3.641813  0  0  -0.267016  0  3.64822  0  0  -0.360944  -0.247071  0  3.637643  0
Cl  Cl72  1  0.35145497  0.08804901  0.32653271  1  0  -0.504993  0  1.485568  0  0  -0.436114  0  1.886122  0  0  -0.449516  0  1.843758  0  0  -0.275558  -0.426029  0  1.914223  0
Cl  Cl73  1  0.85142152  0.91194984  0.17345942  1  0  -0.504993  0  1.485505  0  0  -0.43608  0  1.88602  0  0  -0.449539  0  1.843788  0  0  -0.275502  -0.425979  0  1.914049  0
Cl  Cl74  1  0.64853901  0.41196054  0.82652839  1  0  -0.504981  0  1.485611  0  0  -0.4361  0  1.886172  0  0  -0.449512  0  1.843828  0  0  -0.275539  -0.426  0  1.914276  0
Cl  Cl75  1  0.14854621  0.58806728  0.67346110  1  0  -0.504828  0  1.485545  0  0  -0.435941  0  1.886083  0  0  -0.449376  0  1.843785  0  0  -0.275496  -0.425844  0  1.914156  0
