# generated using pymatgen
data_MgH30(C7O)2
_symmetry_space_group_name_H-M   'P 1'
_cell_length_a   9.26834855
_cell_length_b   9.59019360
_cell_length_c   10.69142938
_cell_angle_alpha   98.05565502
_cell_angle_beta   90.03147557
_cell_angle_gamma   118.88321961
_symmetry_Int_Tables_number   1
_chemical_formula_structural   MgH30(C7O)2
_chemical_formula_sum   'Mg2 H60 C28 O4'
_cell_volume   821.33075454
_cell_formula_units_Z   2
loop_
 _symmetry_equiv_pos_site_id
 _symmetry_equiv_pos_as_xyz
  1  'x, y, z'
loop_
 _atom_site_type_symbol
 _atom_site_label
 _atom_site_symmetry_multiplicity
 _atom_site_fract_x
 _atom_site_fract_y
 _atom_site_fract_z
 _atom_site_occupancy
 _atom_site_pbe_bader_spin_density
 _atom_site_pbe_cm5_charge
 _atom_site_pbe_ddec_charge
 _atom_site_pbe_ddec_spin_density
 _atom_site_pbe_ddec_sum_bond_order
 _atom_site_pbe_magmom
Mg  Mg0  1  0.25911981  0.99978197  0.74995031  1  0  0.58171  0.96207  0  1.724712  0
Mg  Mg1  1  0.74087676  0.00021775  0.25004979  1  0  0.58171  0.961939  0  1.724912  0
H  H2  1  0.47924354  0.23809922  0.98178180  1  0  0.12175  0.105797  0  0.990938  0
H  H3  1  0.24106878  0.76195456  0.51788742  1  0  0.122054  0.106049  0  0.990073  0
H  H4  1  0.52076213  0.76189928  0.01821629  1  0  0.121741  0.105865  0  0.990895  0
H  H5  1  0.75892839  0.23804637  0.48211284  1  0  0.122076  0.106085  0  0.990086  0
H  H6  1  0.65977021  0.21574528  0.96311107  1  0  0.108812  0.078873  0  0.993224  0
H  H7  1  0.44385435  0.78420499  0.53683865  1  0  0.108956  0.079254  0  0.992605  0
H  H8  1  0.34023451  0.78425563  0.03688638  1  0  0.108848  0.078981  0  0.993158  0
H  H9  1  0.55614390  0.21579594  0.46316254  1  0  0.108934  0.079238  0  0.992601  0
H  H10  1  0.40690789  0.79726387  0.81327673  1  0  0.12104  0.097523  0  1.00459  0
H  H11  1  0.60940231  0.20256763  0.68684727  1  0  0.12122  0.098326  0  1.004793  0
H  H12  1  0.59309622  0.20273584  0.18672244  1  0  0.121044  0.097542  0  1.004553  0
H  H13  1  0.39059641  0.79743209  0.31315284  1  0  0.121221  0.09832  0  1.004786  0
H  H14  1  0.61655251  0.95035249  0.86200845  1  0  0.10833  0.079581  0  0.978936  0
H  H15  1  0.66597964  0.04945250  0.63828783  1  0  0.108489  0.079626  0  0.978541  0
H  H16  1  0.38345160  0.04964722  0.13798979  1  0  0.108328  0.079607  0  0.97891  0
H  H17  1  0.33401861  0.95054842  0.36171243  1  0  0.108485  0.079624  0  0.978553  0
H  H18  1  0.99637369  0.73937905  0.61879821  1  0  0.049477  0.101418  0  1.125748  0
H  H19  1  0.25686028  0.26030831  0.88122982  1  0  0.04958  0.101733  0  1.124887  0
H  H20  1  0.00361697  0.26061101  0.38119978  1  0  0.049498  0.101407  0  1.125769  0
H  H21  1  0.74314194  0.73969624  0.11877181  1  0  0.049571  0.101738  0  1.124994  0
H  H22  1  0.11271509  0.67251168  0.69601520  1  0  0.048395  0.097144  0  1.137748  0
H  H23  1  0.43993787  0.32686518  0.80400117  1  0  0.04818  0.097171  0  1.138048  0
H  H24  1  0.88728134  0.32748561  0.30398181  1  0  0.04839  0.097153  0  1.137726  0
H  H25  1  0.56006336  0.67313092  0.19599849  1  0  0.048192  0.097185  0  1.138003  0
H  H26  1  0.74149664  0.74589564  0.89026282  1  0  0.076362  0.100651  0  1.036681  0
H  H27  1  0.99564949  0.25418616  0.60937740  1  0  0.075997  0.100336  0  1.037159  0
H  H28  1  0.25850330  0.25410650  0.10973852  1  0  0.076356  0.100675  0  1.036668  0
H  H29  1  0.00435610  0.74582081  0.39062453  1  0  0.076005  0.100334  0  1.037183  0
H  H30  1  0.92527963  0.91952600  0.86095578  1  0  0.081845  0.10292  0  1.033221  0
H  H31  1  0.00566236  0.08042831  0.63869056  1  0  0.082164  0.1036  0  1.032609  0
H  H32  1  0.07472403  0.08047494  0.13904728  1  0  0.081854  0.102946  0  1.033229  0
H  H33  1  0.99434262  0.91957745  0.36131122  1  0  0.082159  0.103582  0  1.032671  0
H  H34  1  0.78076806  0.78727170  0.73240187  1  0  0.078711  0.108119  0  1.025923  0
H  H35  1  0.99327545  0.21255279  0.76722135  1  0  0.078776  0.108454  0  1.025868  0
H  H36  1  0.21923464  0.21273166  0.26760056  1  0  0.078717  0.108131  0  1.025909  0
H  H37  1  0.00673122  0.78745418  0.23278151  1  0  0.078765  0.108427  0  1.025924  0
H  H38  1  0.70700698  0.46601998  0.83192721  1  0  0.074111  0.096497  0  1.043498  0
H  H39  1  0.24122509  0.53396441  0.66810292  1  0  0.073956  0.096336  0  1.043765  0
H  H40  1  0.29298577  0.53397856  0.16807743  1  0  0.074138  0.096542  0  1.043404  0
H  H41  1  0.75877795  0.46603531  0.33189813  1  0  0.07396  0.096331  0  1.043736  0
H  H42  1  0.73861982  0.49836440  0.67179768  1  0  0.077987  0.105214  0  1.027057  0
H  H43  1  0.24045537  0.50153684  0.82822870  1  0  0.077793  0.105465  0  1.026784  0
H  H44  1  0.26137064  0.50163173  0.32820573  1  0  0.077989  0.10519  0  1.027062  0
H  H45  1  0.75954827  0.49846407  0.17176968  1  0  0.077802  0.10548  0  1.026794  0
H  H46  1  0.86529966  0.44169018  0.75280987  1  0  0.079079  0.109674  0  1.015969  0
H  H47  1  0.42371318  0.55794557  0.74730549  1  0  0.079344  0.110269  0  1.015712  0
H  H48  1  0.13469174  0.55830353  0.24719324  1  0  0.07911  0.109655  0  1.016019  0
H  H49  1  0.57629011  0.44205897  0.25269521  1  0  0.079272  0.110138  0  1.015746  0
H  H50  1  0.07750463  0.63658512  0.92856447  1  0  0.078991  0.107558  0  1.025225  0
H  H51  1  0.44084306  0.36338876  0.57164656  1  0  0.079131  0.107946  0  1.024484  0
H  H52  1  0.92249277  0.36340977  0.07143505  1  0  0.078987  0.107553  0  1.025233  0
H  H53  1  0.55916070  0.63661455  0.42835024  1  0  0.079143  0.107963  0  1.024505  0
H  H54  1  0.09907718  0.83199756  0.97602787  1  0  0.077278  0.092007  0  1.04669  0
H  H55  1  0.26713009  0.16799367  0.52394523  1  0  0.07757  0.092682  0  1.04659  0
H  H56  1  0.90092190  0.16799855  0.02397367  1  0  0.077248  0.091978  0  1.046762  0
H  H57  1  0.73287212  0.83201085  0.47605173  1  0  0.077609  0.092692  0  1.046613  0
H  H58  1  0.91812621  0.65770056  0.00672143  1  0  0.078773  0.107914  0  1.035818  0
H  H59  1  0.26039322  0.34234046  0.49335958  1  0  0.078522  0.107805  0  1.035506  0
H  H60  1  0.08187071  0.34229554  0.99327824  1  0  0.078804  0.107955  0  1.035834  0
H  H61  1  0.73960684  0.65766408  0.50664018  1  0  0.078532  0.107828  0  1.035452  0
C  C62  1  0.52944726  0.15598058  0.98545478  1  0  -0.064147  -0.01872  0  3.874744  0
C  C63  1  0.37338764  0.84406507  0.51437373  1  0  -0.064079  -0.018281  0  3.874091  0
C  C64  1  0.47055638  0.84402034  0.01454360  1  0  -0.064251  -0.019052  0  3.874812  0
C  C65  1  0.62661061  0.15593586  0.48562652  1  0  -0.064063  -0.018321  0  3.874176  0
C  C66  1  0.48714684  0.89831552  0.88680716  1  0  -0.065088  -0.01564  0  3.876188  0
C  C67  1  0.58867441  0.10155247  0.61332515  1  0  -0.065588  -0.017679  0  3.877374  0
C  C68  1  0.51285679  0.10168538  0.11318936  1  0  -0.065116  -0.01575  0  3.876091  0
C  C69  1  0.41132336  0.89844966  0.38667525  1  0  -0.065547  -0.017646  0  3.877284  0
C  C70  1  0.06059433  0.75549267  0.71163074  1  0  -0.395284  -0.826228  0  3.805545  0
C  C71  1  0.30480120  0.24404452  0.78840277  1  0  -0.395323  -0.826831  0  3.805163  0
C  C72  1  0.93939585  0.24449859  0.28836646  1  0  -0.395292  -0.826178  0  3.805473  0
C  C73  1  0.69520244  0.75595641  0.21159749  1  0  -0.395311  -0.826828  0  3.805245  0
C  C74  1  0.92921083  0.69285987  0.80788775  1  0  -0.03126  0.368762  0  3.809116  0
C  C75  1  0.23620769  0.30692807  0.69211204  1  0  -0.031806  0.368708  0  3.810113  0
C  C76  1  0.07078380  0.30713382  0.19211256  1  0  -0.031274  0.368869  0  3.808901  0
C  C77  1  0.76379379  0.69307285  0.30788728  1  0  -0.031784  0.368743  0  3.810057  0
C  C78  1  0.83867182  0.79198183  0.82393780  1  0  -0.246981  -0.410446  0  3.90021  0
C  C79  1  0.04658088  0.20796073  0.67577482  1  0  -0.246792  -0.411004  0  3.900799  0
C  C80  1  0.16132967  0.20801910  0.17606339  1  0  -0.246975  -0.410538  0  3.900241  0
C  C81  1  0.95342241  0.79204381  0.32422588  1  0  -0.246791  -0.41097  0  3.900889  0
C  C82  1  0.80195111  0.51412775  0.76405700  1  0  -0.251039  -0.405689  0  3.885203  0
C  C83  1  0.28793878  0.48570856  0.73600463  1  0  -0.250611  -0.406164  0  3.885779  0
C  C84  1  0.19803982  0.48586717  0.23594626  1  0  -0.25112  -0.405732  0  3.885167  0
C  C85  1  0.71206690  0.51428994  0.26399440  1  0  -0.250539  -0.405992  0  3.885603  0
C  C86  1  0.01051782  0.70558164  0.93728006  1  0  -0.24736  -0.408971  0  3.89734  0
C  C87  1  0.30484699  0.29434787  0.56279969  1  0  -0.247421  -0.409877  0  3.896963  0
C  C88  1  0.98947957  0.29441325  0.06271946  1  0  -0.247364  -0.409025  0  3.897346  0
C  C89  1  0.69515570  0.70565545  0.43719805  1  0  -0.247523  -0.409974  0  3.89709  0
O  O90  1  0.43481412  0.01814887  0.88826240  1  0  -0.25066  -0.255004  0  2.593123  0
O  O91  1  0.41648659  0.98179602  0.61159396  1  0  -0.250896  -0.254843  0  2.592295  0
O  O92  1  0.56519335  0.98185325  0.11173613  1  0  -0.250637  -0.254957  0  2.593139  0
O  O93  1  0.58351119  0.01820612  0.38840738  1  0  -0.250946  -0.254835  0  2.592278  0
