# generated using pymatgen
data_ZnH12C18(N3O2)2
_symmetry_space_group_name_H-M   'P 1'
_cell_length_a   8.71326187
_cell_length_b   10.24002072
_cell_length_c   12.31450629
_cell_angle_alpha   74.88057114
_cell_angle_beta   82.00664134
_cell_angle_gamma   79.60619403
_symmetry_Int_Tables_number   1
_chemical_formula_structural   ZnH12C18(N3O2)2
_chemical_formula_sum   'Zn2 H24 C36 N12 O8'
_cell_volume   1038.40131126
_cell_formula_units_Z   2
loop_
 _symmetry_equiv_pos_site_id
 _symmetry_equiv_pos_as_xyz
  1  'x, y, z'
loop_
 _atom_site_type_symbol
 _atom_site_label
 _atom_site_symmetry_multiplicity
 _atom_site_fract_x
 _atom_site_fract_y
 _atom_site_fract_z
 _atom_site_occupancy
 _atom_site_hle17_bader_spin_density
 _atom_site_hle17_ddec_charge
 _atom_site_hle17_ddec_spin_density
 _atom_site_hle17_ddec_sum_bond_order
 _atom_site_hle17_magmom
 _atom_site_hse06_10hf_bader_spin_density
 _atom_site_hse06_10hf_ddec_charge
 _atom_site_hse06_10hf_ddec_spin_density
 _atom_site_hse06_10hf_ddec_sum_bond_order
 _atom_site_hse06_10hf_magmom
 _atom_site_hse06_bader_spin_density
 _atom_site_hse06_ddec_charge
 _atom_site_hse06_ddec_spin_density
 _atom_site_hse06_ddec_sum_bond_order
 _atom_site_hse06_magmom
 _atom_site_pbe_bader_spin_density
 _atom_site_pbe_cm5_charge
 _atom_site_pbe_ddec_charge
 _atom_site_pbe_ddec_spin_density
 _atom_site_pbe_ddec_sum_bond_order
 _atom_site_pbe_magmom
Zn  Zn0  1  0.85527469  0.38995015  0.96482170  1  0  1.028035  0  1.830149  0  0  0.842811  0  2.28825  0  0  0.893654  0  2.231995  0  0  0.691425  0.805119  0  2.328621  0
Zn  Zn1  1  0.14472705  0.61004886  0.03517955  1  0  1.028014  0  1.830171  0  0  0.842774  0  2.288296  0  0  0.893616  0  2.232044  0  0  0.691417  0.80508  0  2.328662  0
H  H2  1  0.86069717  0.18479774  0.19235809  1  0  0.313317  0  0.839  0  0  0.300567  0  0.884882  0  0  0.306945  0  0.88096  0  0  0.355567  0.296  0  0.887847  0
H  H3  1  0.13930538  0.81520331  0.80764264  1  0  0.313343  0  0.83892  0  0  0.300593  0  0.884807  0  0  0.306972  0  0.880884  0  0  0.355574  0.296027  0  0.887764  0
H  H4  1  0.35352186  0.62346960  0.24795337  1  0  0.307044  0  0.935865  0  0  0.283912  0  1.00134  0  0  0.293176  0  0.99409  0  0  0.314998  0.277421  0  1.006377  0
H  H5  1  0.64647721  0.37653146  0.75204526  1  0  0.307075  0  0.935837  0  0  0.283935  0  1.001306  0  0  0.293212  0  0.994053  0  0  0.315019  0.277443  0  1.006353  0
H  H6  1  0.55289022  0.53610779  0.11583137  1  0  0.133571  0  0.942581  0  0  0.14095  0  1.005201  0  0  0.144278  0  1.001874  0  0  0.130479  0.138396  0  1.007874  0
H  H7  1  0.44710937  0.46389021  0.88416787  1  0  0.133588  0  0.942588  0  0  0.140933  0  1.005242  0  0  0.144261  0  1.001916  0  0  0.130476  0.138388  0  1.007904  0
H  H8  1  0.69062292  0.17947065  0.38458475  1  0  0.12338  0  0.913558  0  0  0.138751  0  0.963534  0  0  0.141787  0  0.960586  0  0  0.14007  0.136409  0  0.965766  0
H  H9  1  0.30938062  0.82053142  0.61541647  1  0  0.123388  0  0.913513  0  0  0.13873  0  0.963525  0  0  0.141765  0  0.960578  0  0  0.140043  0.136387  0  0.965751  0
H  H10  1  0.31446750  0.25118118  0.67924936  1  0  0.113955  0  0.952507  0  0  0.123385  0  1.013992  0  0  0.127083  0  1.012041  0  0  0.10864  0.120636  0  1.015634  0
H  H11  1  0.68553522  0.74881885  0.32075075  1  0  0.113974  0  0.952501  0  0  0.123403  0  1.013985  0  0  0.127102  0  1.012034  0  0  0.10865  0.120654  0  1.015624  0
H  H12  1  0.13983610  0.22571161  0.86254865  1  0  0.085048  0  0.9416  0  0  0.095076  0  1.00321  0  0  0.096669  0  1.002422  0  0  0.11871  0.093752  0  1.004006  0
H  H13  1  0.86016581  0.77428638  0.13745198  1  0  0.085062  0  0.941609  0  0  0.095099  0  1.00319  0  0  0.096693  0  1.0024  0  0  0.118702  0.093769  0  1.003987  0
H  H14  1  0.87084057  0.60057467  0.74661436  1  0  0.080896  0  0.944017  0  0  0.092969  0  1.000395  0  0  0.094811  0  0.999079  0  0  0.118044  0.091514  0  1.001487  0
H  H15  1  0.12916117  0.39942434  0.25338607  1  0  0.080894  0  0.943995  0  0  0.092971  0  1.000374  0  0  0.094813  0  0.999058  0  0  0.118039  0.091515  0  1.001468  0
H  H16  1  0.03386568  0.64210350  0.56050115  1  0  0.115471  0  0.936283  0  0  0.126121  0  0.992574  0  0  0.12993  0  0.990952  0  0  0.112549  0.123358  0  0.993918  0
H  H17  1  0.96613572  0.35789754  0.43950051  1  0  0.115489  0  0.93632  0  0  0.126137  0  0.992613  0  0  0.129946  0  0.990992  0  0  0.112574  0.123376  0  0.993961  0
H  H18  1  0.52592555  0.76436183  0.84354861  1  0  0.090436  0  0.99448  0  0  0.09473  0  1.068654  0  0  0.097299  0  1.067998  0  0  0.097662  0.09292  0  1.06904  0
H  H19  1  0.47407601  0.23563820  0.15645081  1  0  0.090437  0  0.994497  0  0  0.094738  0  1.068658  0  0  0.097308  0  1.068003  0  0  0.097669  0.092931  0  1.069033  0
H  H20  1  0.36955046  0.99888416  0.79874757  1  0  0.083139  0  0.951635  0  0  0.09339  0  1.010965  0  0  0.096729  0  1.009867  0  0  0.096399  0.091097  0  1.011721  0
H  H21  1  0.63045091  0.00111691  0.20124920  1  0  0.083111  0  0.951631  0  0  0.093361  0  1.010966  0  0  0.0967  0  1.009868  0  0  0.096398  0.091067  0  1.011716  0
H  H22  1  0.47207592  0.19425496  0.83632463  1  0  0.087476  0  0.961301  0  0  0.095186  0  1.030757  0  0  0.098294  0  1.028824  0  0  0.099745  0.092861  0  1.032303  0
H  H23  1  0.52792795  0.80574508  0.16367293  1  0  0.087526  0  0.96133  0  0  0.095226  0  1.030784  0  0  0.098334  0  1.028851  0  0  0.09976  0.092904  0  1.032326  0
H  H24  1  0.88585259  0.92427558  0.95275916  1  0  0.118645  0  0.965358  0  0  0.12404  0  1.036462  0  0  0.128861  0  1.031369  0  0  0.10429  0.120466  0  1.040328  0
H  H25  1  0.11414667  0.07572445  0.04724374  1  0  0.118651  0  0.965309  0  0  0.124048  0  1.036421  0  0  0.128867  0  1.03133  0  0  0.104303  0.120477  0  1.040288  0
C  C26  1  0.60745849  0.44170042  0.16884419  1  0  0.047604  0  3.621725  0  0  -0.005405  0  3.896656  0  0  0.00382  0  3.908806  0  0  0.039033  -0.011377  0  3.888514  0
C  C27  1  0.39254225  0.55829757  0.83115494  1  0  0.047563  0  3.621872  0  0  -0.005392  0  3.896784  0  0  0.003834  0  3.908935  0  0  0.03903  -0.011374  0  3.888663  0
C  C28  1  0.67585299  0.25866583  0.30725689  1  0  0.036508  0  3.630324  0  0  -0.022079  0  3.898278  0  0  -0.012287  0  3.91052  0  0  0.039542  -0.02805  0  3.889665  0
C  C29  1  0.32414957  0.74133521  0.69274465  1  0  0.036423  0  3.630361  0  0  -0.022121  0  3.898326  0  0  -0.01233  0  3.910568  0  0  0.039541  -0.028096  0  3.889708  0
C  C30  1  0.56983921  0.38003183  0.28440085  1  0  -0.111751  0  3.841512  0  0  -0.095504  0  4.101353  0  0  -0.105364  0  4.124721  0  0  -0.020053  -0.089262  0  4.085538  0
C  C31  1  0.43016253  0.61996717  0.71559958  1  0  -0.111704  0  3.841496  0  0  -0.095482  0  4.101379  0  0  -0.105341  0  4.124744  0  0  -0.02006  -0.089238  0  4.085562  0
C  C32  1  0.44768313  0.43328119  0.36048828  1  0  0.334755  0  3.807313  0  0  0.30302  0  4.07604  0  0  0.31767  0  4.091798  0  0  0.222263  0.293576  0  4.065102  0
C  C33  1  0.55231860  0.56671783  0.63950971  1  0  0.334772  0  3.807354  0  0  0.302973  0  4.076154  0  0  0.317641  0  4.091922  0  0  0.222278  0.293535  0  4.065207  0
C  C34  1  0.28272892  0.46877090  0.49706115  1  0  0.259649  0  3.823883  0  0  0.242152  0  4.102054  0  0  0.249797  0  4.119137  0  0  0.19904  0.237282  0  4.090121  0
C  C35  1  0.71727363  0.53123016  0.50293876  1  0  0.259702  0  3.823912  0  0  0.242224  0  4.102019  0  0  0.249881  0  4.119085  0  0  0.199063  0.237352  0  4.090092  0
C  C36  1  0.18845102  0.44968100  0.60573159  1  0  0.074342  0  3.774171  0  0  0.088451  0  4.003789  0  0  0.093412  0  4.02434  0  0  0.019981  0.085177  0  3.98987  0
C  C37  1  0.81155135  0.55032108  0.39426812  1  0  0.074258  0  3.774311  0  0  0.088425  0  4.003827  0  0  0.093387  0  4.024378  0  0  0.019949  0.085149  0  3.989911  0
C  C38  1  0.21750459  0.33081526  0.69228309  1  0  -0.154968  0  3.701907  0  0  -0.175648  0  3.94747  0  0  -0.183355  0  3.967513  0  0  -0.082798  -0.170747  0  3.934301  0
C  C39  1  0.78249795  0.66918579  0.30771682  1  0  -0.154976  0  3.702017  0  0  -0.175679  0  3.947562  0  0  -0.183391  0  3.967608  0  0  -0.082791  -0.170778  0  3.934383  0
C  C40  1  0.12158702  0.31669888  0.79341379  1  0  0.131099  0  3.702342  0  0  0.101206  0  3.949106  0  0  0.108525  0  3.968424  0  0  0.047345  0.096321  0  3.936164  0
C  C41  1  0.87841454  0.68330116  0.20658644  1  0  0.131108  0  3.702421  0  0  0.101213  0  3.949177  0  0  0.108534  0  3.968492  0  0  0.047352  0.096328  0  3.936218  0
C  C42  1  0.97182330  0.52688780  0.72892308  1  0  0.143944  0  3.700189  0  0  0.107843  0  3.95859  0  0  0.116455  0  3.975716  0  0  0.043339  0.102157  0  3.947027  0
C  C43  1  0.02817960  0.47311121  0.27107724  1  0  0.143935  0  3.700095  0  0  0.107828  0  3.95851  0  0  0.11644  0  3.975637  0  0  0.043327  0.102141  0  3.946948  0
C  C44  1  0.06195814  0.54933348  0.62597843  1  0  -0.144291  0  3.705237  0  0  -0.167581  0  3.959335  0  0  -0.175103  0  3.979307  0  0  -0.078714  -0.162791  0  3.946083  0
C  C45  1  0.93804459  0.45066654  0.37402331  1  0  -0.144324  0  3.705316  0  0  -0.167641  0  3.959413  0  0  -0.175169  0  3.979387  0  0  -0.078741  -0.162854  0  3.946177  0
C  C46  1  0.80862928  0.68938748  0.92520684  1  0  0.657041  0  3.908577  0  0  0.60372  0  4.204257  0  0  0.639186  0  4.195271  0  0  0.212164  0.579467  0  4.209726  0
C  C47  1  0.19137095  0.31061358  0.07479331  1  0  0.657098  0  3.908548  0  0  0.603774  0  4.204225  0  0  0.63924  0  4.195243  0  0  0.212207  0.579517  0  4.209702  0
C  C48  1  0.71501118  0.83011421  0.89943767  1  0  -0.084653  0  3.773151  0  0  -0.05642  0  4.005096  0  0  -0.067055  0  4.029128  0  0  -0.026483  -0.049636  0  3.98909  0
C  C49  1  0.28499054  0.16988481  0.10056033  1  0  -0.084687  0  3.77305  0  0  -0.056432  0  4.004982  0  0  -0.067067  0  4.029017  0  0  -0.02648  -0.049646  0  3.988984  0
C  C50  1  0.56927089  0.85178817  0.85648612  1  0  -0.047788  0  3.712759  0  0  -0.076898  0  3.962426  0  0  -0.073736  0  3.981865  0  0  -0.0828  -0.078321  0  3.948737  0
C  C51  1  0.43073316  0.14821085  0.14351164  1  0  -0.047862  0  3.712815  0  0  -0.076989  0  3.962505  0  0  -0.073825  0  3.981933  0  0  -0.082854  -0.078417  0  3.948815  0
C  C52  1  0.48313935  0.98279064  0.83170374  1  0  -0.08213  0  3.779529  0  0  -0.091886  0  4.034407  0  0  -0.097521  0  4.056186  0  0  -0.093778  -0.088284  0  4.019311  0
C  C53  1  0.51686301  0.01721145  0.16829353  1  0  -0.081959  0  3.779613  0  0  -0.091721  0  4.034477  0  0  -0.097354  0  4.05626  0  0  -0.09372  -0.088116  0  4.019374  0
C  C54  1  0.54016619  0.09205749  0.85205963  1  0  -0.049914  0  3.721125  0  0  -0.07796  0  3.969456  0  0  -0.075227  0  3.989138  0  0  -0.079842  -0.079084  0  3.955768  0
C  C55  1  0.45983768  0.90794255  0.14793874  1  0  -0.050017  0  3.721251  0  0  -0.078041  0  3.969559  0  0  -0.075309  0  3.98924  0  0  -0.079834  -0.079168  0  3.955869  0
C  C56  1  0.68461837  0.07091529  0.89671508  1  0  -0.073107  0  3.77754  0  0  -0.044928  0  4.0065  0  0  -0.054935  0  4.030779  0  0  -0.023157  -0.038766  0  3.990555  0
C  C57  1  0.31538417  0.92908578  0.10328320  1  0  -0.073086  0  3.777641  0  0  -0.044926  0  4.006609  0  0  -0.054933  0  4.030888  0  0  -0.023167  -0.038756  0  3.990656  0
C  C58  1  0.77286864  0.94004977  0.91892296  1  0  -0.076333  0  3.694315  0  0  -0.112442  0  3.937495  0  0  -0.109379  0  3.955741  0  0  -0.080128  -0.114247  0  3.925803  0
C  C59  1  0.22713309  0.05994924  0.08107665  1  0  -0.076354  0  3.69434  0  0  -0.112479  0  3.937539  0  0  -0.109418  0  3.955787  0  0  -0.080177  -0.114294  0  3.925857  0
C  C60  1  0.74302861  0.18629418  0.92345472  1  0  0.635526  0  3.907823  0  0  0.585804  0  4.197828  0  0  0.619405  0  4.192117  0  0  0.200536  0.563061  0  4.2008  0
C  C61  1  0.25697313  0.81370483  0.07654571  1  0  0.635654  0  3.907884  0  0  0.585972  0  4.197831  0  0  0.619572  0  4.192114  0  0  0.200645  0.563222  0  4.200803  0
N  N62  1  0.72682409  0.36357629  0.12528218  1  0  -0.207416  0  3.180009  0  0  -0.153004  0  3.46601  0  0  -0.167123  0  3.481945  0  0  -0.23737  -0.143388  0  3.45532  0
N  N63  1  0.27317648  0.63642273  0.87471755  1  0  -0.207357  0  3.180012  0  0  -0.152935  0  3.465978  0  0  -0.167054  0  3.481912  0  0  -0.237309  -0.143321  0  3.455292  0
N  N64  1  0.76641349  0.25339095  0.20966397  1  0  -0.145618  0  3.498277  0  0  -0.085828  0  3.736254  0  0  -0.097784  0  3.755483  0  0  -0.27043  -0.078078  0  3.723239  0
N  N65  1  0.23359173  0.74660805  0.79033611  1  0  -0.145643  0  3.498393  0  0  -0.085869  0  3.736379  0  0  -0.097822  0  3.755603  0  0  -0.270472  -0.078115  0  3.723352  0
N  N66  1  0.40215320  0.37374642  0.46756738  1  0  -0.46432  0  2.882177  0  0  -0.44314  0  3.14541  0  0  -0.456737  0  3.155904  0  0  -0.344899  -0.433971  0  3.138093  0
N  N67  1  0.59784951  0.62625362  0.53243110  1  0  -0.464302  0  2.882196  0  0  -0.443125  0  3.145445  0  0  -0.456722  0  3.155933  0  0  -0.34492  -0.433949  0  3.138118  0
N  N68  1  0.25301397  0.58268018  0.41445861  1  0  -0.255741  0  2.8647  0  0  -0.256908  0  3.138074  0  0  -0.262012  0  3.151805  0  0  -0.22679  -0.253377  0  3.128806  0
N  N69  1  0.74698742  0.41732087  0.58554304  1  0  -0.255743  0  2.864728  0  0  -0.256942  0  3.138071  0  0  -0.26203  0  3.151815  0  0  -0.226776  -0.253409  0  3.128811  0
N  N70  1  0.35899793  0.55853349  0.32930050  1  0  -0.213613  0  3.42781  0  0  -0.15032  0  3.667702  0  0  -0.165993  0  3.684137  0  0  -0.258428  -0.139921  0  3.656586  0
N  N71  1  0.64100131  0.44146655  0.67069915  1  0  -0.213713  0  3.427903  0  0  -0.150337  0  3.667741  0  0  -0.16607  0  3.68423  0  0  -0.25847  -0.139942  0  3.656635  0
N  N72  1  0.00047402  0.41305957  0.81225805  1  0  -0.327489  0  3.288154  0  0  -0.246215  0  3.557233  0  0  -0.266001  0  3.573287  0  0  -0.325861  -0.232894  0  3.546392  0
N  N73  1  0.99952737  0.58694149  0.18774198  1  0  -0.327436  0  3.288078  0  0  -0.24615  0  3.55714  0  0  -0.265936  0  3.573196  0  0  -0.325836  -0.23282  0  3.54628  0
O  O74  1  0.73769131  0.58850586  0.93088451  1  0  -0.625058  0  2.053394  0  0  -0.555455  0  2.315756  0  0  -0.582925  0  2.302424  0  0  -0.312742  -0.535806  0  2.325071  0
O  O75  1  0.26231025  0.41149417  0.06911572  1  0  -0.62506  0  2.053357  0  0  -0.555456  0  2.315714  0  0  -0.582928  0  2.302383  0  0  -0.31276  -0.535803  0  2.325027  0
O  O76  1  0.95294160  0.67969196  0.93657268  1  0  -0.667519  0  2.134139  0  0  -0.612592  0  2.425076  0  0  -0.638507  0  2.409267  0  0  -0.328407  -0.593706  0  2.434892  0
O  O77  1  0.04705899  0.32030704  0.06342949  1  0  -0.667529  0  2.134158  0  0  -0.612611  0  2.425124  0  0  -0.638515  0  2.40929  0  0  -0.328423  -0.593724  0  2.434946  0
O  O78  1  0.85815159  0.16216455  0.98211081  1  0  -0.617758  0  1.964616  0  0  -0.565685  0  2.210538  0  0  -0.591625  0  2.200301  0  0  -0.319134  -0.54693  0  2.216551  0
O  O79  1  0.14184881  0.83783548  0.01788954  1  0  -0.617874  0  1.964613  0  0  -0.565829  0  2.210539  0  0  -0.591768  0  2.200297  0  0  -0.319209  -0.54707  0  2.21655  0
O  O80  1  0.67454034  0.30953734  0.88658546  1  0  -0.651418  0  2.023717  0  0  -0.588187  0  2.264519  0  0  -0.615122  0  2.254447  0  0  -0.320003  -0.568357  0  2.271156  0
O  O81  1  0.32546104  0.69046372  0.11341295  1  0  -0.651436  0  2.023884  0  0  -0.588198  0  2.264658  0  0  -0.615132  0  2.254592  0  0  -0.320022  -0.568367  0  2.271291  0
