# generated using pymatgen
data_CuH8C7SN4Cl
_symmetry_space_group_name_H-M   'P 1'
_cell_length_a   8.49338932
_cell_length_b   8.09421263
_cell_length_c   11.39039692
_cell_angle_alpha   41.87003479
_cell_angle_beta   75.92282410
_cell_angle_gamma   78.94799370
_symmetry_Int_Tables_number   1
_chemical_formula_structural   CuH8C7SN4Cl
_chemical_formula_sum   'Cu2 H16 C14 S2 N8 Cl2'
_cell_volume   506.88412036
_cell_formula_units_Z   2
loop_
 _symmetry_equiv_pos_site_id
 _symmetry_equiv_pos_as_xyz
  1  'x, y, z'
loop_
 _atom_site_type_symbol
 _atom_site_label
 _atom_site_symmetry_multiplicity
 _atom_site_fract_x
 _atom_site_fract_y
 _atom_site_fract_z
 _atom_site_occupancy
 _atom_site_hle17_bader_spin_density
 _atom_site_hle17_ddec_charge
 _atom_site_hle17_ddec_spin_density
 _atom_site_hle17_ddec_sum_bond_order
 _atom_site_hle17_magmom
 _atom_site_hse06_10hf_bader_spin_density
 _atom_site_hse06_10hf_ddec_charge
 _atom_site_hse06_10hf_ddec_spin_density
 _atom_site_hse06_10hf_ddec_sum_bond_order
 _atom_site_hse06_10hf_magmom
 _atom_site_hse06_bader_spin_density
 _atom_site_hse06_ddec_charge
 _atom_site_hse06_ddec_spin_density
 _atom_site_hse06_ddec_sum_bond_order
 _atom_site_hse06_magmom
 _atom_site_pbe_bader_spin_density
 _atom_site_pbe_cm5_charge
 _atom_site_pbe_ddec_charge
 _atom_site_pbe_ddec_spin_density
 _atom_site_pbe_ddec_sum_bond_order
 _atom_site_pbe_magmom
Cu  Cu0  1  0.92313578  0.29179468  0.08298128  1  0  0.368122  0  2.075842  0  0  0.271449  0  2.578786  0  0  0.280884  0  2.524317  0  0  0.366468  0.267834  0  2.615171  0
Cu  Cu1  1  0.07687088  0.70821937  0.91700960  1  0  0.368102  0  2.075859  0  0  0.271425  0  2.578785  0  0  0.280859  0  2.524333  0  0  0.366478  0.267803  0  2.615224  0
H  H2  1  0.29851148  0.10174165  0.86651021  1  0  0.328095  0  0.884583  0  0  0.309727  0  0.950651  0  0  0.317906  0  0.942437  0  0  0.312546  0.304178  0  0.956218  0
H  H3  1  0.70147780  0.89825877  0.13349234  1  0  0.328018  0  0.884764  0  0  0.309711  0  0.950759  0  0  0.317889  0  0.942546  0  0  0.312509  0.304161  0  0.956324  0
H  H4  1  0.17613445  0.08223858  0.02879931  1  0  0.326932  0  0.944822  0  0  0.30539  0  1.016339  0  0  0.313739  0  1.00963  0  0  0.270953  0.299601  0  1.02084  0
H  H5  1  0.82386048  0.91776921  0.97120213  1  0  0.326925  0  0.944851  0  0  0.305398  0  1.016341  0  0  0.313747  0  1.00963  0  0  0.270969  0.29961  0  1.020845  0
H  H6  1  0.09697744  0.60666670  0.51332329  1  0  0.279583  0  0.930267  0  0  0.258972  0  1.000773  0  0  0.26694  0  0.996018  0  0  0.288465  0.253331  0  1.004111  0
H  H7  1  0.90302273  0.39333415  0.48667255  1  0  0.279531  0  0.930296  0  0  0.258892  0  1.000806  0  0  0.266858  0  0.996054  0  0  0.288403  0.253253  0  1.004144  0
H  H8  1  0.23815819  0.62117583  0.31879158  1  0  0.072107  0  0.981052  0  0  0.078321  0  1.054394  0  0  0.081946  0  1.050855  0  0  0.098935  0.075371  0  1.057611  0
H  H9  1  0.76184124  0.37881752  0.68120803  1  0  0.072071  0  0.981022  0  0  0.078278  0  1.054373  0  0  0.081907  0  1.050833  0  0  0.098926  0.075328  0  1.057593  0
H  H10  1  0.39122652  0.68652271  0.08634433  1  0  0.099551  0  0.966087  0  0  0.113379  0  1.023929  0  0  0.116631  0  1.022808  0  0  0.099826  0.111019  0  1.024831  0
H  H11  1  0.60876995  0.31346028  0.91366437  1  0  0.09955  0  0.966062  0  0  0.113386  0  1.023898  0  0  0.11664  0  1.022778  0  0  0.099813  0.111032  0  1.024792  0
H  H12  1  0.63838041  0.60841082  0.96118241  1  0  0.077044  0  0.953293  0  0  0.085105  0  1.019206  0  0  0.08781  0  1.016707  0  0  0.105974  0.083153  0  1.020844  0
H  H13  1  0.36161815  0.39157706  0.03881912  1  0  0.076982  0  0.953309  0  0  0.085038  0  1.01923  0  0  0.087743  0  1.016731  0  0  0.105956  0.083087  0  1.020867  0
H  H14  1  0.80136690  0.05246892  0.44996236  1  0  0.090009  0  0.936714  0  0  0.093223  0  1.008038  0  0  0.096607  0  1.005504  0  0  0.108049  0.090732  0  1.009742  0
H  H15  1  0.19863842  0.94752812  0.55003786  1  0  0.089925  0  0.936728  0  0  0.093137  0  1.00808  0  0  0.096528  0  1.005529  0  0  0.108015  0.090648  0  1.009785  0
H  H16  1  0.56757344  0.11890196  0.59258994  1  0  0.112595  0  0.939701  0  0  0.120634  0  1.002633  0  0  0.124342  0  1.001216  0  0  0.1046  0.117926  0  1.003809  0
H  H17  1  0.43243722  0.88108797  0.40741445  1  0  0.112578  0  0.939728  0  0  0.120672  0  1.0026  0  0  0.124379  0  1.001185  0  0  0.104616  0.117964  0  1.003777  0
C  C18  1  0.10859312  0.33955794  0.78223848  1  0  0.496095  0  3.829371  0  0  0.450438  0  4.125817  0  0  0.479244  0  4.132348  0  0  0.241095  0.430807  0  4.120539  0
C  C19  1  0.89140906  0.66045075  0.21776114  1  0  0.496269  0  3.829149  0  0  0.450537  0  4.125644  0  0  0.479344  0  4.132174  0  0  0.241085  0.430906  0  4.120372  0
C  C20  1  0.31695902  0.46950405  0.41603560  1  0  0.04231  0  3.682403  0  0  0.002871  0  3.955268  0  0  0.010846  0  3.961866  0  0  0.047428  -0.003597  0  3.953297  0
C  C21  1  0.68303725  0.53049964  0.58395256  1  0  0.042352  0  3.682778  0  0  0.002978  0  3.955586  0  0  0.010927  0  3.962227  0  0  0.047497  -0.003497  0  3.953617  0
C  C22  1  0.45797100  0.41004780  0.35086114  1  0  0.100718  0  3.803137  0  0  0.117565  0  4.037222  0  0  0.121924  0  4.0569  0  0  0.004081  0.114711  0  4.024295  0
C  C23  1  0.54203127  0.58993961  0.64914430  1  0  0.100707  0  3.803048  0  0  0.117502  0  4.037174  0  0  0.121871  0  4.056836  0  0  0.004059  0.114649  0  4.02425  0
C  C24  1  0.48059071  0.54632797  0.17085870  1  0  -0.160546  0  3.716618  0  0  -0.176412  0  3.952623  0  0  -0.183896  0  3.973397  0  0  -0.091276  -0.172212  0  3.939261  0
C  C25  1  0.51940535  0.45366108  0.82914451  1  0  -0.160545  0  3.716817  0  0  -0.176402  0  3.952826  0  0  -0.183889  0  3.9736  0  0  -0.091216  -0.172211  0  3.939462  0
C  C26  1  0.61573273  0.50015729  0.10138844  1  0  0.112752  0  3.730882  0  0  0.084743  0  3.980182  0  0  0.091951  0  3.996185  0  0  0.031903  0.079747  0  3.969707  0
C  C27  1  0.38427399  0.49983660  0.89861127  1  0  0.11284  0  3.730796  0  0  0.084832  0  3.98008  0  0  0.092046  0  3.996088  0  0  0.031927  0.07984  0  3.969611  0
C  C28  1  0.70710750  0.19069846  0.37449813  1  0  0.127836  0  3.675984  0  0  0.098146  0  3.930603  0  0  0.105013  0  3.946726  0  0  0.038771  0.09369  0  3.919712  0
C  C29  1  0.29290113  0.80930418  0.62550052  1  0  0.128016  0  3.675868  0  0  0.098268  0  3.93055  0  0  0.105143  0  3.946682  0  0  0.038848  0.093812  0  3.919665  0
C  C30  1  0.57629493  0.22829088  0.45317085  1  0  -0.136103  0  3.677282  0  0  -0.159723  0  3.928121  0  0  -0.16649  0  3.948666  0  0  -0.082753  -0.155166  0  3.914212  0
C  C31  1  0.42370797  0.77170587  0.54682998  1  0  -0.13609  0  3.67727  0  0  -0.159746  0  3.928173  0  0  -0.166514  0  3.948715  0  0  -0.082759  -0.155189  0  3.914266  0
S  S32  1  0.94479766  0.46671197  0.81461964  1  0  -0.412906  0  2.379341  0  0  -0.393451  0  2.807305  0  0  -0.411825  0  2.788163  0  0  -0.203794  -0.379291  0  2.819177  0
S  S33  1  0.05520181  0.53330063  0.18537596  1  0  -0.412939  0  2.379336  0  0  -0.393434  0  2.807243  0  0  -0.411809  0  2.788102  0  0  -0.203749  -0.379278  0  2.819144  0
N  N34  1  0.19971172  0.15386490  0.90475199  1  0  -0.640206  0  3.199216  0  0  -0.596881  0  3.434383  0  0  -0.618104  0  3.431025  0  0  -0.55995  -0.582728  0  3.436396  0
N  N35  1  0.80027569  0.84614602  0.09524762  1  0  -0.640242  0  3.199145  0  0  -0.597003  0  3.434297  0  0  -0.618226  0  3.430934  0  0  -0.559992  -0.582842  0  3.436312  0
N  N36  1  0.14960835  0.43788463  0.61681013  1  0  -0.285531  0  3.446186  0  0  -0.222466  0  3.688993  0  0  -0.245013  0  3.70452  0  0  -0.290705  -0.206936  0  3.678325  0
N  N37  1  0.85039467  0.56212915  0.38318069  1  0  -0.285566  0  3.446045  0  0  -0.222349  0  3.688736  0  0  -0.24489  0  3.704257  0  0  -0.290581  -0.206818  0  3.678069  0
N  N38  1  0.28359514  0.35382936  0.58001584  1  0  -0.138047  0  3.065973  0  0  -0.119311  0  3.351463  0  0  -0.120517  0  3.363434  0  0  -0.203196  -0.119131  0  3.344182  0
N  N39  1  0.71639963  0.64616175  0.41999368  1  0  -0.138038  0  3.06633  0  0  -0.119386  0  3.351827  0  0  -0.12059  0  3.363795  0  0  -0.203291  -0.11921  0  3.344544  0
N  N40  1  0.72820967  0.32408821  0.20058456  1  0  -0.284657  0  3.386399  0  0  -0.209469  0  3.678068  0  0  -0.220729  0  3.684049  0  0  -0.370251  -0.202922  0  3.674644  0
N  N41  1  0.27179619  0.67591964  0.79941211  1  0  -0.284726  0  3.38609  0  0  -0.209491  0  3.677763  0  0  -0.220771  0  3.683757  0  0  -0.370306  -0.202949  0  3.674363  0
Cl  Cl42  1  0.10891462  0.00296885  0.26341745  1  0  -0.575747  0  1.082862  0  0  -0.512248  0  1.380707  0  0  -0.529203  0  1.355521  0  0  -0.317188  -0.500112  0  1.397404  0
Cl  Cl43  1  0.89108485  0.99704375  0.73657815  1  0  -0.575727  0  1.082856  0  0  -0.512246  0  1.380722  0  0  -0.5292  0  1.355538  0  0  -0.317187  -0.500103  0  1.397429  0
