# generated using pymatgen
data_CdH17C12N2ClO2
_symmetry_space_group_name_H-M   'P 1'
_cell_length_a   14.58400186
_cell_length_b   16.37705629
_cell_length_c   16.37482758
_cell_angle_alpha   119.99111773
_cell_angle_beta   90.00000300
_cell_angle_gamma   89.99999914
_symmetry_Int_Tables_number   1
_chemical_formula_structural   CdH17C12N2ClO2
_chemical_formula_sum   'Cd6 H102 C72 N12 Cl6 O12'
_cell_volume   3387.33995081
_cell_formula_units_Z   6
loop_
 _symmetry_equiv_pos_site_id
 _symmetry_equiv_pos_as_xyz
  1  'x, y, z'
loop_
 _atom_site_type_symbol
 _atom_site_label
 _atom_site_symmetry_multiplicity
 _atom_site_fract_x
 _atom_site_fract_y
 _atom_site_fract_z
 _atom_site_occupancy
 _atom_site_pbe_bader_charge
 _atom_site_pbe_bader_spin_density
 _atom_site_pbe_cm5_charge
 _atom_site_pbe_ddec_charge
 _atom_site_pbe_ddec_spin_density
 _atom_site_pbe_ddec_sum_bond_order
 _atom_site_pbe_magmom
Cd  Cd0  1  0.02881447  0.34738330  0.74023806  1  1.165369  0  0.699004  0.80461  0  2.305935  0
Cd  Cd1  1  0.86208849  0.74025377  0.39282762  1  1.166038  0  0.698799  0.80466  0  2.305176  0
Cd  Cd2  1  0.69542094  0.39282195  0.65260071  1  1.166396  0  0.698983  0.804677  0  2.305118  0
Cd  Cd3  1  0.52881507  0.65261705  0.25976277  1  1.165366  0  0.699006  0.804609  0  2.305941  0
Cd  Cd4  1  0.36208787  0.25974658  0.60717323  1  1.166083  0  0.698775  0.80462  0  2.305201  0
Cd  Cd5  1  0.19542099  0.60717692  0.34739794  1  1.166315  0  0.698999  0.804707  0  2.305094  0
H  H6  1  0.15597366  0.05887967  0.34944676  1  0.040861  0  0.086705  0.119081  0  1.012158  0
H  H7  1  0.98944722  0.34955250  0.29060620  1  0.027973  0  0.086764  0.118958  0  1.01212  0
H  H8  1  0.82282425  0.29047998  0.94092049  1  0.029964  0  0.086668  0.118963  0  1.012135  0
H  H9  1  0.65597428  0.94111946  0.65055286  1  0.040684  0  0.086682  0.119044  0  1.012126  0
H  H10  1  0.48944661  0.65044759  0.70939369  1  0.027976  0  0.086765  0.118965  0  1.012119  0
H  H11  1  0.32282497  0.70951950  0.05907879  1  0.029966  0  0.086634  0.118889  0  1.012067  0
H  H12  1  0.03449740  0.05222575  0.33834958  1  0.03553  0  0.082508  0.110304  0  1.002421  0
H  H13  1  0.86795656  0.33846958  0.28611927  1  0.031256  0  0.08256  0.110261  0  1.002344  0
H  H14  1  0.70135827  0.28612172  0.94773476  1  -0.004645  0  0.082633  0.110354  0  1.002099  0
H  H15  1  0.53449802  0.94777398  0.66165064  1  0.035544  0  0.082537  0.110327  0  1.002405  0
H  H16  1  0.36795595  0.66152991  0.71388001  1  0.031254  0  0.082576  0.110275  0  1.002301  0
H  H17  1  0.20135762  0.71387801  0.05226547  1  -0.004659  0  0.082623  0.110326  0  1.002128  0
H  H18  1  0.08699260  0.06461123  0.44182969  1  0.012192  0  0.080931  0.111233  0  1.025217  0
H  H19  1  0.92044558  0.44191661  0.37721523  1  0.032631  0  0.080977  0.11123  0  1.025259  0
H  H20  1  0.75385141  0.37717519  0.93528541  1  -0.016258  0  0.081059  0.111323  0  1.025261  0
H  H21  1  0.58699321  0.93538824  0.55816957  1  0.012199  0  0.080935  0.111229  0  1.025245  0
H  H22  1  0.42044565  0.55808313  0.62278501  1  0.03263  0  0.080976  0.111235  0  1.025258  0
H  H23  1  0.25385076  0.62282551  0.06471508  1  -0.016261  0  0.081063  0.111316  0  1.025302  0
H  H24  1  0.14653181  0.22289346  0.48056945  1  0.008505  0  0.08567  0.04945  0  0.984824  0
H  H25  1  0.97994434  0.48073791  0.25768190  1  0.011699  0  0.085351  0.048974  0  0.985277  0
H  H26  1  0.81318971  0.25766783  0.77690735  1  0.004684  0  0.085518  0.049295  0  0.985082  0
H  H27  1  0.64653174  0.77710663  0.51943043  1  0.008517  0  0.085673  0.049448  0  0.984825  0
H  H28  1  0.47994442  0.51926157  0.74231738  1  0.011696  0  0.085349  0.04896  0  0.98528  0
H  H29  1  0.31318907  0.74233140  0.22309096  1  0.004667  0  0.085492  0.049296  0  0.985098  0
H  H30  1  0.15709406  0.19556722  0.31719741  1  0.049112  0  0.08773  0.124614  0  0.997928  0
H  H31  1  0.99059779  0.31733060  0.12165968  1  0.051958  0  0.087602  0.12436  0  0.998432  0
H  H32  1  0.82380957  0.12160765  0.80428511  1  0.054675  0  0.087697  0.124677  0  0.997966  0
H  H33  1  0.65709332  0.80443252  0.68280282  1  0.049137  0  0.087737  0.124619  0  0.99793  0
H  H34  1  0.49059787  0.68266949  0.87834022  1  0.051955  0  0.087598  0.124352  0  0.998441  0
H  H35  1  0.32381030  0.87839112  0.19571487  1  0.054693  0  0.087715  0.124707  0  0.997971  0
H  H36  1  0.09592430  0.30045701  0.38987406  1  -0.004573  0  0.078312  0.103394  0  1.049064  0
H  H37  1  0.92944311  0.38999285  0.08940777  1  0.003423  0  0.078134  0.102989  0  1.049653  0
H  H38  1  0.76260826  0.08944849  0.69940661  1  0.044698  0  0.078185  0.103161  0  1.049774  0
H  H39  1  0.59592424  0.69954307  0.61012581  1  -0.00457  0  0.078315  0.103398  0  1.049054  0
H  H40  1  0.42944319  0.61000725  0.91059212  1  0.00348  0  0.078137  0.102998  0  1.049643  0
H  H41  1  0.26260831  0.91055186  0.30059423  1  0.044684  0  0.078171  0.103144  0  1.049757  0
H  H42  1  0.03514811  0.19679072  0.30990734  1  0.009554  0  0.082947  0.110827  0  1.005406  0
H  H43  1  0.86864292  0.31004621  0.11314479  1  0.025268  0  0.083052  0.110931  0  1.004856  0
H  H44  1  0.70185265  0.11315415  0.80310481  1  0.014951  0  0.083097  0.111029  0  1.005107  0
H  H45  1  0.53514805  0.80320911  0.69009156  1  0.009642  0  0.082934  0.110816  0  1.005414  0
H  H46  1  0.36864301  0.68995352  0.88685545  1  0.025271  0  0.083054  0.110934  0  1.004856  0
H  H47  1  0.20185337  0.88684620  0.19689603  1  0.014976  0  0.083083  0.111008  0  1.005108  0
H  H48  1  0.99513565  0.20278273  0.54165317  1  0.045345  0  0.082278  0.079638  0  1.04721  0
H  H49  1  0.82848385  0.54160854  0.33881305  1  0.083338  0  0.0823  0.079792  0  1.047202  0
H  H50  1  0.66167712  0.33876982  0.79714313  1  0.03863  0  0.082195  0.079635  0  1.047231  0
H  H51  1  0.49513639  0.79721736  0.45834673  1  0.045357  0  0.082292  0.079654  0  1.047214  0
H  H52  1  0.32848324  0.45839119  0.66118719  1  0.083339  0  0.082299  0.079782  0  1.047193  0
H  H53  1  0.16167647  0.66122992  0.20285710  1  0.038622  0  0.082241  0.079716  0  1.047205  0
H  H54  1  0.93886989  0.19953246  0.44403422  1  0.023291  0  0.094873  0.098348  0  0.979445  0
H  H55  1  0.77234220  0.44391958  0.24445990  1  0.027098  0  0.094872  0.098254  0  0.979549  0
H  H56  1  0.60558140  0.24434827  0.80043454  1  0.028052  0  0.094851  0.098358  0  0.97946  0
H  H57  1  0.43887063  0.80046764  0.55596567  1  0.023303  0  0.094876  0.09835  0  0.979444  0
H  H58  1  0.27234228  0.55608077  0.75554094  1  0.027096  0  0.094871  0.098226  0  0.979576  0
H  H59  1  0.10558145  0.75565182  0.19956533  1  0.02805  0  0.094857  0.098369  0  0.979444  0
H  H60  1  0.98411330  0.36453077  0.49813482  1  0.059234  0  0.107942  0.076005  0  0.984411  0
H  H61  1  0.81743681  0.49809374  0.13353645  1  0.091206  0  0.107881  0.075969  0  0.984615  0
H  H62  1  0.65071236  0.13355049  0.63536212  1  0.049638  0  0.107911  0.076082  0  0.984345  0
H  H63  1  0.48411336  0.63546836  0.50186482  1  0.059233  0  0.107941  0.07601  0  0.984407  0
H  H64  1  0.31743621  0.50190600  0.86646379  1  0.091201  0  0.107881  0.075998  0  0.984627  0
H  H65  1  0.15071241  0.86644960  0.36463776  1  0.049624  0  0.107907  0.076069  0  0.984333  0
H  H66  1  0.11399890  0.51353660  0.71427846  1  0.072224  0  0.112897  0.106673  0  0.985326  0
H  H67  1  0.94724138  0.71420108  0.20049591  1  0.069099  0  0.113154  0.107282  0  0.984743  0
H  H68  1  0.78051006  0.20059390  0.48628976  1  0.070128  0  0.113173  0.107303  0  0.984766  0
H  H69  1  0.61399814  0.48646385  0.28572107  1  0.072236  0  0.112883  0.106669  0  0.985358  0
H  H70  1  0.44724215  0.28579963  0.79950459  1  0.0691  0  0.113147  0.107244  0  0.984733  0
H  H71  1  0.28051012  0.79940619  0.51371012  1  0.070129  0  0.113158  0.107282  0  0.984742  0
H  H72  1  0.99669490  0.51570107  0.68835780  1  0.05377  0  0.11396  0.102397  0  0.958538  0
H  H73  1  0.82991007  0.68828508  0.17247752  1  0.054419  0  0.11408  0.102367  0  0.958725  0
H  H74  1  0.66319384  0.17254071  0.48419043  1  0.05831  0  0.114046  0.102436  0  0.958751  0
H  H75  1  0.49669495  0.48429928  0.31164306  1  0.053781  0  0.113968  0.102419  0  0.958518  0
H  H76  1  0.32991084  0.31171465  0.82752271  1  0.054431  0  0.11407  0.102342  0  0.958715  0
H  H77  1  0.16319390  0.82745902  0.51580980  1  0.058315  0  0.114042  0.102432  0  0.958749  0
H  H78  1  0.96882051  0.59835712  0.60272857  1  0.086635  0  0.108261  0.121255  0  0.996131  0
H  H79  1  0.80207820  0.60273965  0.00421122  1  0.089766  0  0.108059  0.121167  0  0.995739  0
H  H80  1  0.63544425  0.00422398  0.40152695  1  0.102759  0  0.108077  0.121362  0  0.995633  0
H  H81  1  0.46882195  0.40164297  0.39727132  1  0.086651  0  0.108266  0.121278  0  0.996133  0
H  H82  1  0.30207898  0.39726044  0.99578866  1  0.089773  0  0.108063  0.121165  0  0.995747  0
H  H83  1  0.13544431  0.99577575  0.59847328  1  0.102748  0  0.108079  0.121359  0  0.995632  0
H  H84  1  0.01760012  0.63724338  0.48096975  1  0.152504  0  0.104908  0.087436  0  1.049328  0
H  H85  1  0.85089679  0.48107569  0.84359291  1  0.150262  0  0.104856  0.087059  0  1.050029  0
H  H86  1  0.68435332  0.84369706  0.36272980  1  0.157979  0  0.104997  0.087561  0  1.049297  0
H  H87  1  0.51760143  0.36275671  0.51903012  1  0.152522  0  0.104938  0.08748  0  1.049311  0
H  H88  1  0.35089751  0.51892502  0.15640759  1  0.150237  0  0.104848  0.087055  0  1.050036  0
H  H89  1  0.18435271  0.15630329  0.63727104  1  0.157962  0  0.104975  0.087537  0  1.049318  0
H  H90  1  0.25472570  0.47707105  0.42363322  1  0.091988  0  0.119004  0.089656  0  0.985592  0
H  H91  1  0.08789154  0.42354573  0.94648558  1  0.104931  0  0.118987  0.089684  0  0.985889  0
H  H92  1  0.92128555  0.94673782  0.52319808  1  0.104548  0  0.118951  0.089604  0  0.985292  0
H  H93  1  0.75472633  0.52292852  0.57636474  1  0.091985  0  0.119005  0.089635  0  0.985628  0
H  H94  1  0.58789145  0.57645435  0.05351429  1  0.105043  0  0.118997  0.089669  0  0.985897  0
H  H95  1  0.42128562  0.05326227  0.47680181  1  0.104527  0  0.118953  0.089611  0  0.985265  0
H  H96  1  0.21601274  0.42931449  0.54027954  1  0.122849  0  0.09715  0.116683  0  1.046014  0
H  H97  1  0.04915386  0.54014238  0.11088900  1  0.123043  0  0.097329  0.116946  0  1.045468  0
H  H98  1  0.88243202  0.11108057  0.57088238  1  0.132981  0  0.097331  0.116819  0  1.045638  0
H  H99  1  0.71601336  0.57068498  0.45971972  1  0.122837  0  0.097151  0.116664  0  1.046048  0
H  H100  1  0.54915451  0.45985832  0.88911148  1  0.123023  0  0.097307  0.116914  0  1.045516  0
H  H101  1  0.38243139  0.88891978  0.42911847  1  0.132996  0  0.097342  0.116857  0  1.045614  0
H  H102  1  0.12055609  0.35153487  0.59191874  1  0.441492  0  0.297695  0.248453  0  0.970185  0
H  H103  1  0.95384245  0.59197135  0.24033662  1  0.432637  0  0.29775  0.248423  0  0.970212  0
H  H104  1  0.78710016  0.24036558  0.64836716  1  0.436156  0  0.297896  0.248706  0  0.970067  0
H  H105  1  0.62055670  0.64846487  0.40808149  1  0.441428  0  0.297693  0.248453  0  0.970174  0
H  H106  1  0.45384321  0.40802900  0.75966424  1  0.432629  0  0.297771  0.248425  0  0.970178  0
H  H107  1  0.28709953  0.75963416  0.35163307  1  0.436162  0  0.297896  0.2487  0  0.970081  0
C  C108  1  0.09144405  0.08628665  0.38832603  1  -0.095163  0  -0.245404  -0.388542  0  3.926657  0
C  C109  1  0.92492378  0.38842971  0.30204965  1  -0.09537  0  -0.245557  -0.388553  0  3.92706  0
C  C110  1  0.75826789  0.30200235  0.91359251  1  0.014257  0  -0.245529  -0.388614  0  3.926424  0
C  C111  1  0.59144398  0.91371318  0.61167287  1  -0.094933  0  -0.245381  -0.388491  0  3.926589  0
C  C112  1  0.42492385  0.61157039  0.69795024  1  -0.095378  0  -0.245575  -0.388597  0  3.927027  0
C  C113  1  0.25826724  0.69799739  0.08640772  1  0.014279  0  -0.245497  -0.388504  0  3.926369  0
C  C114  1  0.08658804  0.19373270  0.43329904  1  0.047434  0  -0.093185  0.126  0  3.862553  0
C  C115  1  0.92005680  0.43340165  0.23956416  1  0.036082  0  -0.092882  0.126937  0  3.862939  0
C  C116  1  0.75330012  0.23955097  0.80614546  1  0.037184  0  -0.093031  0.126684  0  3.862924  0
C  C117  1  0.58658798  0.80626800  0.56670144  1  0.047357  0  -0.09319  0.126011  0  3.862488  0
C  C118  1  0.42005688  0.56659844  0.76043573  1  0.036086  0  -0.092853  0.127016  0  3.862863  0
C  C119  1  0.25330016  0.76044876  0.19385478  1  0.037111  0  -0.09302  0.126662  0  3.863005  0
C  C120  1  0.09395296  0.22347725  0.35859379  1  -0.053472  0  -0.247718  -0.396172  0  3.939798  0
C  C121  1  0.92745874  0.35872798  0.13512919  1  -0.071056  0  -0.247554  -0.395749  0  3.940272  0
C  C122  1  0.76066847  0.13512152  0.77638547  1  -0.127145  0  -0.247799  -0.396539  0  3.940353  0
C  C123  1  0.59395221  0.77652284  0.64140609  1  -0.053586  0  -0.247739  -0.3962  0  3.939749  0
C  C124  1  0.42745882  0.64127211  0.86487070  1  -0.071111  0  -0.247554  -0.39576  0  3.940262  0
C  C125  1  0.26066919  0.86487787  0.22361512  1  -0.12716  0  -0.247781  -0.396519  0  3.940342  0
C  C126  1  0.99811220  0.22954456  0.49183801  1  -0.016026  0  -0.162318  -0.224244  0  3.876803  0
C  C127  1  0.83150086  0.49181455  0.26224717  1  -0.064426  0  -0.162358  -0.22469  0  3.876664  0
C  C128  1  0.66475309  0.26221437  0.77038715  1  -0.048567  0  -0.162144  -0.22446  0  3.875972  0
C  C129  1  0.49811226  0.77045553  0.50816189  1  -0.016048  0  -0.162322  -0.224248  0  3.876806  0
C  C130  1  0.33150094  0.50818554  0.73775271  1  -0.064426  0  -0.162352  -0.224592  0  3.876586  0
C  C131  1  0.16475245  0.73778537  0.22961308  1  -0.048492  0  -0.16219  -0.224563  0  3.876028  0
C  C132  1  0.98558066  0.33702944  0.54732182  1  0.251217  0  -0.00679  -0.003459  0  3.866991  0
C  C133  1  0.81890143  0.54728102  0.21022190  1  0.234575  0  -0.006681  -0.003019  0  3.866924  0
C  C134  1  0.65216601  0.21023563  0.66290434  1  0.301873  0  -0.006834  -0.00321  0  3.866022  0
C  C135  1  0.48558072  0.66297066  0.45267807  1  0.251234  0  -0.006799  -0.003482  0  3.867004  0
C  C136  1  0.31890151  0.45271907  0.78977799  1  0.234629  0  -0.006701  -0.003226  0  3.867076  0
C  C137  1  0.15216606  0.78976349  0.33709528  1  0.301889  0  -0.006837  -0.003173  0  3.866024  0
C  C138  1  0.06349082  0.48506149  0.65676060  1  0.311041  0  -0.064791  -0.086865  0  3.908517  0
C  C139  1  0.89671478  0.65670257  0.17154648  1  0.301982  0  -0.065066  -0.087564  0  3.909193  0
C  C140  1  0.72999923  0.17161855  0.51484066  1  0.280495  0  -0.065086  -0.087704  0  3.908994  0
C  C141  1  0.56349143  0.51493860  0.34323927  1  0.311008  0  -0.064789  -0.086882  0  3.908554  0
C  C142  1  0.39671486  0.34329752  0.82845341  1  0.301969  0  -0.065068  -0.087455  0  3.909118  0
C  C143  1  0.22999929  0.82838154  0.48515922  1  0.280489  0  -0.065083  -0.087725  0  3.909113  0
C  C144  1  0.08894611  0.51173678  0.58385651  1  -0.087319  0  0.006573  0.129955  0  3.965414  0
C  C145  1  0.92215087  0.58379616  0.07199867  1  -0.106618  0  0.006611  0.130456  0  3.965626  0
C  C146  1  0.75546275  0.07210116  0.48829017  1  0.000635  0  0.00679  0.130402  0  3.964771  0
C  C147  1  0.58894672  0.48826366  0.41614301  1  -0.08733  0  0.006556  0.129932  0  3.965442  0
C  C148  1  0.42215027  0.41620393  0.92800122  1  -0.106612  0  0.00663  0.130438  0  3.96556  0
C  C149  1  0.25546212  0.92789919  0.51171068  1  0.00063  0  0.006795  0.130449  0  3.964866  0
C  C150  1  0.03327414  0.57000488  0.56529308  1  0.008128  0  -0.083043  -0.183859  0  3.948416  0
C  C151  1  0.86651939  0.56529433  0.99515012  1  -0.001944  0  -0.082757  -0.18363  0  3.946929  0
C  C152  1  0.69987169  0.99523047  0.42998143  1  -0.133194  0  -0.083006  -0.184003  0  3.947528  0
C  C153  1  0.53327408  0.42999521  0.43470679  1  0.008137  0  -0.08307  -0.183942  0  3.948417  0
C  C154  1  0.36651942  0.43470577  0.00484977  1  -0.001989  0  -0.08274  -0.183584  0  3.946939  0
C  C155  1  0.19987108  0.00476927  0.57001881  1  -0.13321  0  -0.08299  -0.18398  0  3.947505  0
C  C156  1  0.05998903  0.59212431  0.49693876  1  0.496913  0  0.048089  0.10526  0  3.931802  0
C  C157  1  0.89325553  0.49697750  0.90468645  1  0.500285  0  0.047888  0.105311  0  3.932041  0
C  C158  1  0.72665926  0.90480817  0.40791918  1  0.556009  0  0.047825  0.104704  0  3.933045  0
C  C159  1  0.55998965  0.40787639  0.50306172  1  0.496922  0  0.048013  0.105185  0  3.931969  0
C  C160  1  0.39325489  0.50302417  0.09531431  1  0.500366  0  0.047852  0.10526  0  3.932001  0
C  C161  1  0.22665865  0.09519217  0.59208166  1  0.55601  0  0.047833  0.104721  0  3.93311  0
C  C162  1  0.19167991  0.50193060  0.46451468  1  0.506994  0  0.050945  0.109216  0  3.948233  0
C  C163  1  0.02486357  0.46445617  0.96250252  1  0.482978  0  0.050805  0.108888  0  3.948285  0
C  C164  1  0.85823701  0.96269868  0.49827948  1  0.500442  0  0.051191  0.109691  0  3.947995  0
C  C165  1  0.69168122  0.49807106  0.53548606  1  0.506854  0  0.050995  0.109251  0  3.948174  0
C  C166  1  0.52486416  0.53554453  0.03749796  1  0.482791  0  0.050853  0.109029  0  3.948314  0
C  C167  1  0.35823571  0.03730132  0.50172172  1  0.500295  0  0.051205  0.109729  0  3.948047  0
C  C168  1  0.16969143  0.47670065  0.53129057  1  -0.055112  0  -0.084966  -0.176375  0  3.931264  0
C  C169  1  0.00286684  0.53119870  0.05450257  1  -0.028728  0  -0.085003  -0.176785  0  3.931655  0
C  C170  1  0.83618134  0.05466005  0.52345840  1  -0.084023  0  -0.085059  -0.176704  0  3.931467  0
C  C171  1  0.66969068  0.52330040  0.46870957  1  -0.054966  0  -0.084972  -0.176342  0  3.931331  0
C  C172  1  0.50286680  0.46880235  0.94549755  1  -0.028706  0  -0.085064  -0.176886  0  3.931692  0
C  C173  1  0.33618139  0.94533969  0.47654183  1  -0.083871  0  -0.08509  -0.176802  0  3.931475  0
C  C174  1  0.89242653  0.36073295  0.59806634  1  1.568855  0  0.195834  0.555906  0  4.181567  0
C  C175  1  0.72576650  0.59801729  0.23725802  1  1.567945  0  0.195841  0.555402  0  4.182147  0
C  C176  1  0.55901050  0.23729491  0.63925490  1  1.568638  0  0.196028  0.556006  0  4.182334  0
C  C177  1  0.39242659  0.63926618  0.40193329  1  1.568758  0  0.195918  0.555944  0  4.181468  0
C  C178  1  0.22576658  0.40198245  0.76274221  1  1.567932  0  0.195813  0.555331  0  4.182128  0
C  C179  1  0.05901056  0.76270517  0.36074497  1  1.568617  0  0.195957  0.555839  0  4.182376  0
N  N180  1  0.05824672  0.38213916  0.61839484  1  -1.0798  0  -0.481444  -0.336955  0  3.488247  0
N  N181  1  0.89151868  0.61839201  0.23616951  1  -1.059481  0  -0.481545  -0.337283  0  3.488479  0
N  N182  1  0.72478530  0.23622705  0.61776554  1  -1.065247  0  -0.481609  -0.337434  0  3.488467  0
N  N183  1  0.55824664  0.61786092  0.38160503  1  -1.079744  0  -0.481445  -0.33695  0  3.488255  0
N  N184  1  0.39151876  0.38160869  0.76383099  1  -1.059512  0  -0.481555  -0.337208  0  3.488522  0
N  N185  1  0.22478536  0.76377304  0.38223434  1  -1.065256  0  -0.481611  -0.337412  0  3.488434  0
N  N186  1  0.13813973  0.55893337  0.44766027  1  -1.258022  0  -0.333025  -0.231498  0  3.509623  0
N  N187  1  0.97136784  0.44766853  0.88863722  1  -1.26003  0  -0.333068  -0.231194  0  3.50903  0
N  N188  1  0.80477911  0.88880355  0.44122307  1  -1.264134  0  -0.332864  -0.231315  0  3.509663  0
N  N189  1  0.63813967  0.44106733  0.55234021  1  -1.258035  0  -0.332977  -0.231407  0  3.509698  0
N  N190  1  0.47136856  0.55233218  0.11136329  1  -1.259983  0  -0.333047  -0.23121  0  3.508959  0
N  N191  1  0.30477919  0.11119644  0.55877812  1  -1.264093  0  -0.332862  -0.231333  0  3.509787  0
Cl  Cl192  1  0.00902978  0.18460688  0.70487990  1  -0.65953  0  -0.361091  -0.547816  0  1.020172  0
Cl  Cl193  1  0.84236414  0.70487867  0.52028538  1  -0.659566  0  -0.361241  -0.547923  0  1.019831  0
Cl  Cl194  1  0.67567533  0.52022867  0.81539171  1  -0.660275  0  -0.360968  -0.547673  0  1.020335  0
Cl  Cl195  1  0.50902832  0.81539321  0.29511997  1  -0.659521  0  -0.361089  -0.54781  0  1.02015  0
Cl  Cl196  1  0.34236626  0.29512167  0.47971547  1  -0.659598  0  -0.361229  -0.547911  0  1.019843  0
Cl  Cl197  1  0.17567606  0.47977055  0.18460660  1  -0.660206  0  -0.360975  -0.54769  0  1.020342  0
O  O198  1  0.82419766  0.36787803  0.55405663  1  -1.16729  0  -0.329504  -0.544857  0  2.231598  0
O  O199  1  0.65753352  0.55407899  0.18605022  1  -1.167197  0  -0.329755  -0.54487  0  2.230972  0
O  O200  1  0.49080152  0.18606191  0.63199885  1  -1.166936  0  -0.329982  -0.545412  0  2.231361  0
O  O201  1  0.32419703  0.63212049  0.44594239  1  -1.167195  0  -0.329556  -0.544885  0  2.231585  0
O  O202  1  0.15753360  0.44592171  0.81395026  1  -1.167206  0  -0.329718  -0.544804  0  2.230931  0
O  O203  1  0.99080213  0.81393757  0.36800043  1  -1.166928  0  -0.329952  -0.545342  0  2.231332  0
O  O204  1  0.88704118  0.36928574  0.67971077  1  -1.18496  0  -0.330914  -0.565854  0  2.284972  0
O  O205  1  0.72037498  0.67959771  0.31038999  1  -1.185763  0  -0.330665  -0.565294  0  2.286022  0
O  O206  1  0.55358470  0.31046922  0.63087784  1  -1.183135  0  -0.330713  -0.565406  0  2.2854  0
O  O207  1  0.38704192  0.63071435  0.32028911  1  -1.18496  0  -0.330944  -0.565872  0  2.284924  0
O  O208  1  0.22037506  0.32040167  0.68961060  1  -1.185772  0  -0.330686  -0.56527  0  2.286  0
O  O209  1  0.05358475  0.68953148  0.36912264  1  -1.183125  0  -0.330678  -0.565326  0  2.285377  0
