# generated using pymatgen
data_TlH5C7O3
_symmetry_space_group_name_H-M   'P 1'
_cell_length_a   8.48036178
_cell_length_b   8.81944539
_cell_length_c   19.19269467
_cell_angle_alpha   89.99975477
_cell_angle_beta   90.00025168
_cell_angle_gamma   89.99856435
_symmetry_Int_Tables_number   1
_chemical_formula_structural   TlH5C7O3
_chemical_formula_sum   'Tl8 H40 C56 O24'
_cell_volume   1435.46170177
_cell_formula_units_Z   8
loop_
 _symmetry_equiv_pos_site_id
 _symmetry_equiv_pos_as_xyz
  1  'x, y, z'
loop_
 _atom_site_type_symbol
 _atom_site_label
 _atom_site_symmetry_multiplicity
 _atom_site_fract_x
 _atom_site_fract_y
 _atom_site_fract_z
 _atom_site_occupancy
 _atom_site_hle17_bader_spin_density
 _atom_site_hle17_ddec_charge
 _atom_site_hle17_ddec_spin_density
 _atom_site_hle17_ddec_sum_bond_order
 _atom_site_hle17_magmom
 _atom_site_hse06_10hf_bader_charge
 _atom_site_hse06_10hf_bader_spin_density
 _atom_site_hse06_10hf_ddec_charge
 _atom_site_hse06_10hf_ddec_spin_density
 _atom_site_hse06_10hf_ddec_sum_bond_order
 _atom_site_hse06_10hf_magmom
 _atom_site_hse06_bader_spin_density
 _atom_site_hse06_ddec_charge
 _atom_site_hse06_ddec_spin_density
 _atom_site_hse06_ddec_sum_bond_order
 _atom_site_hse06_magmom
 _atom_site_pbe_bader_spin_density
 _atom_site_pbe_cm5_charge
 _atom_site_pbe_ddec_charge
 _atom_site_pbe_ddec_spin_density
 _atom_site_pbe_ddec_sum_bond_order
 _atom_site_pbe_magmom
Tl  Tl0  1  0.88660848  0.41540690  0.40101922  1  0  0.827115  0  0.778044  0  0.831494  0  0.721798  0  1.065075  0  0  0.74906  0  1.043871  0  0  0.416104  0.701322  0  1.080443  0
Tl  Tl1  1  0.11339696  0.08460058  0.90102203  1  0  0.827098  0  0.778044  0  0.831439  0  0.721813  0  1.06503  0  0  0.749048  0  1.043854  0  0  0.416097  0.701338  0  1.080395  0
Tl  Tl2  1  0.38660141  0.58462004  0.09898436  1  0  0.827007  0  0.778161  0  0.831427  0  0.721699  0  1.06517  0  0  0.748943  0  1.043969  0  0  0.416022  0.701227  0  1.080544  0
Tl  Tl3  1  0.61339645  0.91537268  0.59898806  1  0  0.827037  0  0.778111  0  0.831431  0  0.721703  0  1.065162  0  0  0.748965  0  1.043922  0  0  0.416032  0.701226  0  1.080537  0
Tl  Tl4  1  0.11339494  0.58459490  0.59898058  1  0  0.82712  0  0.77802  0  0.831568  0  0.721808  0  1.065045  0  0  0.749058  0  1.043844  0  0  0.416103  0.701331  0  1.080413  0
Tl  Tl5  1  0.88659820  0.91540236  0.09897777  1  0  0.827083  0  0.778055  0  0.831446  0  0.721788  0  1.065066  0  0  0.749029  0  1.043871  0  0  0.416091  0.701315  0  1.080432  0
Tl  Tl6  1  0.61339965  0.41539083  0.90101491  1  0  0.82699  0  0.778187  0  0.831487  0  0.721719  0  1.065171  0  0  0.748941  0  1.044009  0  0  0.416021  0.701245  0  1.080547  0
Tl  Tl7  1  0.38659518  0.08461778  0.40101591  1  0  0.827035  0  0.778149  0  0.831442  0  0.721732  0  1.065136  0  0  0.748967  0  1.043964  0  0  0.416029  0.701249  0  1.080499  0
H  H8  1  0.80723136  0.03652670  0.44255666  1  0  0.388683  0  0.90124  0  0.655657  0  0.357084  0  0.981012  0  0  0.370039  0  0.967554  0  0  0.298148  0.347963  0  0.990353  0
H  H9  1  0.19276033  0.46348492  0.94256307  1  0  0.388661  0  0.9014  0  0.655596  0  0.357108  0  0.981076  0  0  0.370061  0  0.967624  0  0  0.298101  0.347982  0  0.990431  0
H  H10  1  0.30727893  0.96352144  0.05743269  1  0  0.388675  0  0.901243  0  0.653945  0  0.356979  0  0.981136  0  0  0.36993  0  0.967702  0  0  0.298111  0.347863  0  0.990469  0
H  H11  1  0.69273268  0.53646601  0.55742686  1  0  0.38867  0  0.901215  0  0.653814  0  0.356996  0  0.981069  0  0  0.36995  0  0.967633  0  0  0.298125  0.347873  0  0.990416  0
H  H12  1  0.19275555  0.96346604  0.55744470  1  0  0.38869  0  0.90139  0  0.655653  0  0.357105  0  0.981114  0  0  0.370057  0  0.96767  0  0  0.298187  0.347981  0  0.990466  0
H  H13  1  0.80725252  0.53651348  0.05743413  1  0  0.388582  0  0.901502  0  0.655547  0  0.35703  0  0.981181  0  0  0.369987  0  0.967727  0  0  0.298099  0.347907  0  0.990527  0
H  H14  1  0.69272684  0.03648830  0.94256554  1  0  0.38866  0  0.901257  0  0.653966  0  0.357049  0  0.981017  0  0  0.37  0  0.967581  0  0  0.29811  0.347932  0  0.990354  0
H  H15  1  0.30727664  0.46353466  0.44257086  1  0  0.388599  0  0.901288  0  0.65377  0  0.356913  0  0.981166  0  0  0.369864  0  0.967734  0  0  0.298047  0.347792  0  0.990506  0
H  H16  1  0.96456332  0.13911253  0.27490491  1  0  0.102368  0  0.97853  0  0.081829  0  0.113985  0  1.040342  0  0  0.116842  0  1.040389  0  0  0.099087  0.111971  0  1.040434  0
H  H17  1  0.03544799  0.36089614  0.77490599  1  0  0.10237  0  0.978484  0  0.081813  0  0.114031  0  1.040243  0  0  0.116887  0  1.040294  0  0  0.099131  0.112018  0  1.040334  0
H  H18  1  0.46456681  0.86091932  0.22509622  1  0  0.102388  0  0.978627  0  0.082178  0  0.113865  0  1.040564  0  0  0.11672  0  1.040618  0  0  0.099003  0.111852  0  1.040654  0
H  H19  1  0.53544641  0.63908468  0.72509039  1  0  0.10218  0  0.978577  0  0.082139  0  0.113822  0  1.040362  0  0  0.116678  0  1.040416  0  0  0.09901  0.111807  0  1.040453  0
H  H20  1  0.03543774  0.86088473  0.72509801  1  0  0.10248  0  0.978563  0  0.081809  0  0.114055  0  1.040377  0  0  0.116909  0  1.040432  0  0  0.099135  0.112042  0  1.040465  0
H  H21  1  0.96455424  0.63910679  0.22509433  1  0  0.102352  0  0.97846  0  0.081809  0  0.114028  0  1.040207  0  0  0.116883  0  1.04026  0  0  0.09912  0.112016  0  1.040304  0
H  H22  1  0.53542246  0.13909382  0.77490358  1  0  0.102365  0  0.978502  0  0.082161  0  0.113884  0  1.040402  0  0  0.116739  0  1.040456  0  0  0.098996  0.111874  0  1.040491  0
H  H23  1  0.46456644  0.36091032  0.27490836  1  0  0.10237  0  0.978532  0  0.082112  0  0.113901  0  1.04041  0  0  0.116759  0  1.040462  0  0  0.099021  0.111882  0  1.040505  0
H  H24  1  0.16666645  0.97512402  0.21904768  1  0  0.085966  0  0.985884  0  0.11286  0  0.095053  0  1.051296  0  0  0.097645  0  1.049732  0  0  0.096625  0.093192  0  1.052361  0
H  H25  1  0.83334317  0.52487777  0.71904840  1  0  0.085939  0  0.985856  0  0.113755  0  0.095033  0  1.051271  0  0  0.097623  0  1.049708  0  0  0.096649  0.09317  0  1.052338  0
H  H26  1  0.66666598  0.02490939  0.28095911  1  0  0.086037  0  0.985832  0  0.113275  0  0.095126  0  1.051181  0  0  0.097723  0  1.049611  0  0  0.096652  0.09326  0  1.05225  0
H  H27  1  0.33333478  0.47510943  0.78095171  1  0  0.086002  0  0.985612  0  0.113041  0  0.095084  0  1.051058  0  0  0.09768  0  1.049491  0  0  0.096639  0.093218  0  1.052121  0
H  H28  1  0.83333461  0.02487665  0.78095838  1  0  0.085841  0  0.985983  0  0.113674  0  0.094959  0  1.051342  0  0  0.097551  0  1.049778  0  0  0.096586  0.093094  0  1.052412  0
H  H29  1  0.16665671  0.47512290  0.28095348  1  0  0.085934  0  0.985888  0  0.113708  0  0.095028  0  1.051307  0  0  0.09762  0  1.049743  0  0  0.096636  0.093165  0  1.052371  0
H  H30  1  0.33332565  0.97510715  0.71904329  1  0  0.085994  0  0.985853  0  0.11286  0  0.095084  0  1.051215  0  0  0.097678  0  1.049649  0  0  0.096623  0.093221  0  1.052274  0
H  H31  1  0.66667454  0.52489350  0.21904809  1  0  0.086054  0  0.985837  0  0.112472  0  0.095145  0  1.051223  0  0  0.097739  0  1.049657  0  0  0.096657  0.093276  0  1.052294  0
H  H32  1  0.25883920  0.73965089  0.27876759  1  0  0.090116  0  0.965332  0  0.02984  0  0.101901  0  1.026651  0  0  0.104337  0  1.026987  0  0  0.096056  0.100186  0  1.026524  0
H  H33  1  0.74116273  0.76035146  0.77876559  1  0  0.090203  0  0.965343  0  0.029806  0  0.101974  0  1.026663  0  0  0.104408  0  1.027001  0  0  0.096096  0.100258  0  1.026541  0
H  H34  1  0.75883088  0.26037574  0.22124250  1  0  0.090223  0  0.965514  0  0.029834  0  0.102045  0  1.02676  0  0  0.104456  0  1.027125  0  0  0.096119  0.100326  0  1.026638  0
H  H35  1  0.24116930  0.23963911  0.72123902  1  0  0.090205  0  0.965448  0  0.030012  0  0.101988  0  1.026742  0  0  0.104426  0  1.027075  0  0  0.096077  0.10027  0  1.026618  0
H  H36  1  0.74115950  0.26034410  0.72123689  1  0  0.090106  0  0.965322  0  0.029804  0  0.101856  0  1.026661  0  0  0.104293  0  1.026995  0  0  0.096031  0.10014  0  1.026539  0
H  H37  1  0.25883597  0.23964694  0.22123942  1  0  0.090185  0  0.965349  0  0.029738  0  0.101945  0  1.026679  0  0  0.104381  0  1.027014  0  0  0.096055  0.100227  0  1.026551  0
H  H38  1  0.24116428  0.73963400  0.77875781  1  0  0.090227  0  0.965445  0  0.030011  0  0.102011  0  1.026737  0  0  0.104448  0  1.027071  0  0  0.096131  0.10029  0  1.026613  0
H  H39  1  0.75883411  0.76036496  0.27876026  1  0  0.090224  0  0.965384  0  0.029951  0  0.102007  0  1.026679  0  0  0.104444  0  1.027013  0  0  0.09613  0.100286  0  1.026565  0
H  H40  1  0.13838475  0.66650096  0.39293702  1  0  0.087324  0  0.991648  0  0.094166  0  0.094045  0  1.061712  0  0  0.097213  0  1.059397  0  0  0.100789  0.091717  0  1.063406  0
H  H41  1  0.86161238  0.83350032  0.89293669  1  0  0.087416  0  0.991567  0  0.09414  0  0.094087  0  1.061693  0  0  0.097254  0  1.059375  0  0  0.100807  0.091758  0  1.063386  0
H  H42  1  0.63840410  0.33352747  0.10706970  1  0  0.087586  0  0.99134  0  0.094464  0  0.094183  0  1.061539  0  0  0.097352  0  1.05922  0  0  0.100825  0.091851  0  1.063237  0
H  H43  1  0.36160443  0.16647600  0.60706921  1  0  0.087569  0  0.991439  0  0.094407  0  0.094159  0  1.061649  0  0  0.097328  0  1.059329  0  0  0.100819  0.091832  0  1.063337  0
H  H44  1  0.86159272  0.33348837  0.60706538  1  0  0.087296  0  0.991668  0  0.094234  0  0.094079  0  1.061669  0  0  0.097251  0  1.05936  0  0  0.100793  0.091752  0  1.063364  0
H  H45  1  0.13839104  0.16649468  0.10706832  1  0  0.087523  0  0.991487  0  0.094368  0  0.094148  0  1.061663  0  0  0.097313  0  1.059342  0  0  0.100871  0.091824  0  1.063347  0
H  H46  1  0.36160168  0.66648341  0.89293009  1  0  0.08753  0  0.991412  0  0.094477  0  0.09416  0  1.061594  0  0  0.097331  0  1.059273  0  0  0.100808  0.091836  0  1.063279  0
H  H47  1  0.63839899  0.83352581  0.39292695  1  0  0.087571  0  0.991437  0  0.094474  0  0.0942  0  1.061619  0  0  0.097371  0  1.059297  0  0  0.100827  0.091867  0  1.063314  0
C  C48  1  0.98562916  0.85859798  0.39789114  1  0  -0.20796  0  3.757218  0  -0.027709  0  -0.188438  0  3.993295  0  0  -0.200948  0  4.015814  0  0  -0.036179  -0.180367  0  3.978269  0
C  C49  1  0.01436330  0.64140211  0.89789311  1  0  -0.207937  0  3.757128  0  -0.02769  0  -0.188141  0  3.992974  0  0  -0.2007  0  4.015548  0  0  -0.036102  -0.18006  0  3.977943  0
C  C50  1  0.48565365  0.14142656  0.10210847  1  0  -0.207846  0  3.757372  0  -0.028677  0  -0.187936  0  3.993099  0  0  -0.200545  0  4.015739  0  0  -0.035996  -0.179793  0  3.977975  0
C  C51  1  0.51434304  0.35857015  0.60210478  1  0  -0.207962  0  3.757299  0  -0.028171  0  -0.18802  0  3.992989  0  0  -0.20063  0  4.015628  0  0  -0.036  -0.179874  0  3.977878  0
C  C52  1  0.01435539  0.14139022  0.60210710  1  0  -0.207961  0  3.756963  0  -0.027129  0  -0.188189  0  3.992865  0  0  -0.200725  0  4.015416  0  0  -0.036062  -0.18012  0  3.977843  0
C  C53  1  0.98564365  0.35860082  0.10210616  1  0  -0.208169  0  3.757261  0  -0.027674  0  -0.1883  0  3.993038  0  0  -0.200902  0  4.015663  0  0  -0.036123  -0.18023  0  3.978017  0
C  C54  1  0.51434506  0.85857978  0.89789132  1  0  -0.207987  0  3.757348  0  -0.028579  0  -0.188088  0  3.993085  0  0  -0.200695  0  4.01572  0  0  -0.036002  -0.179941  0  3.977969  0
C  C55  1  0.48565566  0.64142485  0.39789293  1  0  -0.207917  0  3.7574  0  -0.028607  0  -0.188038  0  3.993173  0  0  -0.200648  0  4.01581  0  0  -0.035997  -0.179896  0  3.97805  0
C  C56  1  0.93764580  0.99473086  0.36476742  1  0  0.327861  0  3.807838  0  0.449419  0  0.315496  0  4.059189  0  0  0.329782  0  4.074168  0  0  0.086849  0.305769  0  4.048895  0
C  C57  1  0.06234753  0.50526841  0.86476923  1  0  0.327858  0  3.807839  0  0.449608  0  0.315279  0  4.059418  0  0  0.329581  0  4.074407  0  0  0.086756  0.305561  0  4.049109  0
C  C58  1  0.43767530  0.00530051  0.13523053  1  0  0.327529  0  3.807915  0  0.450253  0  0.314863  0  4.059515  0  0  0.329182  0  4.074511  0  0  0.086563  0.305111  0  4.049217  0
C  C59  1  0.56233231  0.49470155  0.63522355  1  0  0.327606  0  3.807671  0  0.449751  0  0.314971  0  4.059236  0  0  0.32929  0  4.074239  0  0  0.086603  0.305206  0  4.048952  0
C  C60  1  0.06233876  0.00525847  0.63523342  1  0  0.3279  0  3.807684  0  0.449248  0  0.315348  0  4.059181  0  0  0.329643  0  4.07417  0  0  0.086794  0.305632  0  4.048873  0
C  C61  1  0.93766296  0.49473112  0.13522796  1  0  0.327999  0  3.807709  0  0.449208  0  0.315398  0  4.059252  0  0  0.329714  0  4.074253  0  0  0.086852  0.305677  0  4.048951  0
C  C62  1  0.56232458  0.99471036  0.86476770  1  0  0.327754  0  3.807852  0  0.450377  0  0.315117  0  4.059409  0  0  0.329435  0  4.074406  0  0  0.086714  0.305367  0  4.049112  0
C  C63  1  0.43767582  0.50529798  0.36477312  1  0  0.32774  0  3.807782  0  0.450191  0  0.315148  0  4.059262  0  0  0.329469  0  4.074256  0  0  0.08669  0.305395  0  4.048959  0
C  C64  1  0.00291595  0.03485561  0.30013865  1  0  -0.227373  0  3.786435  0  -0.020315  0  -0.240247  0  4.029144  0  0  -0.249252  0  4.051648  0  0  -0.111537  -0.234242  0  4.013852  0
C  C65  1  0.99708027  0.46515056  0.80014146  1  0  -0.227359  0  3.786497  0  -0.01986  0  -0.240183  0  4.029201  0  0  -0.249189  0  4.051704  0  0  -0.111588  -0.234188  0  4.013905  0
C  C66  1  0.50293044  0.96517156  0.19986260  1  0  -0.227077  0  3.786621  0  -0.020066  0  -0.239695  0  4.029218  0  0  -0.2487  0  4.051721  0  0  -0.111334  -0.233702  0  4.013931  0
C  C67  1  0.49707545  0.53482814  0.69985585  1  0  -0.226896  0  3.786419  0  -0.019537  0  -0.239683  0  4.029063  0  0  -0.248693  0  4.051574  0  0  -0.11134  -0.233683  0  4.013777  0
C  C68  1  0.99707567  0.96513599  0.69986271  1  0  -0.227458  0  3.786336  0  -0.01999  0  -0.240233  0  4.029066  0  0  -0.249242  0  4.051575  0  0  -0.111555  -0.234233  0  4.013767  0
C  C69  1  0.00292669  0.53485351  0.19985782  1  0  -0.227296  0  3.786327  0  -0.019448  0  -0.240139  0  4.029034  0  0  -0.249149  0  4.051541  0  0  -0.111556  -0.234142  0  4.013746  0
C  C70  1  0.49706590  0.03483478  0.80013980  1  0  -0.227111  0  3.786643  0  -0.020375  0  -0.239832  0  4.029372  0  0  -0.248841  0  4.051878  0  0  -0.111354  -0.233846  0  4.014091  0
C  C71  1  0.50293386  0.46516459  0.30014134  1  0  -0.227159  0  3.78624  0  -0.019591  0  -0.239912  0  4.028992  0  0  -0.24892  0  4.051494  0  0  -0.111421  -0.233908  0  4.013699  0
C  C72  1  0.11663976  0.94288767  0.26922612  1  0  -0.085335  0  3.869124  0  -0.160821  0  -0.095456  0  4.114489  0  0  -0.094129  0  4.13718  0  0  -0.095472  -0.09584  0  4.098681  0
C  C73  1  0.88336444  0.55710685  0.76922584  1  0  -0.085356  0  3.868949  0  -0.16222  0  -0.095484  0  4.114308  0  0  -0.094156  0  4.137  0  0  -0.095494  -0.095857  0  4.098489  0
C  C74  1  0.61664505  0.05713448  0.23077796  1  0  -0.08552  0  3.869361  0  -0.16159  0  -0.095637  0  4.114748  0  0  -0.09431  0  4.13743  0  0  -0.095536  -0.096015  0  4.098934  0
C  C75  1  0.38336112  0.44287008  0.73076759  1  0  -0.085457  0  3.869162  0  -0.161525  0  -0.095602  0  4.114591  0  0  -0.094278  0  4.137287  0  0  -0.09546  -0.095978  0  4.098769  0
C  C76  1  0.88335776  0.05710393  0.73077784  1  0  -0.085193  0  3.86882  0  -0.162033  0  -0.095326  0  4.114168  0  0  -0.094  0  4.136862  0  0  -0.095406  -0.095707  0  4.09836  0
C  C77  1  0.11664016  0.44289382  0.23077395  1  0  -0.085357  0  3.869012  0  -0.16229  0  -0.095487  0  4.114379  0  0  -0.094161  0  4.137074  0  0  -0.095477  -0.095865  0  4.09856  0
C  C78  1  0.38335247  0.94287753  0.76922288  1  0  -0.085484  0  3.869261  0  -0.16108  0  -0.09558  0  4.114612  0  0  -0.094254  0  4.137308  0  0  -0.095518  -0.095955  0  4.098786  0
C  C79  1  0.61665173  0.55712832  0.26922752  1  0  -0.085552  0  3.869268  0  -0.16108  0  -0.095668  0  4.114628  0  0  -0.094343  0  4.137325  0  0  -0.095531  -0.096048  0  4.098816  0
C  C80  1  0.16790242  0.81020054  0.30235401  1  0  -0.131153  0  3.832716  0  -0.029329  0  -0.142616  0  4.082948  0  0  -0.149029  0  4.106559  0  0  -0.11179  -0.138403  0  4.066744  0
C  C81  1  0.83209502  0.68980500  0.80235598  1  0  -0.131111  0  3.832833  0  -0.020144  0  -0.142541  0  4.083012  0  0  -0.148953  0  4.106617  0  0  -0.111736  -0.138332  0  4.066813  0
C  C82  1  0.66791339  0.18982377  0.19765173  1  0  -0.131148  0  3.832985  0  -0.020405  0  -0.142622  0  4.083115  0  0  -0.149015  0  4.10673  0  0  -0.111794  -0.138411  0  4.066918  0
C  C83  1  0.33208893  0.31018337  0.69764725  1  0  -0.131098  0  3.83283  0  -0.020699  0  -0.142513  0  4.082913  0  0  -0.148925  0  4.106516  0  0  -0.11178  -0.138302  0  4.066712  0
C  C84  1  0.83209156  0.18979333  0.69764787  1  0  -0.130988  0  3.832784  0  -0.029401  0  -0.142437  0  4.083082  0  0  -0.148851  0  4.106699  0  0  -0.111707  -0.138226  0  4.066886  0
C  C85  1  0.16791076  0.31019907  0.19764747  1  0  -0.131073  0  3.832819  0  -0.020166  0  -0.142476  0  4.082953  0  0  -0.148886  0  4.106559  0  0  -0.111692  -0.138253  0  4.066736  0
C  C86  1  0.33208649  0.81018257  0.80234754  1  0  -0.131113  0  3.832915  0  -0.020641  0  -0.142545  0  4.083039  0  0  -0.148959  0  4.106645  0  0  -0.111785  -0.138327  0  4.066832  0
C  C87  1  0.66791449  0.68981503  0.30235151  1  0  -0.131024  0  3.833093  0  -0.020687  0  -0.14245  0  4.083199  0  0  -0.148862  0  4.106806  0  0  -0.111781  -0.138243  0  4.067007  0
C  C88  1  0.10105588  0.76900118  0.36588701  1  0  -0.066281  0  3.794699  0  -0.001212  0  -0.088025  0  4.041761  0  0  -0.085927  0  4.063381  0  0  -0.088307  -0.089035  0  4.026979  0
C  C89  1  0.89893510  0.73100035  0.86588539  1  0  -0.066468  0  3.795021  0  -0.010458  0  -0.088267  0  4.042078  0  0  -0.086156  0  4.06371  0  0  -0.08843  -0.08928  0  4.027294  0
C  C90  1  0.60107224  0.23102361  0.13411495  1  0  -0.066682  0  3.794442  0  -0.010614  0  -0.088468  0  4.041544  0  0  -0.086342  0  4.063178  0  0  -0.088443  -0.089498  0  4.026744  0
C  C91  1  0.39892593  0.26897733  0.63411277  1  0  -0.066586  0  3.794663  0  -0.010645  0  -0.08838  0  4.041749  0  0  -0.086253  0  4.063388  0  0  -0.088422  -0.089414  0  4.026949  0
C  C92  1  0.89892749  0.23098815  0.63411591  1  0  -0.066476  0  3.795009  0  -0.001535  0  -0.088336  0  4.042023  0  0  -0.08625  0  4.063672  0  0  -0.088464  -0.089351  0  4.02725  0
C  C93  1  0.10107186  0.26899691  0.13411493  1  0  -0.066526  0  3.794603  0  -0.010602  0  -0.088308  0  4.041671  0  0  -0.086181  0  4.063304  0  0  -0.088522  -0.089322  0  4.026889  0
C  C94  1  0.39892646  0.76898159  0.86588328  1  0  -0.066644  0  3.794674  0  -0.010504  0  -0.088463  0  4.041775  0  0  -0.08634  0  4.063414  0  0  -0.088501  -0.0895  0  4.026977  0
C  C95  1  0.60107985  0.73102561  0.36588338  1  0  -0.066689  0  3.794698  0  -0.010671  0  -0.088504  0  4.041785  0  0  -0.086377  0  4.06342  0  0  -0.088472  -0.089528  0  4.026975  0
C  C96  1  0.91291149  0.81176453  0.46559395  1  0  0.673615  0  3.893791  0  1.610003  0  0.619868  0  4.189228  0  0  0.655333  0  4.180548  0  0  0.211266  0.595803  0  4.194309  0
C  C97  1  0.08708515  0.68824173  0.96559338  1  0  0.673543  0  3.893766  0  1.610028  0  0.619758  0  4.18918  0  0  0.655239  0  4.180503  0  0  0.211245  0.595667  0  4.194291  0
C  C98  1  0.41292940  0.18825950  0.03440864  1  0  0.673791  0  3.893774  0  1.610459  0  0.619984  0  4.189138  0  0  0.655481  0  4.180452  0  0  0.211219  0.595907  0  4.194218  0
C  C99  1  0.58706781  0.31173104  0.53440571  1  0  0.673569  0  3.893887  0  1.610456  0  0.61967  0  4.189392  0  0  0.655167  0  4.180714  0  0  0.211093  0.595588  0  4.194475  0
C  C100  1  0.08707424  0.18823274  0.53440637  1  0  0.673628  0  3.893903  0  1.610669  0  0.619804  0  4.189367  0  0  0.655278  0  4.180678  0  0  0.211235  0.595733  0  4.19447  0
C  C101  1  0.91292062  0.31175327  0.03440746  1  0  0.673589  0  3.893846  0  1.61044  0  0.619779  0  4.189264  0  0  0.655266  0  4.180594  0  0  0.211166  0.5957  0  4.194366  0
C  C102  1  0.58706812  0.81174797  0.96559064  1  0  0.673871  0  3.893744  0  1.611313  0  0.620077  0  4.189099  0  0  0.655573  0  4.180414  0  0  0.211289  0.59599  0  4.194196  0
C  C103  1  0.41293442  0.68826623  0.46559201  1  0  0.67371  0  3.893764  0  1.610469  0  0.619826  0  4.189246  0  0  0.655323  0  4.180567  0  0  0.211157  0.595741  0  4.194333  0
O  O104  1  0.93622247  0.67955968  0.48891027  1  0  -0.656392  0  1.973192  0  -1.223825  0  -0.586415  0  2.21671  0  0  -0.612438  0  2.206562  0  0  -0.312056  -0.567933  0  2.223041  0
O  O105  1  0.06378148  0.82045203  0.98890783  1  0  -0.656382  0  1.973151  0  -1.22382  0  -0.586375  0  2.216635  0  0  -0.612395  0  2.206483  0  0  -0.312041  -0.567884  0  2.222974  0
O  O106  1  0.43623555  0.32048193  0.01109133  1  0  -0.656447  0  1.973103  0  -1.223554  0  -0.586425  0  2.216575  0  0  -0.612445  0  2.20641  0  0  -0.311975  -0.567946  0  2.222913  0
O  O107  1  0.56376145  0.17951224  0.51109121  1  0  -0.656267  0  1.973209  0  -1.223697  0  -0.586264  0  2.216803  0  0  -0.612269  0  2.206617  0  0  -0.311936  -0.567779  0  2.223131  0
O  O108  1  0.06377152  0.32043305  0.51109109  1  0  -0.656315  0  1.97333  0  -1.223911  0  -0.586354  0  2.216896  0  0  -0.612369  0  2.206744  0  0  -0.312013  -0.567875  0  2.223233  0
O  O109  1  0.93621840  0.17954524  0.01109509  1  0  -0.656336  0  1.973369  0  -1.223874  0  -0.586323  0  2.216888  0  0  -0.612334  0  2.206723  0  0  -0.311944  -0.567836  0  2.22322  0
O  O110  1  0.56375726  0.67952667  0.98890691  1  0  -0.656491  0  1.973152  0  -1.224365  0  -0.586482  0  2.216622  0  0  -0.6125  0  2.206458  0  0  -0.312001  -0.568001  0  2.222964  0
O  O111  1  0.43624315  0.82048730  0.48890754  1  0  -0.656381  0  1.973207  0  -1.223657  0  -0.586346  0  2.216761  0  0  -0.612362  0  2.206591  0  0  -0.311954  -0.567863  0  2.223095  0
O  O112  1  0.82597536  0.91264593  0.49566146  1  0  -0.64178  0  2.01511  0  -1.194467  0  -0.571611  0  2.254149  0  0  -0.599701  0  2.244701  0  0  -0.306933  -0.551811  0  2.259939  0
O  O113  1  0.17402511  0.58735663  0.99566230  1  0  -0.641646  0  2.015014  0  -1.194469  0  -0.571565  0  2.254114  0  0  -0.599655  0  2.244661  0  0  -0.306906  -0.551759  0  2.259917  0
O  O114  1  0.32600385  0.08739495  0.00433783  1  0  -0.641864  0  2.015192  0  -1.194896  0  -0.571706  0  2.254363  0  0  -0.5998  0  2.244906  0  0  -0.30705  -0.551896  0  2.260101  0
O  O115  1  0.67400487  0.41259928  0.50433332  1  0  -0.641869  0  2.015171  0  -1.194865  0  -0.571614  0  2.254295  0  0  -0.599725  0  2.244852  0  0  -0.306956  -0.55178  0  2.259998  0
O  O116  1  0.17401391  0.08734226  0.50433938  1  0  -0.641858  0  2.015091  0  -1.194899  0  -0.571681  0  2.254129  0  0  -0.599792  0  2.244726  0  0  -0.306976  -0.551847  0  2.259851  0
O  O117  1  0.82598302  0.41263836  0.00433698  1  0  -0.641665  0  2.01497  0  -1.19483  0  -0.571614  0  2.254131  0  0  -0.599706  0  2.244674  0  0  -0.306927  -0.551792  0  2.259891  0
O  O118  1  0.67399603  0.91261139  0.99566145  1  0  -0.641851  0  2.015242  0  -1.194857  0  -0.571743  0  2.254397  0  0  -0.599842  0  2.244942  0  0  -0.30706  -0.551905  0  2.260092  0
O  O119  1  0.32599619  0.58739912  0.49566388  1  0  -0.641909  0  2.015177  0  -1.194805  0  -0.571652  0  2.254299  0  0  -0.599752  0  2.24485  0  0  -0.306998  -0.551834  0  2.260035  0
O  O120  1  0.82734755  0.08586879  0.39398607  1  0  -0.566754  0  2.144209  0  -1.207632  0  -0.506412  0  2.371564  0  0  -0.528821  0  2.362547  0  0  -0.342594  -0.490293  0  2.377244  0
O  O121  1  0.17264957  0.41413309  0.89399357  1  0  -0.566796  0  2.144355  0  -1.207475  0  -0.506467  0  2.371841  0  0  -0.528848  0  2.362759  0  0  -0.342531  -0.490346  0  2.377524  0
O  O122  1  0.32738272  0.91416186  0.10600436  1  0  -0.566705  0  2.144257  0  -1.206072  0  -0.506283  0  2.371935  0  0  -0.528655  0  2.362831  0  0  -0.342439  -0.490171  0  2.37762  0
O  O123  1  0.67262935  0.58583307  0.60599631  1  0  -0.566703  0  2.144082  0  -1.205968  0  -0.506353  0  2.371788  0  0  -0.52871  0  2.362643  0  0  -0.342536  -0.490234  0  2.377482  0
O  O124  1  0.17263818  0.91412281  0.60601373  1  0  -0.56681  0  2.144243  0  -1.207625  0  -0.506461  0  2.371708  0  0  -0.528839  0  2.362624  0  0  -0.342671  -0.490346  0  2.377388  0
O  O125  1  0.82736092  0.58586645  0.10600414  1  0  -0.566776  0  2.144216  0  -1.207384  0  -0.50646  0  2.371724  0  0  -0.528825  0  2.362598  0  0  -0.342603  -0.490338  0  2.377401  0
O  O126  1  0.67262070  0.08584675  0.89399439  1  0  -0.56674  0  2.144085  0  -1.20625  0  -0.506395  0  2.371696  0  0  -0.528749  0  2.362556  0  0  -0.342505  -0.490283  0  2.377378  0
O  O127  1  0.32737878  0.41416420  0.39400036  1  0  -0.566692  0  2.144152  0  -1.205824  0  -0.506319  0  2.37181  0  0  -0.528688  0  2.362698  0  0  -0.342453  -0.490204  0  2.377494  0
