# generated using pymatgen
data_CoH13C16N2O4F3
_symmetry_space_group_name_H-M   'P 1'
_cell_length_a   8.01789436
_cell_length_b   9.17390281
_cell_length_c   11.56971125
_cell_angle_alpha   99.04443875
_cell_angle_beta   97.40260626
_cell_angle_gamma   101.55137144
_symmetry_Int_Tables_number   1
_chemical_formula_structural   CoH13C16N2O4F3
_chemical_formula_sum   'Co2 H26 C32 N4 O8 F6'
_cell_volume   812.02929339
_cell_formula_units_Z   2
loop_
 _symmetry_equiv_pos_site_id
 _symmetry_equiv_pos_as_xyz
  1  'x, y, z'
loop_
 _atom_site_type_symbol
 _atom_site_label
 _atom_site_symmetry_multiplicity
 _atom_site_fract_x
 _atom_site_fract_y
 _atom_site_fract_z
 _atom_site_occupancy
 _atom_site_pbe_cm5_charge
 _atom_site_pbe_ddec_charge
 _atom_site_pbe_ddec_spin_density
 _atom_site_pbe_ddec_sum_bond_order
 _atom_site_pbe_magmom
Co  Co0  1  0.65053943  0.95919550  0.12978596  1  0.670263  0.848436  -2.83537  2.500233  -2.545
Co  Co1  1  0.34937396  0.04090924  0.87026397  1  0.670431  0.849299  2.835548  2.498435  2.546
H  H2  1  0.48324248  0.63915656  0.00541211  1  0.114828  0.08213  -0.000338  1.02517  -0.001
H  H3  1  0.51659598  0.36084697  0.99457148  1  0.114865  0.082414  0.000339  1.025082  0.001
H  H4  1  0.48005657  0.46606732  0.81780459  1  0.107103  0.126353  -0.000248  1.034484  0.0
H  H5  1  0.51984847  0.53392735  0.18221087  1  0.10714  0.126319  0.000249  1.034135  0.0
H  H6  1  0.89397727  0.80975214  0.74953721  1  0.107572  0.125217  -0.000319  1.02365  0.0
H  H7  1  0.10599426  0.19021999  0.25052567  1  0.107458  0.125127  0.000321  1.023464  0.0
H  H8  1  0.87739673  0.96577698  0.93785095  1  0.117754  0.087488  -0.00044  1.020058  -0.001
H  H9  1  0.12253867  0.03418759  0.06222318  1  0.117686  0.087419  0.000442  1.02019  0.001
H  H10  1  0.41289099  0.96098173  0.31147755  1  0.115047  0.095912  -0.000373  1.013495  -0.001
H  H11  1  0.58731996  0.03898543  0.68853693  1  0.114967  0.095716  0.000374  1.013757  0.001
H  H12  1  0.38347256  0.12725218  0.49675887  1  0.102981  0.115799  -0.000387  1.019753  0.0
H  H13  1  0.61657544  0.87268863  0.50321470  1  0.102977  0.115729  0.000387  1.019895  0.0
H  H14  1  0.83156104  0.44752417  0.44654333  1  0.098916  0.104642  -0.000309  1.033955  0.0
H  H15  1  0.16841139  0.55257536  0.55349933  1  0.098983  0.104724  0.000309  1.033919  0.0
H  H16  1  0.83981661  0.26835332  0.26444954  1  0.115834  0.091447  -0.000219  1.014098  -0.001
H  H17  1  0.16023855  0.73180440  0.73557440  1  0.115855  0.091371  0.000214  1.014348  0.001
H  H18  1  0.79950468  0.58143965  0.60636691  1  0.099111  0.099119  -6.1e-05  1.015509  0.0
H  H19  1  0.20045339  0.41857023  0.39367526  1  0.099075  0.099128  6.1e-05  1.015347  0.0
H  H20  1  0.49000164  0.34490607  0.64682614  1  0.103432  0.116439  6.9e-05  1.032173  0.0
H  H21  1  0.50997159  0.65506620  0.35318506  1  0.103468  0.11648  -6.9e-05  1.032395  0.0
H  H22  1  0.82683990  0.35931241  0.87218001  1  0.092366  0.150788  -0.000653  1.013469  -0.001
H  H23  1  0.17332828  0.64068255  0.12783400  1  0.092351  0.150924  0.000653  1.013302  0.001
H  H24  1  0.98578534  0.27356474  0.94079505  1  0.09868  0.160232  -0.000411  1.003749  0.0
H  H25  1  0.01428255  0.72634946  0.05925049  1  0.098603  0.160277  0.000409  1.003568  0.0
H  H26  1  0.89970533  0.40473894  0.03008917  1  0.100575  0.160709  0.00068  0.99059  0.001
H  H27  1  0.10034929  0.59517208  0.96993314  1  0.10064  0.160897  -0.000686  0.990356  -0.001
C  C28  1  0.57131540  0.67242932  0.94515758  1  0.036528  0.08915  0.003197  3.966765  0.004
C  C29  1  0.42856367  0.32757594  0.05484555  1  0.036651  0.088764  -0.003183  3.967529  -0.004
C  C30  1  0.57104074  0.57588448  0.84029374  1  -0.084071  -0.17354  -0.001978  3.904071  -0.003
C  C31  1  0.42887592  0.42410209  0.15972351  1  -0.084013  -0.173207  0.001974  3.903507  0.003
C  C32  1  0.68760475  0.62191758  0.76442005  1  0.005465  0.144786  0.005325  4.023385  0.006
C  C33  1  0.31232491  0.37806194  0.23561999  1  0.005524  0.144616  -0.005314  4.023693  -0.006
C  C34  1  0.80006326  0.76511023  0.80255712  1  -0.080041  -0.165306  -0.001844  3.900861  -0.003
C  C35  1  0.19988826  0.23487127  0.19749470  1  -0.080143  -0.165646  0.001848  3.901191  0.003
C  C36  1  0.79087107  0.85467315  0.90873772  1  0.044691  0.105643  0.004016  3.942707  0.006
C  C37  1  0.20904665  0.14530422  0.09130699  1  0.045191  0.106585  -0.003999  3.9419  -0.006
C  C38  1  0.50308705  0.06954989  0.34566895  1  0.043348  0.096315  0.003381  3.949346  0.005
C  C39  1  0.49705626  0.93045102  0.65435386  1  0.043224  0.096393  -0.003377  3.949595  -0.005
C  C40  1  0.48755477  0.16311156  0.44841162  1  -0.084022  -0.175438  -0.001642  3.928305  -0.003
C  C41  1  0.51251541  0.83687438  0.55158869  1  -0.084064  -0.175339  0.001657  3.927997  0.003
C  C42  1  0.60675886  0.30222695  0.49062379  1  0.002273  0.143055  0.00452  4.031226  0.005
C  C43  1  0.39325113  0.69778806  0.50939618  1  0.0024  0.143145  -0.00453  4.031089  -0.005
C  C44  1  0.73558425  0.34087955  0.42152623  1  -0.089781  -0.182539  -0.001962  3.94933  -0.003
C  C45  1  0.26443578  0.65919103  0.57850252  1  -0.089902  -0.18259  0.001969  3.949472  0.003
C  C46  1  0.74220904  0.24154195  0.31990609  1  0.03772  0.090841  0.002556  3.957272  0.004
C  C47  1  0.25786230  0.75855530  0.68012472  1  0.037906  0.091245  -0.002576  3.957111  -0.004
C  C48  1  0.69771854  0.53082807  0.65195595  1  -0.084146  -0.120396  0.002445  3.964222  0.002
C  C49  1  0.30223396  0.46916596  0.34808457  1  -0.084188  -0.120417  -0.00245  3.9649  -0.002
C  C50  1  0.59328302  0.39436661  0.60185467  1  -0.081263  -0.116214  0.003448  3.929689  0.003
C  C51  1  0.40668322  0.60561255  0.39816280  1  -0.081405  -0.116412  -0.003434  3.930313  -0.003
C  C52  1  0.84747150  0.84408887  0.26688596  1  0.185798  0.39104  0.001463  4.344916  0.005
C  C53  1  0.15256875  0.15592837  0.73304030  1  0.185776  0.390084  -0.001481  4.345622  -0.005
C  C54  1  0.96513694  0.78560278  0.35779978  1  0.299925  0.593106  -0.001799  4.001846  -0.002
C  C55  1  0.03486687  0.21439664  0.64214160  1  0.300043  0.593038  0.001803  4.002438  0.002
C  C56  1  0.72969887  0.18691207  0.97006632  1  0.220557  0.682935  -0.000977  4.128879  0.0
C  C57  1  0.27028979  0.81305004  0.02986811  1  0.220582  0.683128  0.000938  4.128414  0.0
C  C58  1  0.86785783  0.31479223  0.95089398  1  -0.247358  -0.529576  -0.000275  3.88196  0.0
C  C59  1  0.13221873  0.68515268  0.04911214  1  -0.247314  -0.529895  0.000268  3.881566  0.0
N  N60  1  0.67708475  0.81174750  0.98000871  1  -0.33503  -0.27936  -0.023769  3.617349  -0.039
N  N61  1  0.32278509  0.18825668  0.02000985  1  -0.335351  -0.279819  0.023848  3.618129  0.039
N  N62  1  0.62914462  0.10623887  0.28182425  1  -0.331696  -0.24886  -0.028658  3.572523  -0.046
N  N63  1  0.37101406  0.89381867  0.71820883  1  -0.33144  -0.249016  0.028691  3.571738  0.046
O  O64  1  0.69040777  0.77645060  0.24348515  1  -0.296694  -0.500238  -0.028508  2.275619  -0.045
O  O65  1  0.30945639  0.22403580  0.75685964  1  -0.296841  -0.500091  0.028488  2.276278  0.045
O  O66  1  0.91433873  0.95485972  0.22320355  1  -0.292405  -0.485855  -0.033839  2.289337  -0.054
O  O67  1  0.08589301  0.04466097  0.77627624  1  -0.292145  -0.485095  0.033921  2.289035  0.054
O  O68  1  0.75302890  0.14271992  0.06893380  1  -0.311291  -0.564465  -0.046656  2.417688  -0.069
O  O69  1  0.24685339  0.85720256  0.93098750  1  -0.311307  -0.564777  0.046411  2.416844  0.069
O  O70  1  0.60052334  0.13127596  0.88826425  1  -0.307881  -0.560528  0.04404  2.441438  0.065
O  O71  1  0.39946323  0.86877036  0.11165290  1  -0.307729  -0.560235  -0.044127  2.442199  -0.065
F  F72  1  0.90240277  0.78670506  0.46251121  1  -0.103025  -0.208706  -0.000282  1.316942  0.0
F  F73  1  0.09759749  0.21327627  0.53741461  1  -0.103109  -0.208842  0.000282  1.316914  0.0
F  F74  1  0.12939368  0.86949874  0.38342606  1  -0.090182  -0.186259  -0.000665  1.364619  -0.001
F  F75  1  0.87062019  0.13048235  0.61652174  1  -0.090143  -0.186102  0.000667  1.365141  0.001
F  F76  1  0.97172875  0.63893345  0.31587456  1  -0.102214  -0.204838  -4.4e-05  1.310039  0.0
F  F77  1  0.02825338  0.36105951  0.68403720  1  -0.102365  -0.204801  4.5e-05  1.310207  0.0
