# generated using pymatgen
data_Cu2H24C19(NO)6
_symmetry_space_group_name_H-M   'P 1'
_cell_length_a   13.31912516
_cell_length_b   13.95743098
_cell_length_c   16.31960357
_cell_angle_alpha   90.00004175
_cell_angle_beta   89.99993425
_cell_angle_gamma   89.99971047
_symmetry_Int_Tables_number   1
_chemical_formula_structural   Cu2H24C19(NO)6
_chemical_formula_sum   'Cu8 H96 C76 N24 O24'
_cell_volume   3033.82687159
_cell_formula_units_Z   4
loop_
 _symmetry_equiv_pos_site_id
 _symmetry_equiv_pos_as_xyz
  1  'x, y, z'
loop_
 _atom_site_type_symbol
 _atom_site_label
 _atom_site_symmetry_multiplicity
 _atom_site_fract_x
 _atom_site_fract_y
 _atom_site_fract_z
 _atom_site_occupancy
 _atom_site_pbe_bader_charge
 _atom_site_pbe_bader_spin_density
 _atom_site_pbe_cm5_charge
 _atom_site_pbe_ddec_charge
 _atom_site_pbe_ddec_spin_density
 _atom_site_pbe_ddec_sum_bond_order
 _atom_site_pbe_magmom
Cu  Cu0  1  0.93880344  0.53010536  0.08896452  1  1.023059  0.46152  0.723147  0.704074  0.588029  2.343087  0.46
Cu  Cu1  1  0.56118910  0.46989052  0.58896579  1  1.022928  0.461553  0.723128  0.704019  0.58808  2.343195  0.46
Cu  Cu2  1  0.43880638  0.96988124  0.91104307  1  1.022819  0.461571  0.723194  0.70405  0.588114  2.343485  0.459
Cu  Cu3  1  0.06119884  0.03011875  0.41103876  1  1.022924  0.46159  0.723222  0.704104  0.588141  2.343504  0.46
Cu  Cu4  1  0.21646021  0.79057340  0.15520797  1  1.032552  -0.45706  0.73758  0.716705  -0.58511  2.366293  -0.455
Cu  Cu5  1  0.28353787  0.20942996  0.65521928  1  1.032336  -0.4571  0.737589  0.716797  -0.585158  2.366211  -0.455
Cu  Cu6  1  0.71646500  0.70942359  0.84478574  1  1.032192  -0.457093  0.737568  0.716732  -0.585138  2.366055  -0.455
Cu  Cu7  1  0.78353843  0.29057895  0.34478752  1  1.032558  -0.457096  0.737597  0.716743  -0.585149  2.366185  -0.455
H  H8  1  0.21615580  0.87181979  0.32436835  1  0.562195  -4.8e-05  0.316988  0.272042  0.000205  1.011319  0.0
H  H9  1  0.28384204  0.12818227  0.82437533  1  0.562097  -4.9e-05  0.316954  0.271993  0.000204  1.011359  0.0
H  H10  1  0.71615750  0.62818651  0.67562719  1  0.56202  -4.9e-05  0.316985  0.272028  0.000204  1.011357  0.0
H  H11  1  0.78384692  0.37181589  0.17562535  1  0.562017  -4.9e-05  0.316975  0.271983  0.000204  1.011393  0.0
H  H12  1  0.63556878  0.45201234  0.41864176  1  0.552249  0.000118  0.319383  0.276982  -0.000109  1.000959  0.0
H  H13  1  0.86443154  0.54798811  0.91863484  1  0.552282  0.000118  0.319404  0.277008  -0.000109  1.000946  0.0
H  H14  1  0.13558944  0.04799370  0.58136273  1  0.551937  0.000117  0.319334  0.276995  -0.000109  1.000954  0.0
H  H15  1  0.36441100  0.95200530  0.08136424  1  0.551954  0.000117  0.31935  0.277033  -0.000109  1.000842  0.0
H  H16  1  0.14926691  0.75176588  0.93501614  1  0.058781  -0.002918  0.114288  0.081254  -0.001471  0.949998  -0.002
H  H17  1  0.35072477  0.24824917  0.43502335  1  0.058705  -0.002917  0.114297  0.081353  -0.001471  0.950033  -0.002
H  H18  1  0.64925908  0.74821997  0.06498620  1  0.058741  -0.002918  0.114255  0.081239  -0.001471  0.950183  -0.002
H  H19  1  0.85073499  0.25177374  0.56498890  1  0.058916  -0.002918  0.114244  0.081225  -0.001471  0.950115  -0.002
H  H20  1  0.99403383  0.84397066  0.97606090  1  0.076765  7.6e-05  0.094604  0.137124  5.1e-05  0.996651  0.0
H  H21  1  0.50596716  0.15604489  0.47606346  1  0.076786  7.6e-05  0.094596  0.137136  5.1e-05  0.996597  0.0
H  H22  1  0.49404571  0.65599776  0.02393316  1  0.028249  7.7e-05  0.094584  0.137129  5.1e-05  0.996762  0.0
H  H23  1  0.00595481  0.34399546  0.52393992  1  0.028207  7.7e-05  0.094594  0.137149  5.1e-05  0.996747  0.0
H  H24  1  0.07999916  0.91857539  0.92089946  1  0.061611  -0.000211  0.090169  0.12298  -0.000128  1.021785  0.0
H  H25  1  0.41999854  0.08144108  0.42089915  1  0.061434  -0.000211  0.090218  0.123032  -0.000128  1.021681  0.0
H  H26  1  0.58002073  0.58139073  0.07908272  1  0.061278  -0.000211  0.090116  0.122857  -0.000128  1.021826  0.0
H  H27  1  0.91997707  0.41859583  0.57908976  1  0.06113  -0.000211  0.0901  0.122836  -0.000128  1.021911  0.0
H  H28  1  0.07091735  0.92701571  0.03029144  1  0.067364  0.000159  0.090688  0.13169  0.000151  1.018543  0.0
H  H29  1  0.42908467  0.07298826  0.53029273  1  0.067482  0.000159  0.090721  0.131748  0.000151  1.018451  0.0
H  H30  1  0.57094220  0.57297481  0.96969014  1  0.06704  0.000159  0.090644  0.131484  0.000151  1.018576  0.0
H  H31  1  0.92905805  0.42702496  0.46969800  1  0.066761  0.000159  0.090663  0.131548  0.000151  1.018583  0.0
H  H32  1  0.60111602  0.78081859  0.31230290  1  0.024031  0.000252  0.098217  0.09432  0.000132  0.981428  0.0
H  H33  1  0.89888145  0.21918321  0.81229757  1  0.02212  0.000252  0.09828  0.094417  0.000132  0.981413  0.0
H  H34  1  0.10111311  0.71918683  0.68768784  1  0.024057  0.000252  0.098231  0.094344  0.000132  0.981441  0.0
H  H35  1  0.39889169  0.28081011  0.18769013  1  0.024075  0.000252  0.098219  0.094339  0.000132  0.981462  0.0
H  H36  1  0.56749651  0.82475731  0.40924524  1  0.018308  -0.000247  0.09748  0.092917  -0.000127  0.980616  0.0
H  H37  1  0.93249407  0.17524098  0.90924536  1  0.018076  -0.000247  0.097475  0.092894  -0.000127  0.980672  0.0
H  H38  1  0.06749847  0.67525186  0.59074186  1  0.018753  -0.000247  0.097523  0.092963  -0.000127  0.980668  0.0
H  H39  1  0.43250421  0.32474500  0.09074353  1  0.018632  -0.000247  0.097504  0.09294  -0.000127  0.980685  0.0
H  H40  1  0.53945362  0.67775333  0.61086836  1  0.096551  -0.000175  0.097321  0.143198  -0.000125  1.040202  0.0
H  H41  1  0.96053212  0.32223898  0.11086387  1  0.096684  -0.000174  0.097382  0.143295  -0.000124  1.040092  0.0
H  H42  1  0.03945209  0.82225955  0.38912673  1  0.096346  -0.000174  0.097345  0.143199  -0.000124  1.040134  0.0
H  H43  1  0.46054491  0.17774257  0.88912929  1  0.096406  -0.000174  0.097366  0.143235  -0.000124  1.040115  0.0
H  H44  1  0.43187744  0.71046661  0.55304471  1  0.018366  -0.000174  0.095045  0.131978  -8.9e-05  1.003075  0.0
H  H45  1  0.06811778  0.28953523  0.05304547  1  0.018598  -0.000173  0.095043  0.132029  -8.9e-05  1.003025  0.0
H  H46  1  0.93187486  0.78955298  0.44695860  1  0.018487  -0.000174  0.095054  0.132008  -8.9e-05  1.002992  0.0
H  H47  1  0.56812617  0.21044678  0.94695724  1  0.018452  -0.000173  0.095066  0.13204  -8.9e-05  1.002966  0.0
H  H48  1  0.54198059  0.78108894  0.54732641  1  0.056688  -0.000128  0.095127  0.132708  -6.2e-05  0.998101  0.0
H  H49  1  0.95801876  0.21890619  0.04732002  1  0.05661  -0.000128  0.095098  0.132669  -6.2e-05  0.998115  0.0
H  H50  1  0.04197501  0.71892824  0.45267297  1  0.056924  -0.000128  0.09514  0.132742  -6.1e-05  0.998037  0.0
H  H51  1  0.45802265  0.28107466  0.95267192  1  0.056912  -0.000128  0.095173  0.132785  -6.1e-05  0.998006  0.0
H  H52  1  0.42989476  0.75972335  0.12199872  1  0.069389  0.000259  0.098323  0.144234  0.000223  1.033352  0.0
H  H53  1  0.07009361  0.24026135  0.62199677  1  0.069549  0.000259  0.098298  0.144217  0.000223  1.033316  0.0
H  H54  1  0.92990008  0.74027046  0.87799172  1  0.069625  0.000259  0.098314  0.14426  0.000223  1.033406  0.0
H  H55  1  0.57010706  0.25972710  0.37799246  1  0.069704  0.000259  0.098336  0.144284  0.000223  1.033346  0.0
H  H56  1  0.45737353  0.65443101  0.17930092  1  0.030705  0.000203  0.095358  0.131648  0.000106  1.003433  0.0
H  H57  1  0.04262452  0.34555733  0.67929662  1  0.030884  0.000203  0.095338  0.131656  0.000106  1.003589  0.0
H  H58  1  0.95737387  0.84557198  0.82069930  1  0.030699  0.000202  0.09534  0.131563  0.000105  1.003452  0.0
H  H59  1  0.54262960  0.15442767  0.32069877  1  0.03066  0.000203  0.095326  0.131576  0.000105  1.003428  0.0
H  H60  1  0.54208454  0.75216154  0.18030216  1  0.030523  2.6e-05  0.094487  0.131148  -1.2e-05  1.00758  0.0
H  H61  1  0.95791237  0.24783513  0.68030906  1  0.030473  2.6e-05  0.094484  0.131188  -1.2e-05  1.007509  0.0
H  H62  1  0.04208428  0.74784130  0.81968312  1  0.030407  2.6e-05  0.094528  0.131188  -1.2e-05  1.00754  0.0
H  H63  1  0.45791957  0.25216148  0.31968656  1  0.030633  2.6e-05  0.094543  0.131231  -1.2e-05  1.007489  0.0
H  H64  1  0.29828406  0.93174902  0.45830847  1  0.088127  2.5e-05  0.102103  0.151152  2.7e-05  0.99924  0.0
H  H65  1  0.20171358  0.06824958  0.95831487  1  0.08806  2.5e-05  0.102126  0.151144  2.7e-05  0.999201  0.0
H  H66  1  0.79828027  0.56825689  0.54168393  1  0.088167  2.4e-05  0.10213  0.151158  2.7e-05  0.999251  0.0
H  H67  1  0.70171459  0.43174182  0.04168036  1  0.088185  2.4e-05  0.102113  0.151134  2.7e-05  0.999299  0.0
H  H68  1  0.42052342  0.89047037  0.48442852  1  0.035921  -0.000103  0.096958  0.132242  -4.9e-05  1.014264  0.0
H  H69  1  0.07947269  0.10953040  0.98443322  1  0.035833  -0.000103  0.096951  0.132174  -4.9e-05  1.014264  0.0
H  H70  1  0.92051944  0.60953280  0.51556131  1  0.035903  -0.000103  0.096969  0.132236  -4.9e-05  1.014243  0.0
H  H71  1  0.57947996  0.39046373  0.01555967  1  0.035778  -0.000103  0.096933  0.132186  -4.9e-05  1.014315  0.0
H  H72  1  0.31488228  0.81463432  0.49825180  1  0.043774  0.000134  0.096892  0.135124  6.8e-05  0.995344  0.0
H  H73  1  0.18511155  0.18536431  0.99825523  1  0.043787  0.000134  0.096885  0.135067  6.8e-05  0.995348  0.0
H  H74  1  0.81487792  0.68536649  0.50174181  1  0.043659  0.000134  0.096919  0.135122  6.8e-05  0.99542  0.0
H  H75  1  0.68512525  0.31463648  0.00174125  1  0.043643  0.000134  0.096901  0.135059  6.8e-05  0.995439  0.0
H  H76  1  0.69121802  0.51330351  0.27491339  1  0.051189  -6.2e-05  0.100435  0.147008  -5.7e-05  1.010258  0.0
H  H77  1  0.80878251  0.48669180  0.77490341  1  0.051112  -6.2e-05  0.100388  0.146921  -5.7e-05  1.010256  0.0
H  H78  1  0.19122490  0.98668858  0.72509872  1  0.051003  -6.2e-05  0.100401  0.146927  -5.7e-05  1.010193  0.0
H  H79  1  0.30878660  0.01330982  0.22510459  1  0.051602  -6.2e-05  0.100413  0.146919  -5.7e-05  1.010259  0.0
H  H80  1  0.65874863  0.63141342  0.24433855  1  0.048324  -4.2e-05  0.096829  0.133589  -6.7e-05  1.012719  0.0
H  H81  1  0.84125870  0.36857900  0.74433337  1  0.048283  -4.2e-05  0.096796  0.133612  -6.7e-05  1.012702  0.0
H  H82  1  0.15874558  0.86857095  0.75565643  1  0.048516  -4.2e-05  0.096819  0.13366  -6.7e-05  1.01271  0.0
H  H83  1  0.34126663  0.13142103  0.25566173  1  0.048461  -4.2e-05  0.096844  0.133633  -6.7e-05  1.012638  0.0
H  H84  1  0.56794561  0.53859928  0.24022572  1  0.055243  -0.000132  0.095753  0.13319  -6.3e-05  0.995657  0.0
H  H85  1  0.93205947  0.46139601  0.74021868  1  0.055383  -0.000132  0.095731  0.13316  -6.3e-05  0.995758  0.0
H  H86  1  0.06794132  0.96138553  0.75977363  1  0.055424  -0.000133  0.095717  0.133156  -6.3e-05  0.99583  0.0
H  H87  1  0.43206788  0.03860789  0.25977451  1  0.055211  -0.000133  0.095691  0.133132  -6.3e-05  0.995827  0.0
H  H88  1  0.03286687  0.54441614  0.30170479  1  0.067941  0.002581  0.118158  0.087479  0.001288  0.925879  0.001
H  H89  1  0.46714227  0.45558448  0.80171181  1  0.068197  0.002581  0.118158  0.087511  0.001288  0.925898  0.001
H  H90  1  0.53286605  0.95559965  0.69831175  1  0.067703  0.002581  0.118185  0.087599  0.001287  0.925848  0.001
H  H91  1  0.96713233  0.04441352  0.19831015  1  0.067606  0.00258  0.118212  0.087584  0.001287  0.925852  0.001
H  H92  1  0.95224889  0.70518778  0.31341365  1  0.060801  -0.000127  0.093829  0.13733  -0.000107  1.01567  0.0
H  H93  1  0.54775458  0.29481043  0.81342217  1  0.060068  -0.000127  0.093823  0.137354  -0.000107  1.015654  0.0
H  H94  1  0.45226360  0.79481667  0.68659393  1  0.060613  -0.000128  0.093844  0.137346  -0.000107  1.01566  0.0
H  H95  1  0.04774270  0.20519317  0.18659342  1  0.060638  -0.000128  0.093835  0.137334  -0.000107  1.015554  0.0
H  H96  1  0.87943274  0.61620240  0.36569801  1  0.081703  0.000388  0.090798  0.125881  0.000235  1.026739  0.0
H  H97  1  0.62058042  0.38379299  0.86569488  1  0.082123  0.000388  0.090826  0.125911  0.000235  1.026708  0.0
H  H98  1  0.37945381  0.88380096  0.63430105  1  0.081599  0.000388  0.09077  0.125894  0.000235  1.026764  0.0
H  H99  1  0.12055181  0.11620238  0.13430349  1  0.081567  0.000388  0.090783  0.125887  0.000235  1.026763  0.0
H  H100  1  0.84038209  0.65969470  0.26786479  1  0.051558  2.3e-05  0.091475  0.128335  1e-06  1.004899  0.0
H  H101  1  0.65961695  0.34029989  0.76786527  1  0.05171  2.3e-05  0.09153  0.128435  1e-06  1.004912  0.0
H  H102  1  0.34038222  0.84030527  0.73212758  1  0.051697  2.2e-05  0.091492  0.128335  1e-06  1.004948  0.0
H  H103  1  0.15961950  0.15969601  0.23212816  1  0.051625  2.2e-05  0.091508  0.128343  1e-06  1.00493  0.0
C  C104  1  0.07453307  0.67954038  0.07719507  1  1.383104  -0.001548  0.210958  0.357243  -0.000862  4.220706  -0.003
C  C105  1  0.42546587  0.32047223  0.57720449  1  1.383252  -0.001541  0.211104  0.35744  -0.00086  4.220409  -0.003
C  C106  1  0.57452965  0.82045586  0.92281224  1  1.383102  -0.001542  0.210727  0.356959  -0.000857  4.220887  -0.003
C  C107  1  0.92546766  0.17954245  0.42281505  1  1.382949  -0.001543  0.210801  0.357064  -0.000857  4.220837  -0.003
C  C108  1  0.44349677  0.79100997  0.33160001  1  0.026207  -0.001667  -0.039828  -0.133147  -0.001121  3.971624  -0.001
C  C109  1  0.05649956  0.20898781  0.83160541  1  0.02614  -0.001667  -0.039708  -0.133063  -0.001121  3.971579  -0.001
C  C110  1  0.94349655  0.70900025  0.66838429  1  0.025982  -0.001667  -0.03966  -0.132899  -0.001121  3.971758  -0.001
C  C111  1  0.55650713  0.29099999  0.16838689  1  0.026047  -0.001667  -0.039715  -0.133061  -0.001121  3.97155  -0.001
C  C112  1  0.06770229  0.65503736  0.16727385  1  1.375432  0.000762  0.210373  0.358796  0.000265  4.217353  0.002
C  C113  1  0.43229427  0.34496745  0.66728573  1  1.374841  0.000763  0.210387  0.358897  0.000266  4.217281  0.002
C  C114  1  0.56769587  0.84495103  0.83273225  1  1.375562  0.000761  0.210444  0.358894  0.000271  4.217558  0.002
C  C115  1  0.93230383  0.15504720  0.33273442  1  1.375626  0.00076  0.210384  0.358732  0.000271  4.21767  0.002
C  C116  1  0.90316975  0.47181183  0.25450408  1  1.547454  0.000673  0.217277  0.577149  0.001334  4.111676  0.001
C  C117  1  0.59684357  0.52818562  0.75450842  1  1.547761  0.000675  0.2173  0.577239  0.001335  4.111776  0.001
C  C118  1  0.40316326  0.02819077  0.74551119  1  1.547538  0.000674  0.217303  0.57707  0.001336  4.111817  0.001
C  C119  1  0.09683620  0.97180693  0.24550194  1  1.547655  0.000676  0.217406  0.577332  0.001337  4.111984  0.001
C  C120  1  0.25260597  0.85114354  0.99143294  1  1.573466  -0.000555  0.217237  0.582303  -0.001334  4.100321  -0.001
C  C121  1  0.24738487  0.14886511  0.49144202  1  1.573298  -0.000555  0.217244  0.58251  -0.001333  4.099959  -0.001
C  C122  1  0.75262579  0.64886402  0.00856502  1  1.574617  -0.000552  0.21725  0.582429  -0.001332  4.099774  -0.001
C  C123  1  0.74737137  0.35113824  0.50857033  1  1.574152  -0.000553  0.217225  0.582255  -0.001333  4.100164  -0.001
C  C124  1  0.15012415  0.80118689  0.98762834  1  0.33061  -0.00105  0.006858  0.071299  -0.001045  3.903806  0.001
C  C125  1  0.34987120  0.19882463  0.48763430  1  0.330737  -0.00105  0.006955  0.071156  -0.001045  3.903978  0.001
C  C126  1  0.65012868  0.69880970  0.01236848  1  0.330554  -0.001049  0.007016  0.07121  -0.001043  3.903591  0.001
C  C127  1  0.84986622  0.30118898  0.51237367  1  0.330321  -0.00105  0.006988  0.071202  -0.001044  3.903424  0.001
C  C128  1  0.06813509  0.87806656  0.97768025  1  -0.12536  -0.000456  -0.240372  -0.399836  -0.000284  3.885884  0.0
C  C129  1  0.43186178  0.12194495  0.47768362  1  -0.125186  -0.000456  -0.240537  -0.400013  -0.000284  3.885766  0.0
C  C130  1  0.56815728  0.62191466  0.02231053  1  -0.076288  -0.000458  -0.240374  -0.399558  -0.000284  3.885856  0.0
C  C131  1  0.93184436  0.37808259  0.52231446  1  -0.07577  -0.000458  -0.240406  -0.399631  -0.000284  3.885839  0.0
C  C132  1  0.54771686  0.77035263  0.36306028  1  0.03748  4e-06  -0.145989  -0.144733  1e-06  4.024278  0.0
C  C133  1  0.95227228  0.22964276  0.86305920  1  0.039443  4e-06  -0.146099  -0.144867  0.0  4.024376  0.0
C  C134  1  0.04772072  0.72965162  0.63692928  1  0.037085  3e-06  -0.146114  -0.144891  0.0  4.024754  0.0
C  C135  1  0.45228340  0.27034743  0.13693213  1  0.037307  4e-06  -0.146065  -0.144828  0.0  4.024599  0.0
C  C136  1  0.40875810  0.77471762  0.25087380  1  0.457871  -0.000144  0.093926  0.205699  -0.000503  4.020191  -0.001
C  C137  1  0.09123759  0.22527794  0.75087795  1  0.457953  -0.000144  0.093813  0.205546  -0.000503  4.020055  -0.001
C  C138  1  0.90875993  0.72529205  0.74911298  1  0.457403  -0.000144  0.093742  0.205444  -0.000503  4.020128  -0.001
C  C139  1  0.59124288  0.27471041  0.24911616  1  0.457427  -0.000144  0.093814  0.205521  -0.000503  4.019884  -0.001
C  C140  1  0.36183736  0.83236449  0.37290438  1  0.38078  0.000892  0.099316  0.197129  0.000399  3.982848  0.0
C  C141  1  0.13815816  0.16763546  0.87291090  1  0.381069  0.000892  0.099419  0.197282  0.000399  3.983161  0.0
C  C142  1  0.86183592  0.66764469  0.62708613  1  0.380849  0.000892  0.099345  0.197101  0.000399  3.983087  0.0
C  C143  1  0.63816857  0.33235337  0.12708685  1  0.38093  0.000893  0.099306  0.197126  0.0004  3.983034  0.0
C  C144  1  0.56514091  0.67267202  0.39991224  1  -0.027874  0.001654  -0.041111  -0.135251  0.001107  3.973324  0.001
C  C145  1  0.93485944  0.32732555  0.89990634  1  -0.027455  0.001654  -0.041012  -0.135128  0.001107  3.973129  0.001
C  C146  1  0.06514280  0.82733573  0.60008650  1  -0.02779  0.001654  -0.04104  -0.13526  0.001107  3.973322  0.001
C  C147  1  0.43486062  0.17266257  0.10008684  1  -0.0277  0.001654  -0.041067  -0.135293  0.001107  3.973175  0.001
C  C148  1  0.55115126  0.64742246  0.48306254  1  0.477592  0.000289  0.091567  0.202369  0.000644  4.024421  0.001
C  C149  1  0.94884972  0.35257805  0.98305909  1  0.477832  0.000287  0.091509  0.202408  0.000643  4.024352  0.001
C  C150  1  0.05116215  0.85258894  0.51693376  1  0.478429  0.000285  0.091708  0.202601  0.000643  4.024037  0.001
C  C151  1  0.44883989  0.14741216  0.01693530  1  0.478383  0.000287  0.09169  0.202637  0.000644  4.024093  0.001
C  C152  1  0.60093405  0.58917589  0.36187083  1  0.411575  -0.000978  0.100024  0.199119  -0.000479  3.978652  0.0
C  C153  1  0.89907011  0.41082379  0.86186256  1  0.411295  -0.000978  0.099959  0.199156  -0.000479  3.978679  0.0
C  C154  1  0.10094220  0.91082667  0.63812788  1  0.411636  -0.000978  0.100026  0.199222  -0.000479  3.978716  0.0
C  C155  1  0.39906041  0.08916808  0.13812759  1  0.411621  -0.000979  0.100021  0.1992  -0.000479  3.978676  0.0
C  C156  1  0.51430704  0.70723516  0.55215372  1  -0.069345  9.8e-05  -0.238084  -0.433673  -1e-05  3.9907  0.0
C  C157  1  0.98568780  0.29276141  0.05215225  1  -0.069539  9.9e-05  -0.238052  -0.43373  -1e-05  3.990545  0.0
C  C158  1  0.01430783  0.79278501  0.44784385  1  -0.069613  9.9e-05  -0.23814  -0.433789  -1e-05  3.990501  0.0
C  C159  1  0.48569434  0.20721931  0.94784456  1  -0.069659  9.9e-05  -0.238182  -0.433898  -9e-06  3.990531  0.0
C  C160  1  0.46220021  0.73302068  0.17941124  1  -0.015108  -0.000112  -0.235893  -0.433425  4.8e-05  3.984402  0.0
C  C161  1  0.03779859  0.26697053  0.67941057  1  -0.015313  -0.000111  -0.235814  -0.43343  4.8e-05  3.984423  0.0
C  C162  1  0.96220022  0.76698372  0.82058223  1  -0.014795  -0.000111  -0.235881  -0.433336  4.8e-05  3.984224  0.0
C  C163  1  0.53780249  0.23301665  0.32058298  1  -0.015039  -0.000111  -0.235888  -0.433404  4.8e-05  3.984311  0.0
C  C164  1  0.34828451  0.86918151  0.45788501  1  -0.036707  -0.000347  -0.229766  -0.42453  -0.00022  3.96503  0.0
C  C165  1  0.15171164  0.13081494  0.95788905  1  -0.036579  -0.000347  -0.22976  -0.424392  -0.00022  3.965035  0.0
C  C166  1  0.84828113  0.63082272  0.54210734  1  -0.036456  -0.000347  -0.229853  -0.424519  -0.00022  3.965218  0.0
C  C167  1  0.65171747  0.36917598  0.04210868  1  -0.036465  -0.000347  -0.229777  -0.42439  -0.00022  3.965283  0.0
C  C168  1  0.63129877  0.56723478  0.27598760  1  -0.019483  0.000204  -0.230157  -0.419415  9.1e-05  3.956138  0.0
C  C169  1  0.86870400  0.43276197  0.77597998  1  -0.019674  0.000203  -0.230065  -0.419395  9.1e-05  3.956236  0.0
C  C170  1  0.13130294  0.93275688  0.72401721  1  -0.019752  0.000204  -0.230083  -0.419426  9.1e-05  3.956131  0.0
C  C171  1  0.36870856  0.06723722  0.22401877  1  -0.020072  0.000203  -0.230056  -0.41931  9.1e-05  3.956137  0.0
C  C172  1  0.96712040  0.56234267  0.26349265  1  0.387994  0.000728  0.007126  0.07397  0.00088  3.915025  -0.001
C  C173  1  0.53288765  0.43765622  0.76349761  1  0.387756  0.000728  0.007118  0.073823  0.00088  3.915357  -0.001
C  C174  1  0.46711701  0.93766242  0.73652043  1  0.388834  0.000727  0.007109  0.073845  0.00088  3.915218  -0.001
C  C175  1  0.03288246  0.06234387  0.23652107  1  0.388766  0.000725  0.006999  0.073781  0.000878  3.914893  -0.001
C  C176  1  0.90568595  0.64119259  0.30572903  1  -0.134073  0.000719  -0.23971  -0.396679  0.000462  3.884894  0.0
C  C177  1  0.59431754  0.35880419  0.80573020  1  -0.134094  0.000719  -0.239825  -0.396807  0.000462  3.884997  0.0
C  C178  1  0.40569355  0.85881065  0.69427247  1  -0.134  0.000719  -0.239725  -0.396731  0.000461  3.885012  0.0
C  C179  1  0.09430898  0.14119489  0.19427188  1  -0.13382  0.000719  -0.239726  -0.396688  0.000461  3.884747  0.0
N  N180  1  0.31268565  0.80367948  0.24420335  1  -0.737764  -0.036574  -0.294669  -0.250868  -0.025119  3.594455  -0.031
N  N181  1  0.18731005  0.19631536  0.74420984  1  -0.737325  -0.036577  -0.294689  -0.250834  -0.025122  3.594119  -0.031
N  N182  1  0.81268763  0.69633137  0.75578659  1  -0.736901  -0.036577  -0.294609  -0.25076  -0.025123  3.594407  -0.031
N  N183  1  0.68731668  0.30367253  0.25578847  1  -0.737299  -0.036577  -0.294691  -0.250871  -0.025122  3.59409  -0.031
N  N184  1  0.57631756  0.55485809  0.49442798  1  -0.734092  0.033822  -0.293077  -0.255709  0.023217  3.58895  0.029
N  N185  1  0.92367965  0.44514099  0.99442216  1  -0.734421  0.033817  -0.293145  -0.255945  0.023212  3.589296  0.029
N  N186  1  0.07633023  0.94515462  0.50557382  1  -0.734566  0.033829  -0.29323  -0.255923  0.02322  3.589122  0.029
N  N187  1  0.42366882  0.05484718  0.00557287  1  -0.734715  0.033829  -0.293218  -0.255963  0.023219  3.589259  0.029
N  N188  1  0.28534588  0.83696866  0.31859182  1  -0.85321  -0.000661  -0.283715  -0.133368  -0.000213  3.676311  0.0
N  N189  1  0.21464897  0.16303269  0.81860011  1  -0.853552  -0.000661  -0.283777  -0.133472  -0.000213  3.676418  0.0
N  N190  1  0.78534513  0.66303875  0.68140182  1  -0.853535  -0.000663  -0.283786  -0.133485  -0.000214  3.67645  0.0
N  N191  1  0.71465778  0.33696509  0.18140186  1  -0.853596  -0.000663  -0.283683  -0.13329  -0.000214  3.676154  0.0
N  N192  1  0.60506359  0.52087466  0.42056831  1  -0.818797  0.000387  -0.282283  -0.130019  3.7e-05  3.667356  0.0
N  N193  1  0.89493223  0.47912436  0.92056193  1  -0.818853  0.000387  -0.282225  -0.129981  3.7e-05  3.667659  0.0
N  N194  1  0.10508348  0.97912788  0.57943591  1  -0.819086  0.000389  -0.2822  -0.129977  3.8e-05  3.667628  0.0
N  N195  1  0.39492147  0.02087255  0.07943558  1  -0.818856  0.000388  -0.282239  -0.13001  3.7e-05  3.667891  0.0
N  N196  1  0.99774326  0.59166099  0.18237548  1  -1.222118  0.076423  -0.412555  -0.407965  0.049745  3.629099  0.063
N  N197  1  0.50225139  0.40834141  0.68238290  1  -1.221737  0.076426  -0.41251  -0.407991  0.049748  3.62927  0.063
N  N198  1  0.49774667  0.90833392  0.81763328  1  -1.22258  0.076432  -0.412572  -0.407939  0.049747  3.629184  0.063
N  N199  1  0.00225343  0.09167244  0.31763642  1  -1.222706  0.076434  -0.412534  -0.407895  0.049749  3.629381  0.063
N  N200  1  0.13633725  0.75087642  0.06407465  1  -1.184296  -0.078565  -0.412597  -0.399403  -0.051104  3.62458  -0.065
N  N201  1  0.36366396  0.24912758  0.56408776  1  -1.184514  -0.078571  -0.412747  -0.399642  -0.051105  3.62441  -0.065
N  N202  1  0.63633569  0.74911737  0.93592035  1  -1.184338  -0.078557  -0.412485  -0.399196  -0.051099  3.624449  -0.065
N  N203  1  0.86366010  0.25088238  0.43592326  1  -1.184211  -0.078561  -0.412562  -0.399261  -0.051103  3.624342  -0.065
O  O204  1  0.29649465  0.85212389  0.06277065  1  -1.127244  -0.07479  -0.316266  -0.535824  -0.048622  2.355054  -0.069
O  O205  1  0.20349831  0.14787438  0.56278139  1  -1.126834  -0.07478  -0.316126  -0.53577  -0.048617  2.354915  -0.069
O  O206  1  0.79651540  0.64787343  0.93722849  1  -1.127576  -0.074801  -0.316285  -0.535873  -0.048629  2.354937  -0.069
O  O207  1  0.70348415  0.35212776  0.43723038  1  -1.12757  -0.074798  -0.316254  -0.535748  -0.048628  2.354803  -0.069
O  O208  1  0.02042757  0.63411307  0.02550081  1  -1.083578  0.078733  -0.303912  -0.456218  0.051016  2.252304  0.071
O  O209  1  0.47956544  0.36589663  0.52550653  1  -1.08346  0.078723  -0.303891  -0.456188  0.051011  2.252539  0.071
O  O210  1  0.52042759  0.86588701  0.97450655  1  -1.083698  0.078708  -0.303886  -0.456146  0.050999  2.252361  0.071
O  O211  1  0.97957265  0.13411134  0.47450805  1  -1.083733  0.078711  -0.303896  -0.456174  0.051001  2.252262  0.071
O  O212  1  0.12444986  0.69801865  0.21885107  1  -1.090854  -0.074103  -0.30858  -0.464022  -0.04812  2.252329  -0.067
O  O213  1  0.37554062  0.30198333  0.71886052  1  -1.09066  -0.074117  -0.308697  -0.464179  -0.048129  2.25218  -0.067
O  O214  1  0.62443698  0.80198022  0.78114394  1  -1.090709  -0.074137  -0.308593  -0.464122  -0.048145  2.252353  -0.067
O  O215  1  0.87555903  0.19802012  0.28114436  1  -1.090701  -0.074148  -0.308611  -0.464096  -0.048151  2.252197  -0.067
O  O216  1  0.88496523  0.44286956  0.18015239  1  -1.128705  0.071888  -0.314984  -0.53345  0.046917  2.358374  0.067
O  O217  1  0.61503768  0.55712353  0.68014877  1  -1.128633  0.071909  -0.315016  -0.533612  0.04693  2.358132  0.067
O  O218  1  0.38496148  0.05712167  0.81987270  1  -1.128929  0.071917  -0.315053  -0.533466  0.046936  2.358222  0.067
O  O219  1  0.11503937  0.94287824  0.31987260  1  -1.128814  0.071926  -0.315069  -0.533614  0.046941  2.358012  0.067
O  O220  1  0.28644072  0.89091078  0.92873166  1  -1.169299  -0.019191  -0.318303  -0.545595  -0.012224  2.224729  -0.015
O  O221  1  0.21354947  0.10910140  0.42873768  1  -1.169483  -0.019187  -0.318378  -0.545713  -0.012221  2.224665  -0.015
O  O222  1  0.78646441  0.60910879  0.07126749  1  -1.169788  -0.019197  -0.318362  -0.545666  -0.012229  2.224663  -0.015
O  O223  1  0.71353191  0.39088779  0.57126919  1  -1.169402  -0.019192  -0.318357  -0.545582  -0.012225  2.224964  -0.015
O  O224  1  0.86974795  0.43214633  0.31738674  1  -1.175327  0.019136  -0.314233  -0.548203  0.012136  2.257  0.015
O  O225  1  0.63027805  0.56783971  0.81737452  1  -1.175676  0.019131  -0.314199  -0.54806  0.012134  2.257455  0.015
O  O226  1  0.36974133  0.06785930  0.68264021  1  -1.17511  0.019129  -0.314156  -0.548037  0.012132  2.25727  0.015
O  O227  1  0.13024995  0.93215554  0.18264009  1  -1.175289  0.019113  -0.314207  -0.548151  0.012122  2.258082  0.015
