# generated using pymatgen
data_TbH6C7SO8
_symmetry_space_group_name_H-M   'P 1'
_cell_length_a   5.87446658
_cell_length_b   10.22405420
_cell_length_c   18.71023175
_cell_angle_alpha   80.82408239
_cell_angle_beta   80.98016479
_cell_angle_gamma   73.30126956
_symmetry_Int_Tables_number   1
_chemical_formula_structural   TbH6C7SO8
_chemical_formula_sum   'Tb4 H24 C28 S4 O32'
_cell_volume   1055.24811217
_cell_formula_units_Z   4
loop_
 _symmetry_equiv_pos_site_id
 _symmetry_equiv_pos_as_xyz
  1  'x, y, z'
loop_
 _atom_site_type_symbol
 _atom_site_label
 _atom_site_symmetry_multiplicity
 _atom_site_fract_x
 _atom_site_fract_y
 _atom_site_fract_z
 _atom_site_occupancy
 _atom_site_hle17_bader_spin_density
 _atom_site_hle17_ddec_charge
 _atom_site_hle17_ddec_spin_density
 _atom_site_hle17_ddec_sum_bond_order
 _atom_site_hle17_magmom
 _atom_site_hse06_10hf_bader_spin_density
 _atom_site_hse06_10hf_ddec_charge
 _atom_site_hse06_10hf_ddec_spin_density
 _atom_site_hse06_10hf_ddec_sum_bond_order
 _atom_site_hse06_10hf_magmom
 _atom_site_hse06_bader_spin_density
 _atom_site_hse06_ddec_charge
 _atom_site_hse06_ddec_spin_density
 _atom_site_hse06_ddec_sum_bond_order
 _atom_site_hse06_magmom
 _atom_site_pbe_bader_spin_density
 _atom_site_pbe_cm5_charge
 _atom_site_pbe_ddec_charge
 _atom_site_pbe_ddec_spin_density
 _atom_site_pbe_ddec_sum_bond_order
 _atom_site_pbe_magmom
Tb  Tb0  1  0.94903071  0.19643851  0.52932404  1  0  2.156174  0  1.774013  0  0  2.077956  0  2.101057  0  0  2.125724  0  2.060888  0  0  1.497656  2.041999  0  2.132328  0
Tb  Tb1  1  0.67487020  0.30356861  0.97066041  1  0  2.15557  0  1.775196  0  0  2.077227  0  2.102372  0  0  2.125159  0  2.062053  0  0  1.497701  2.041164  0  2.133651  0
Tb  Tb2  1  0.05097503  0.80356728  0.47067479  1  0  2.156231  0  1.773904  0  0  2.07803  0  2.100935  0  0  2.125782  0  2.06079  0  0  1.497597  2.042062  0  2.132208  0
Tb  Tb3  1  0.32512832  0.69642694  0.02934076  1  0  2.15545  0  1.775387  0  0  2.077142  0  2.102495  0  0  2.125072  0  2.062186  0  0  1.4977  2.041086  0  2.133765  0
H  H4  1  0.58306245  0.24473219  0.65750954  1  0  0.444997  0  0.808157  0  0  0.423344  0  0.868823  0  0  0.431315  0  0.857411  0  0  0.3293  0.417889  0  0.875989  0
H  H5  1  0.48502137  0.25541450  0.84244018  1  0  0.44576  0  0.806998  0  0  0.423978  0  0.868023  0  0  0.431972  0  0.856565  0  0  0.329504  0.418607  0  0.87504  0
H  H6  1  0.41693212  0.75526129  0.34249152  1  0  0.445038  0  0.808101  0  0  0.423376  0  0.868785  0  0  0.431346  0  0.857372  0  0  0.329308  0.417917  0  0.87596  0
H  H7  1  0.51497832  0.74458208  0.15756100  1  0  0.445788  0  0.807008  0  0  0.424004  0  0.867995  0  0  0.431998  0  0.856537  0  0  0.329504  0.418631  0  0.875042  0
H  H8  1  0.43614133  0.31484788  0.58944338  1  0  0.448329  0  0.845247  0  0  0.414117  0  0.913505  0  0  0.425809  0  0.89647  0  0  0.303055  0.40587  0  0.925527  0
H  H9  1  0.34041213  0.18522517  0.91053545  1  0  0.446154  0  0.84793  0  0  0.412796  0  0.914829  0  0  0.424442  0  0.897847  0  0  0.302469  0.404554  0  0.926815  0
H  H10  1  0.56386073  0.68515174  0.41055554  1  0  0.44829  0  0.845327  0  0  0.414078  0  0.913583  0  0  0.42577  0  0.896548  0  0  0.303042  0.405832  0  0.925604  0
H  H11  1  0.65958646  0.81477140  0.08946511  1  0  0.44615  0  0.847949  0  0  0.412778  0  0.914871  0  0  0.424426  0  0.897885  0  0  0.302456  0.404535  0  0.926858  0
H  H12  1  0.48151316  0.25087798  0.46849156  1  0  0.446105  0  0.826704  0  0  0.419638  0  0.892337  0  0  0.42882  0  0.878906  0  0  0.320439  0.413218  0  0.90178  0
H  H13  1  0.20108734  0.24903619  0.03144506  1  0  0.446201  0  0.826747  0  0  0.419433  0  0.892967  0  0  0.428634  0  0.879485  0  0  0.320526  0.413033  0  0.902351  0
H  H14  1  0.51848645  0.74912583  0.53151098  1  0  0.446097  0  0.826763  0  0  0.419631  0  0.892364  0  0  0.428813  0  0.878934  0  0  0.320415  0.41321  0  0.901808  0
H  H15  1  0.79891337  0.75095935  0.96855566  1  0  0.446224  0  0.826726  0  0  0.419454  0  0.892941  0  0  0.428655  0  0.879459  0  0  0.320553  0.413053  0  0.902327  0
H  H16  1  0.64270942  0.10548970  0.44985091  1  0  0.444652  0  0.858536  0  0  0.411441  0  0.92591  0  0  0.422242  0  0.910351  0  0  0.306482  0.403921  0  0.936724  0
H  H17  1  0.19818244  0.39441197  0.05011564  1  0  0.444144  0  0.859111  0  0  0.41103  0  0.926428  0  0  0.42183  0  0.910845  0  0  0.306417  0.4036  0  0.937121  0
H  H18  1  0.35729679  0.89451507  0.55014799  1  0  0.444944  0  0.85818  0  0  0.411696  0  0.925592  0  0  0.422496  0  0.910035  0  0  0.306588  0.404177  0  0.936406  0
H  H19  1  0.80181403  0.60558562  0.94988477  1  0  0.444171  0  0.859104  0  0  0.411065  0  0.926401  0  0  0.421863  0  0.91082  0  0  0.306419  0.403635  0  0.937095  0
H  H20  1  0.92965254  0.80695121  0.75068135  1  0  0.115408  0  0.970284  0  0  0.122782  0  1.036113  0  0  0.124606  0  1.03802  0  0  0.103016  0.121559  0  1.034716  0
H  H21  1  0.48723035  0.69298502  0.74947103  1  0  0.113636  0  0.970229  0  0  0.121305  0  1.035979  0  0  0.123135  0  1.037862  0  0  0.102384  0.120201  0  1.034356  0
H  H22  1  0.07033882  0.19305154  0.24931967  1  0  0.115444  0  0.970252  0  0  0.122794  0  1.036106  0  0  0.124619  0  1.038011  0  0  0.103002  0.121571  0  1.034712  0
H  H23  1  0.51277206  0.30701158  0.25053085  1  0  0.113623  0  0.97019  0  0  0.12129  0  1.035947  0  0  0.12312  0  1.037829  0  0  0.102371  0.120188  0  1.034327  0
H  H24  1  0.61305148  0.88624352  0.86345234  1  0  0.151135  0  0.955885  0  0  0.15843  0  1.01457  0  0  0.162616  0  1.011047  0  0  0.118439  0.155346  0  1.017221  0
H  H25  1  0.36284549  0.61352415  0.63664722  1  0  0.150843  0  0.955814  0  0  0.158219  0  1.014508  0  0  0.162382  0  1.011006  0  0  0.118494  0.155136  0  1.017151  0
H  H26  1  0.38693531  0.11375613  0.13654802  1  0  0.151093  0  0.955934  0  0  0.158471  0  1.014507  0  0  0.162661  0  1.010986  0  0  0.118441  0.155385  0  1.017163  0
H  H27  1  0.63715692  0.38647244  0.36335466  1  0  0.150949  0  0.955639  0  0  0.158241  0  1.014442  0  0  0.162403  0  1.010939  0  0  0.118548  0.15516  0  1.01708  0
C  C28  1  0.78304923  0.88918161  0.60756736  1  0  0.731402  0  3.826172  0  0  0.684472  0  4.120941  0  0  0.720013  0  4.107493  0  0  0.229496  0.660321  0  4.129239  0
C  C29  1  0.27967546  0.61085258  0.89252161  1  0  0.731642  0  3.827129  0  0  0.684073  0  4.123498  0  0  0.719721  0  4.109911  0  0  0.229147  0.659902  0  4.131885  0
C  C30  1  0.21695534  0.11083967  0.39243296  1  0  0.731648  0  3.825801  0  0  0.684623  0  4.120692  0  0  0.720162  0  4.107246  0  0  0.229522  0.660476  0  4.128992  0
C  C31  1  0.72032197  0.38914295  0.10747894  1  0  0.731599  0  3.827203  0  0  0.684013  0  4.123615  0  0  0.719663  0  4.110029  0  0  0.229167  0.659847  0  4.131998  0
C  C32  1  0.64883998  0.92273833  0.68001557  1  0  -0.031767  0  3.712136  0  0  -0.024979  0  3.95339  0  0  -0.024084  0  3.969245  0  0  -0.008946  -0.025703  0  3.943086  0
C  C33  1  0.25174946  0.57719904  0.82008103  1  0  -0.032275  0  3.714991  0  0  -0.026787  0  3.95801  0  0  -0.02581  0  3.973711  0  0  -0.009533  -0.027616  0  3.947794  0
C  C34  1  0.35115818  0.07726850  0.31998337  1  0  -0.031911  0  3.712165  0  0  -0.025089  0  3.953409  0  0  -0.024191  0  3.969243  0  0  -0.009021  -0.02581  0  3.943094  0
C  C35  1  0.74824272  0.42279959  0.17991966  1  0  -0.032262  0  3.714926  0  0  -0.026819  0  3.958026  0  0  -0.025845  0  3.973729  0  0  -0.009563  -0.02765  0  3.947809  0
C  C36  1  0.74780158  0.87107442  0.74670141  1  0  -0.108105  0  3.743259  0  0  -0.131634  0  3.999403  0  0  -0.136629  0  4.020707  0  0  -0.101273  -0.12856  0  3.985214  0
C  C37  1  0.36549696  0.62890736  0.75340308  1  0  -0.106445  0  3.743729  0  0  -0.129983  0  4.000211  0  0  -0.135009  0  4.021493  0  0  -0.100721  -0.12678  0  3.985572  0
C  C38  1  0.25218965  0.12892626  0.25329914  1  0  -0.108096  0  3.743301  0  0  -0.131611  0  3.999464  0  0  -0.136611  0  4.020771  0  0  -0.101216  -0.128541  0  3.985279  0
C  C39  1  0.63449761  0.37109438  0.24659872  1  0  -0.106406  0  3.743785  0  0  -0.129902  0  4.00021  0  0  -0.134928  0  4.021492  0  0  -0.100683  -0.126704  0  3.985575  0
C  C40  1  0.58700014  0.91284423  0.80623914  1  0  -0.132886  0  3.646864  0  0  -0.154245  0  3.929111  0  0  -0.151218  0  3.942438  0  0  -0.082499  -0.155885  0  3.920015  0
C  C41  1  0.30588594  0.58715433  0.69386787  1  0  -0.132477  0  3.644213  0  0  -0.153798  0  3.926069  0  0  -0.150767  0  3.939409  0  0  -0.082491  -0.155474  0  3.917153  0
C  C42  1  0.41298542  0.08715338  0.19376181  1  0  -0.132918  0  3.646962  0  0  -0.154355  0  3.929197  0  0  -0.151335  0  3.942534  0  0  -0.082544  -0.155997  0  3.920104  0
C  C43  1  0.69411429  0.41284224  0.30613278  1  0  -0.132617  0  3.644321  0  0  -0.153877  0  3.926199  0  0  -0.150847  0  3.939539  0  0  -0.082563  -0.155555  0  3.917285  0
C  C44  1  0.41340854  0.00324469  0.69065564  1  0  -0.209745  0  3.74395  0  0  -0.197792  0  4.011003  0  0  -0.206681  0  4.03089  0  0  -0.032344  -0.191926  0  3.997208  0
C  C45  1  0.10751518  0.49669795  0.80943653  1  0  -0.210077  0  3.742671  0  0  -0.196998  0  4.008953  0  0  -0.205899  0  4.028722  0  0  -0.032165  -0.191358  0  3.995787  0
C  C46  1  0.58659052  0.99675907  0.30934406  1  0  -0.209667  0  3.743855  0  0  -0.197695  0  4.010868  0  0  -0.206567  0  4.030729  0  0  -0.032303  -0.191831  0  3.997065  0
C  C47  1  0.89247598  0.50330172  0.19056462  1  0  -0.209987  0  3.742711  0  0  -0.196901  0  4.008996  0  0  -0.205803  0  4.028767  0  0  -0.032134  -0.191256  0  3.99582  0
C  C48  1  0.25011994  0.07019693  0.63617049  1  0  0.652721  0  3.963454  0  0  0.603272  0  4.262695  0  0  0.638293  0  4.253623  0  0  0.184726  0.579689  0  4.268128  0
C  C49  1  0.95653227  0.42984019  0.86387290  1  0  0.653117  0  3.961406  0  0  0.603277  0  4.260834  0  0  0.63833  0  4.251705  0  0  0.184226  0.579745  0  4.266182  0
C  C50  1  0.74988143  0.92980889  0.36382924  1  0  0.652752  0  3.963342  0  0  0.603292  0  4.262588  0  0  0.638304  0  4.253517  0  0  0.184716  0.579708  0  4.26802  0
C  C51  1  0.04345916  0.57015532  0.13612677  1  0  0.652979  0  3.961461  0  0  0.603147  0  4.260893  0  0  0.6382  0  4.251767  0  0  0.18422  0.579615  0  4.266233  0
C  C52  1  0.88417199  0.52088789  0.48137257  1  0  0.575601  0  3.887647  0  0  0.529792  0  4.186942  0  0  0.560219  0  4.176551  0  0  0.229776  0.50904  0  4.193785  0
C  C53  1  0.88631162  0.97913944  0.01860605  1  0  0.574102  0  3.887172  0  0  0.528371  0  4.186683  0  0  0.558868  0  4.176176  0  0  0.229709  0.507838  0  4.192905  0
C  C54  1  0.11584352  0.47910872  0.51863001  1  0  0.575394  0  3.887998  0  0  0.529592  0  4.18729  0  0  0.560015  0  4.176899  0  0  0.229613  0.508841  0  4.194132  0
C  C55  1  0.11368800  0.02085616  0.98139743  1  0  0.57417  0  3.886909  0  0  0.528382  0  4.186499  0  0  0.558881  0  4.175991  0  0  0.229749  0.507853  0  4.19272  0
S  S56  1  0.31728128  0.01335840  0.78223490  1  0  0.216917  0  2.609941  0  0  0.216732  0  2.93338  0  0  0.217221  0  2.939319  0  0  0.118311  0.216588  0  2.928143  0
S  S57  1  0.11282881  0.48657336  0.71787123  1  0  0.217243  0  2.607096  0  0  0.217218  0  2.929548  0  0  0.217699  0  2.935433  0  0  0.118473  0.216509  0  2.925184  0
S  S58  1  0.68270824  0.98664119  0.21776279  1  0  0.216956  0  2.609864  0  0  0.216765  0  2.933323  0  0  0.217246  0  2.93926  0  0  0.118327  0.216618  0  2.92808  0
S  S59  1  0.88717455  0.51342114  0.28212911  1  0  0.217265  0  2.607163  0  0  0.217248  0  2.92958  0  0  0.217731  0  2.935465  0  0  0.11851  0.216538  0  2.92521  0
O  O60  1  0.87656416  0.97686262  0.56575994  1  0  -0.786018  0  2.148769  0  0  -0.741813  0  2.402173  0  0  -0.768859  0  2.392649  0  0  -0.418334  -0.722281  0  2.407659  0
O  O61  1  0.41908103  0.52329934  0.93440484  1  0  -0.785651  0  2.14912  0  0  -0.741358  0  2.403627  0  0  -0.768496  0  2.394038  0  0  -0.418194  -0.721904  0  2.409144  0
O  O62  1  0.12343148  0.02314728  0.43423817  1  0  -0.786104  0  2.148374  0  0  -0.741882  0  2.401859  0  0  -0.768936  0  2.392342  0  0  -0.418296  -0.722345  0  2.407342  0
O  O63  1  0.58092029  0.47669724  0.06559643  1  0  -0.785629  0  2.149221  0  0  -0.741338  0  2.403754  0  0  -0.768466  0  2.394141  0  0  -0.418185  -0.721884  0  2.409266  0
O  O64  1  0.81015657  0.77146554  0.58878454  1  0  -0.67266  0  1.958451  0  0  -0.635713  0  2.190595  0  0  -0.660452  0  2.182205  0  0  -0.360051  -0.618255  0  2.195943  0
O  O65  1  0.16988688  0.72852756  0.91126286  1  0  -0.671645  0  1.958331  0  0  -0.634223  0  2.191042  0  0  -0.65908  0  2.182689  0  0  -0.359791  -0.616903  0  2.196219  0
O  O66  1  0.18985291  0.22853920  0.41121285  1  0  -0.672745  0  1.958622  0  0  -0.635769  0  2.190843  0  0  -0.660499  0  2.182428  0  0  -0.360102  -0.618319  0  2.196198  0
O  O67  1  0.83010940  0.27146695  0.08873767  1  0  -0.671683  0  1.958306  0  0  -0.634232  0  2.191008  0  0  -0.659089  0  2.182653  0  0  -0.359823  -0.616913  0  2.196182  0
O  O68  1  0.32095160  0.05065497  0.56848211  1  0  -0.702974  0  2.050725  0  0  -0.645295  0  2.281844  0  0  -0.670158  0  2.27169  0  0  -0.376061  -0.627957  0  2.288137  0
O  O69  1  0.93994196  0.44942729  0.93156646  1  0  -0.703729  0  2.052221  0  0  -0.645097  0  2.282141  0  0  -0.670273  0  2.272462  0  0  -0.376035  -0.627642  0  2.28821  0
O  O70  1  0.67905939  0.94934773  0.43151658  1  0  -0.702885  0  2.050738  0  0  -0.64528  0  2.281968  0  0  -0.670129  0  2.271811  0  0  -0.376045  -0.627933  0  2.288228  0
O  O71  1  0.06005697  0.55056618  0.06843370  1  0  -0.703634  0  2.05242  0  0  -0.644966  0  2.282267  0  0  -0.670151  0  2.272602  0  0  -0.376002  -0.627545  0  2.288395  0
O  O72  1  0.04302555  0.14701372  0.65425247  1  0  -0.663583  0  1.945276  0  0  -0.625961  0  2.176972  0  0  -0.648468  0  2.167079  0  0  -0.381025  -0.610374  0  2.183292  0
O  O73  1  0.84432241  0.35304765  0.84574030  1  0  -0.662957  0  1.944788  0  0  -0.625526  0  2.177036  0  0  -0.647971  0  2.166994  0  0  -0.380153  -0.610125  0  2.183412  0
O  O74  1  0.95698401  0.85299207  0.34574600  1  0  -0.663633  0  1.945087  0  0  -0.625996  0  2.176766  0  0  -0.648501  0  2.166878  0  0  -0.381047  -0.610409  0  2.183081  0
O  O75  1  0.15566814  0.64695098  0.15426030  1  0  -0.662964  0  1.944557  0  0  -0.625545  0  2.176812  0  0  -0.64799  0  2.166767  0  0  -0.380234  -0.610146  0  2.183184  0
O  O76  1  0.78445319  0.42926782  0.47813288  1  0  -0.599862  0  2.053931  0  0  -0.559233  0  2.292686  0  0  -0.582126  0  2.284918  0  0  -0.350848  -0.543397  0  2.297779  0
O  O77  1  0.69166108  0.07074867  0.02181154  1  0  -0.599173  0  2.052925  0  0  -0.558647  0  2.291604  0  0  -0.581555  0  2.283826  0  0  -0.350788  -0.542677  0  2.296407  0
O  O78  1  0.21556706  0.57073476  0.52186011  1  0  -0.599839  0  2.053891  0  0  -0.559191  0  2.29258  0  0  -0.582085  0  2.284818  0  0  -0.350767  -0.543356  0  2.297677  0
O  O79  1  0.30834202  0.92924173  0.97818954  1  0  -0.599224  0  2.052732  0  0  -0.558698  0  2.291449  0  0  -0.581607  0  2.283669  0  0  -0.350842  -0.542726  0  2.29625  0
O  O80  1  0.81282133  0.64807318  0.45631789  1  0  -0.687947  0  2.118884  0  0  -0.63427  0  2.348311  0  0  -0.659991  0  2.339831  0  0  -0.345566  -0.616443  0  2.353881  0
O  O81  1  0.91705825  0.85197585  0.04366598  1  0  -0.686951  0  2.119857  0  0  -0.633651  0  2.34947  0  0  -0.659321  0  2.340891  0  0  -0.345469  -0.615686  0  2.354604  0
O  O82  1  0.18719236  0.35193758  0.54367213  1  0  -0.687691  0  2.119341  0  0  -0.634029  0  2.348784  0  0  -0.65975  0  2.340304  0  0  -0.345428  -0.61621  0  2.354361  0
O  O83  1  0.08293591  0.14801964  0.95633271  1  0  -0.686912  0  2.119796  0  0  -0.633598  0  2.34943  0  0  -0.659267  0  2.340853  0  0  -0.34544  -0.615636  0  2.354565  0
O  O84  1  0.59742441  0.28667697  0.60718593  1  0  -0.895627  0  1.882841  0  0  -0.858882  0  2.079725  0  0  -0.876746  0  2.049037  0  0  -0.637283  -0.846081  0  2.100457  0
O  O85  1  0.49105474  0.21358908  0.89278073  1  0  -0.894801  0  1.885229  0  0  -0.858446  0  2.081315  0  0  -0.87632  0  2.050783  0  0  -0.637114  -0.845654  0  2.101761  0
O  O86  1  0.40257930  0.71332272  0.39281645  1  0  -0.895663  0  1.882865  0  0  -0.858897  0  2.079727  0  0  -0.876769  0  2.049065  0  0  -0.63732  -0.846113  0  2.10049  0
O  O87  1  0.50894706  0.78640647  0.10722061  1  0  -0.894807  0  1.885249  0  0  -0.858436  0  2.081301  0  0  -0.876312  0  2.05077  0  0  -0.637105  -0.845646  0  2.101777  0
O  O88  1  0.64848832  0.19853221  0.45884751  1  0  -0.892528  0  1.89589  0  0  -0.852534  0  2.100284  0  0  -0.871825  0  2.070709  0  0  -0.64651  -0.838656  0  2.120403  0
O  O89  1  0.30603823  0.30138903  0.04110443  1  0  -0.892055  0  1.897405  0  0  -0.8521  0  2.101263  0  0  -0.871367  0  2.07181  0  0  -0.646505  -0.838418  0  2.121281  0
O  O90  1  0.35151469  0.80147364  0.54115399  1  0  -0.892802  0  1.895721  0  0  -0.85282  0  2.100199  0  0  -0.872105  0  2.070617  0  0  -0.646609  -0.838945  0  2.120326  0
O  O91  1  0.69396145  0.69860755  0.95889675  1  0  -0.892088  0  1.89742  0  0  -0.852123  0  2.101254  0  0  -0.871387  0  2.071799  0  0  -0.646546  -0.838442  0  2.121275  0
