# generated using pymatgen
data_HoH8(C3O2)3
_symmetry_space_group_name_H-M   'P 1'
_cell_length_a   6.04751646
_cell_length_b   7.73044254
_cell_length_c   20.96416855
_cell_angle_alpha   93.30597553
_cell_angle_beta   89.99979050
_cell_angle_gamma   90.00023081
_symmetry_Int_Tables_number   1
_chemical_formula_structural   HoH8(C3O2)3
_chemical_formula_sum   'Ho4 H32 C36 O24'
_cell_volume   978.44339538
_cell_formula_units_Z   4
loop_
 _symmetry_equiv_pos_site_id
 _symmetry_equiv_pos_as_xyz
  1  'x, y, z'
loop_
 _atom_site_type_symbol
 _atom_site_label
 _atom_site_symmetry_multiplicity
 _atom_site_fract_x
 _atom_site_fract_y
 _atom_site_fract_z
 _atom_site_occupancy
 _atom_site_hle17_bader_spin_density
 _atom_site_hle17_ddec_charge
 _atom_site_hle17_ddec_spin_density
 _atom_site_hle17_ddec_sum_bond_order
 _atom_site_hle17_magmom
 _atom_site_hse06_10hf_bader_spin_density
 _atom_site_hse06_10hf_ddec_charge
 _atom_site_hse06_10hf_ddec_spin_density
 _atom_site_hse06_10hf_ddec_sum_bond_order
 _atom_site_hse06_10hf_magmom
 _atom_site_hse06_bader_spin_density
 _atom_site_hse06_ddec_charge
 _atom_site_hse06_ddec_spin_density
 _atom_site_hse06_ddec_sum_bond_order
 _atom_site_hse06_magmom
 _atom_site_pbe_bader_spin_density
 _atom_site_pbe_cm5_charge
 _atom_site_pbe_ddec_charge
 _atom_site_pbe_ddec_spin_density
 _atom_site_pbe_ddec_sum_bond_order
 _atom_site_pbe_magmom
Ho  Ho0  1  0.72619936  0.19168758  0.80452423  1  0  2.269342  0  1.645632  0  0  2.126219  0  2.113014  0  0  2.259711  0  1.920572  0  0  1.534739  2.08926  0  2.144348  0
Ho  Ho1  1  0.22619988  0.30830876  0.19547463  1  0  2.269345  0  1.64567  0  0  2.126182  0  2.11312  0  0  2.259715  0  1.920611  0  0  1.534743  2.089222  0  2.144454  0
Ho  Ho2  1  0.27379925  0.80830893  0.19547531  1  0  2.269373  0  1.645653  0  0  2.126225  0  2.113065  0  0  2.259738  0  1.920591  0  0  1.534762  2.089265  0  2.144399  0
Ho  Ho3  1  0.77379873  0.69168775  0.80452491  1  0  2.269362  0  1.645662  0  0  2.126222  0  2.113072  0  0  2.259729  0  1.920606  0  0  1.534745  2.089261  0  2.144406  0
H  H4  1  0.35996922  0.20331737  0.62039849  1  0  0.096309  0  0.965768  0  0  0.104947  0  1.030361  0  0  0.10719  0  1.030054  0  0  0.101806  0.103342  0  1.030514  0
H  H5  1  0.85997126  0.29669230  0.37959999  1  0  0.096373  0  0.965616  0  0  0.104965  0  1.030246  0  0  0.107198  0  1.029967  0  0  0.101799  0.103362  0  1.030397  0
H  H6  1  0.64002940  0.79669597  0.37960087  1  0  0.0964  0  0.965539  0  0  0.104978  0  1.030195  0  0  0.107216  0  1.029901  0  0  0.101817  0.103376  0  1.030344  0
H  H7  1  0.14003231  0.70331326  0.62039924  1  0  0.096347  0  0.965801  0  0  0.10498  0  1.030394  0  0  0.107227  0  1.030077  0  0  0.101794  0.103376  0  1.030545  0
H  H8  1  0.64354089  0.51930711  0.63792681  1  0  0.108734  0  0.96257  0  0  0.116566  0  1.028676  0  0  0.119041  0  1.02931  0  0  0.103908  0.114673  0  1.028571  0
H  H9  1  0.14355346  0.98068533  0.36207491  1  0  0.108768  0  0.96251  0  0  0.116572  0  1.028662  0  0  0.119047  0  1.029294  0  0  0.103918  0.114679  0  1.028556  0
H  H10  1  0.35645111  0.48069592  0.36207476  1  0  0.108767  0  0.962513  0  0  0.116594  0  1.028624  0  0  0.119071  0  1.029255  0  0  0.103935  0.114701  0  1.028519  0
H  H11  1  0.85645507  0.01931253  0.63792704  1  0  0.108718  0  0.962585  0  0  0.116529  0  1.028723  0  0  0.119003  0  1.029358  0  0  0.103903  0.114636  0  1.028618  0
H  H12  1  0.28267146  0.12653608  0.83841720  1  0  0.437537  0  0.866576  0  0  0.405091  0  0.932347  0  0  0.417391  0  0.914882  0  0  0.300219  0.396435  0  0.944824  0
H  H13  1  0.78267002  0.37346171  0.16158115  1  0  0.437549  0  0.866549  0  0  0.405105  0  0.932317  0  0  0.417405  0  0.91485  0  0  0.300234  0.396449  0  0.944793  0
H  H14  1  0.71732716  0.87345908  0.16158041  1  0  0.437536  0  0.866569  0  0  0.405079  0  0.932359  0  0  0.417379  0  0.914893  0  0  0.300199  0.396424  0  0.944836  0
H  H15  1  0.21733025  0.62653477  0.83841744  1  0  0.437544  0  0.866566  0  0  0.405095  0  0.93234  0  0  0.417395  0  0.914875  0  0  0.30022  0.396439  0  0.944817  0
H  H16  1  0.40058895  0.16050853  0.90563409  1  0  0.41711  0  0.848641  0  0  0.399034  0  0.907743  0  0  0.406506  0  0.899313  0  0  0.316929  0.393931  0  0.913439  0
H  H17  1  0.90058653  0.33948702  0.09436457  1  0  0.417018  0  0.848758  0  0  0.39894  0  0.907864  0  0  0.406413  0  0.899439  0  0  0.316904  0.393837  0  0.913563  0
H  H18  1  0.59941132  0.83948793  0.09436354  1  0  0.417039  0  0.848717  0  0  0.398966  0  0.907813  0  0  0.406438  0  0.899396  0  0  0.316909  0.393863  0  0.913511  0
H  H19  1  0.09941374  0.66050819  0.90563495  1  0  0.417104  0  0.848595  0  0  0.399027  0  0.907703  0  0  0.4065  0  0.899305  0  0  0.316928  0.393923  0  0.913402  0
H  H20  1  0.16952826  0.29200612  0.52143717  1  0  0.083469  0  0.980788  0  0  0.094465  0  1.043407  0  0  0.097044  0  1.043254  0  0  0.094382  0.092649  0  1.043584  0
H  H21  1  0.66953686  0.20800303  0.47856293  1  0  0.08354  0  0.980743  0  0  0.094522  0  1.043387  0  0  0.097102  0  1.04323  0  0  0.094408  0.092705  0  1.043567  0
H  H22  1  0.83047201  0.70800982  0.47856272  1  0  0.083535  0  0.980764  0  0  0.094522  0  1.0434  0  0  0.097098  0  1.043248  0  0  0.094408  0.092705  0  1.043581  0
H  H23  1  0.33047498  0.79199997  0.52143767  1  0  0.083374  0  0.980843  0  0  0.094406  0  1.043431  0  0  0.096983  0  1.043279  0  0  0.094354  0.092589  0  1.043608  0
H  H24  1  0.81147148  0.45287262  0.53130691  1  0  0.079537  0  0.965503  0  0  0.093321  0  1.023102  0  0  0.095483  0  1.022104  0  0  0.09912  0.091815  0  1.023732  0
H  H25  1  0.31148539  0.04712792  0.46869431  1  0  0.079645  0  0.965392  0  0  0.093392  0  1.02304  0  0  0.095555  0  1.022039  0  0  0.099127  0.091885  0  1.023671  0
H  H26  1  0.18852549  0.54713819  0.46869479  1  0  0.079635  0  0.965371  0  0  0.093394  0  1.023008  0  0  0.095557  0  1.022007  0  0  0.099132  0.091886  0  1.023639  0
H  H27  1  0.68852811  0.95287251  0.53130673  1  0  0.079537  0  0.965489  0  0  0.093316  0  1.0231  0  0  0.095478  0  1.022101  0  0  0.099111  0.091808  0  1.023731  0
H  H28  1  0.57782370  0.32169132  0.97180110  1  0  0.113874  0  0.948616  0  0  0.128315  0  1.008839  0  0  0.131588  0  1.006157  0  0  0.107829  0.126087  0  1.010427  0
H  H29  1  0.07782728  0.17830075  0.02820023  1  0  0.113848  0  0.948662  0  0  0.128291  0  1.008888  0  0  0.131558  0  1.006217  0  0  0.107836  0.126068  0  1.01047  0
H  H30  1  0.42216830  0.67830005  0.02820026  1  0  0.113873  0  0.948671  0  0  0.128304  0  1.008898  0  0  0.131574  0  1.006222  0  0  0.107833  0.126081  0  1.010482  0
H  H31  1  0.92217133  0.82169576  0.97179979  1  0  0.113876  0  0.948647  0  0  0.128337  0  1.008826  0  0  0.131611  0  1.006143  0  0  0.10784  0.126109  0  1.010415  0
H  H32  1  0.31686237  0.41622157  0.95710353  1  0  0.113478  0  0.912103  0  0  0.131938  0  0.965549  0  0  0.134697  0  0.96323  0  0  0.110959  0.130037  0  0.966856  0
H  H33  1  0.81686420  0.08377249  0.04289709  1  0  0.113483  0  0.912089  0  0  0.131932  0  0.965559  0  0  0.134689  0  0.963244  0  0  0.110971  0.130049  0  0.966847  0
H  H34  1  0.68312963  0.58377107  0.04289689  1  0  0.113482  0  0.912186  0  0  0.131936  0  0.965633  0  0  0.134693  0  0.963317  0  0  0.110965  0.130055  0  0.966917  0
H  H35  1  0.18313441  0.91622406  0.95710388  1  0  0.113485  0  0.912114  0  0  0.131933  0  0.965551  0  0  0.13469  0  0.963236  0  0  0.110959  0.130042  0  0.966848  0
C  C36  1  0.22039061  0.24194187  0.74017833  1  0  0.751552  0  3.795632  0  0  0.703421  0  4.082588  0  0  0.741829  0  4.072285  0  0  0.243095  0.677798  0  4.091221  0
C  C37  1  0.72039230  0.25805963  0.25982063  1  0  0.751513  0  3.795525  0  0  0.703422  0  4.082427  0  0  0.741821  0  4.072136  0  0  0.243095  0.677797  0  4.091063  0
C  C38  1  0.77960801  0.75805978  0.25981987  1  0  0.751644  0  3.79535  0  0  0.703533  0  4.082266  0  0  0.741945  0  4.071953  0  0  0.243128  0.67791  0  4.090903  0
C  C39  1  0.27960962  0.74194076  0.74017898  1  0  0.751613  0  3.795555  0  0  0.703492  0  4.082484  0  0  0.741883  0  4.072206  0  0  0.243102  0.677868  0  4.091121  0
C  C40  1  0.10579698  0.30457917  0.68351299  1  0  -0.21935  0  3.733588  0  0  -0.203824  0  3.975445  0  0  -0.217163  0  3.995579  0  0  -0.03124  -0.195016  0  3.961906  0
C  C41  1  0.60580424  0.19542203  0.31648751  1  0  -0.219318  0  3.733511  0  0  -0.203862  0  3.975367  0  0  -0.217199  0  3.995502  0  0  -0.031247  -0.195052  0  3.961828  0
C  C42  1  0.89419833  0.69542123  0.31648709  1  0  -0.219376  0  3.733512  0  0  -0.203873  0  3.97535  0  0  -0.217213  0  3.995481  0  0  -0.031296  -0.195066  0  3.961813  0
C  C43  1  0.39419933  0.80457840  0.68351353  1  0  -0.219223  0  3.733525  0  0  -0.203713  0  3.975365  0  0  -0.217051  0  3.995505  0  0  -0.031227  -0.194906  0  3.961827  0
C  C44  1  0.20221040  0.27159514  0.62305921  1  0  -0.038081  0  3.755885  0  0  -0.059388  0  4.001922  0  0  -0.055374  0  4.020975  0  0  -0.082494  -0.061631  0  3.988369  0
C  C45  1  0.70221212  0.22841280  0.37694036  1  0  -0.037968  0  3.755641  0  0  -0.059216  0  4.00169  0  0  -0.055202  0  4.020731  0  0  -0.082421  -0.061459  0  3.988136  0
C  C46  1  0.79778987  0.72841690  0.37694013  1  0  -0.038078  0  3.755532  0  0  -0.059333  0  4.001591  0  0  -0.055317  0  4.02063  0  0  -0.082465  -0.061573  0  3.988038  0
C  C47  1  0.29779145  0.77159021  0.62306025  1  0  -0.038196  0  3.755943  0  0  -0.059501  0  4.001984  0  0  -0.055482  0  4.021031  0  0  -0.082452  -0.061744  0  3.98843  0
C  C48  1  0.90212739  0.39560385  0.68936565  1  0  0.364595  0  3.868485  0  0  0.347663  0  4.131666  0  0  0.362288  0  4.155085  0  0  0.084061  0.336751  0  4.122659  0
C  C49  1  0.40213366  0.10439694  0.31063501  1  0  0.364558  0  3.868617  0  0  0.347718  0  4.131679  0  0  0.362344  0  4.155099  0  0  0.084018  0.336804  0  4.122671  0
C  C50  1  0.09786462  0.60439784  0.31063398  1  0  0.364521  0  3.868585  0  0  0.347626  0  4.131713  0  0  0.362254  0  4.155132  0  0  0.083997  0.336713  0  4.122705  0
C  C51  1  0.59787157  0.89560221  0.68936648  1  0  0.364571  0  3.868389  0  0  0.34765  0  4.131559  0  0  0.362277  0  4.154977  0  0  0.084036  0.336738  0  4.122552  0
C  C52  1  0.79916991  0.44856241  0.63349531  1  0  -0.183025  0  3.700374  0  0  -0.203371  0  3.957917  0  0  -0.210104  0  3.976587  0  0  -0.098171  -0.198715  0  3.945378  0
C  C53  1  0.29918016  0.05143806  0.36650497  1  0  -0.183054  0  3.700321  0  0  -0.203375  0  3.957796  0  0  -0.210106  0  3.976462  0  0  -0.09811  -0.198718  0  3.945255  0
C  C54  1  0.20082209  0.55144317  0.36650486  1  0  -0.182975  0  3.700282  0  0  -0.203291  0  3.957773  0  0  -0.210023  0  3.976441  0  0  -0.098097  -0.198634  0  3.945231  0
C  C55  1  0.70082838  0.94856236  0.63349559  1  0  -0.182939  0  3.700368  0  0  -0.203259  0  3.95789  0  0  -0.20999  0  3.97656  0  0  -0.098096  -0.198602  0  3.94535  0
C  C56  1  0.09620042  0.32163355  0.56826884  1  0  -0.122896  0  3.811154  0  0  -0.136782  0  4.062963  0  0  -0.143657  0  4.085806  0  0  -0.110132  -0.132093  0  4.047044  0
C  C57  1  0.59620284  0.17837539  0.43173133  1  0  -0.123086  0  3.811333  0  0  -0.13696  0  4.063135  0  0  -0.143832  0  4.08597  0  0  -0.110192  -0.132273  0  4.047221  0
C  C58  1  0.90379820  0.67837853  0.43173193  1  0  -0.122962  0  3.811148  0  0  -0.136831  0  4.062938  0  0  -0.143701  0  4.085776  0  0  -0.110094  -0.132146  0  4.047025  0
C  C59  1  0.40380404  0.82163150  0.56826887  1  0  -0.122804  0  3.811096  0  0  -0.136714  0  4.062908  0  0  -0.143586  0  4.085753  0  0  -0.110147  -0.132026  0  4.046989  0
C  C60  1  0.89445227  0.41068352  0.57393033  1  0  -0.041308  0  3.791837  0  0  -0.053089  0  4.036828  0  0  -0.050529  0  4.056355  0  0  -0.087371  -0.054357  0  4.022758  0
C  C61  1  0.39446363  0.08931858  0.42607179  1  0  -0.041392  0  3.791843  0  0  -0.053177  0  4.036874  0  0  -0.050617  0  4.056397  0  0  -0.087405  -0.054447  0  4.022812  0
C  C62  1  0.10553808  0.58932467  0.42607037  1  0  -0.041462  0  3.791839  0  0  -0.053269  0  4.036897  0  0  -0.050707  0  4.056417  0  0  -0.087489  -0.05454  0  4.022837  0
C  C63  1  0.60554656  0.91068448  0.57393073  1  0  -0.041326  0  3.791832  0  0  -0.053118  0  4.036847  0  0  -0.05056  0  4.056371  0  0  -0.087382  -0.054386  0  4.022777  0
C  C64  1  0.49138691  0.44588169  0.96863102  1  0  -0.245396  0  3.672598  0  0  -0.286641  0  3.921057  0  0  -0.290683  0  3.925036  0  0  -0.160622  -0.283057  0  3.916254  0
C  C65  1  0.99138873  0.05411288  0.03136944  1  0  -0.245336  0  3.672604  0  0  -0.286612  0  3.921143  0  0  -0.290656  0  3.925127  0  0  -0.160582  -0.283042  0  3.916331  0
C  C66  1  0.50860840  0.55411224  0.03136895  1  0  -0.245433  0  3.672785  0  0  -0.286677  0  3.921255  0  0  -0.290722  0  3.925237  0  0  -0.160571  -0.283109  0  3.916444  0
C  C67  1  0.00860988  0.94588496  0.96863156  1  0  -0.245492  0  3.672653  0  0  -0.286666  0  3.921081  0  0  -0.290707  0  3.925056  0  0  -0.160589  -0.283089  0  3.916278  0
C  C68  1  0.58583619  0.53358789  0.91224611  1  0  0.741438  0  3.814032  0  0  0.700916  0  4.102727  0  0  0.73491  0  4.101743  0  0  0.216239  0.677765  0  4.108402  0
C  C69  1  0.08583227  0.96640306  0.08775469  1  0  0.741538  0  3.813925  0  0  0.700975  0  4.102715  0  0  0.73497  0  4.101724  0  0  0.216193  0.677819  0  4.1084  0
C  C70  1  0.41416078  0.46640865  0.08775486  1  0  0.741486  0  3.814059  0  0  0.700957  0  4.102759  0  0  0.734951  0  4.101775  0  0  0.21623  0.677801  0  4.108444  0
C  C71  1  0.91416634  0.03359216  0.91224531  1  0  0.741594  0  3.813931  0  0  0.70095  0  4.102803  0  0  0.734945  0  4.101814  0  0  0.216182  0.677796  0  4.108482  0
O  O72  1  0.80965114  0.43289120  0.74706065  1  0  -0.890721  0  2.2061  0  0  -0.829249  0  2.485575  0  0  -0.87896  0  2.479875  0  0  -0.532348  -0.810522  0  2.489349  0
O  O73  1  0.30965298  0.06710933  0.25294058  1  0  -0.890733  0  2.206211  0  0  -0.829297  0  2.485675  0  0  -0.879015  0  2.479968  0  0  -0.532357  -0.81057  0  2.489453  0
O  O74  1  0.19034582  0.56710663  0.25293987  1  0  -0.890721  0  2.206231  0  0  -0.829262  0  2.485697  0  0  -0.878982  0  2.479992  0  0  -0.532357  -0.810533  0  2.48947  0
O  O75  1  0.69034894  0.93289111  0.74706094  1  0  -0.890771  0  2.206102  0  0  -0.8293  0  2.485568  0  0  -0.879014  0  2.479871  0  0  -0.532368  -0.810573  0  2.489344  0
O  O76  1  0.10441034  0.19341237  0.78791568  1  0  -0.74913  0  2.067933  0  0  -0.689073  0  2.313956  0  0  -0.726996  0  2.297697  0  0  -0.389986  -0.670494  0  2.322581  0
O  O77  1  0.60440792  0.30658880  0.21208387  1  0  -0.74912  0  2.067866  0  0  -0.689084  0  2.313895  0  0  -0.727012  0  2.297636  0  0  -0.389975  -0.670507  0  2.322521  0
O  O78  1  0.89558827  0.80658542  0.21208340  1  0  -0.749165  0  2.067879  0  0  -0.689102  0  2.313899  0  0  -0.72703  0  2.297635  0  0  -0.389975  -0.670526  0  2.322525  0
O  O79  1  0.39558904  0.69340769  0.78791519  1  0  -0.749187  0  2.067998  0  0  -0.689112  0  2.314006  0  0  -0.727031  0  2.297752  0  0  -0.389984  -0.670535  0  2.322632  0
O  O80  1  0.42911429  0.23353795  0.74011439  1  0  -0.701367  0  2.05701  0  0  -0.647609  0  2.310992  0  0  -0.683908  0  2.296745  0  0  -0.391799  -0.629815  0  2.316986  0
O  O81  1  0.92911602  0.26646674  0.25988393  1  0  -0.701403  0  2.057043  0  0  -0.647621  0  2.310972  0  0  -0.683922  0  2.296725  0  0  -0.391809  -0.629829  0  2.316968  0
O  O82  1  0.57088433  0.76646498  0.25988336  1  0  -0.701459  0  2.056984  0  0  -0.647683  0  2.310914  0  0  -0.683983  0  2.296656  0  0  -0.391809  -0.62989  0  2.316911  0
O  O83  1  0.07088425  0.73353236  0.74011566  1  0  -0.701407  0  2.056948  0  0  -0.64765  0  2.310919  0  0  -0.683946  0  2.296677  0  0  -0.39179  -0.629856  0  2.316915  0
O  O84  1  0.63469466  0.69292183  0.91582457  1  0  -0.673174  0  1.940745  0  0  -0.625187  0  2.172136  0  0  -0.65783  0  2.162537  0  0  -0.354914  -0.608043  0  2.177253  0
O  O85  1  0.13468829  0.80707182  0.08417478  1  0  -0.673206  0  1.940578  0  0  -0.625194  0  2.172003  0  0  -0.657821  0  2.162372  0  0  -0.354861  -0.608059  0  2.177139  0
O  O86  1  0.36531388  0.30706950  0.08417535  1  0  -0.673221  0  1.940503  0  0  -0.625229  0  2.171905  0  0  -0.65786  0  2.162276  0  0  -0.354902  -0.608094  0  2.177041  0
O  O87  1  0.86531528  0.19292595  0.91582382  1  0  -0.673229  0  1.940629  0  0  -0.625191  0  2.172064  0  0  -0.65782  0  2.162435  0  0  -0.354839  -0.608055  0  2.177198  0
O  O88  1  0.41456997  0.09286804  0.86529264  1  0  -0.879469  0  1.844085  0  0  -0.840877  0  2.040868  0  0  -0.868418  0  2.008329  0  0  -0.620425  -0.828693  0  2.059455  0
O  O89  1  0.91457071  0.40712625  0.13470550  1  0  -0.879385  0  1.844152  0  0  -0.840781  0  2.040939  0  0  -0.868328  0  2.008397  0  0  -0.620431  -0.828589  0  2.059507  0
O  O90  1  0.58542699  0.90712325  0.13470537  1  0  -0.879376  0  1.844138  0  0  -0.840762  0  2.040913  0  0  -0.868318  0  2.00841  0  0  -0.620393  -0.828569  0  2.05948  0
O  O91  1  0.08542956  0.59287024  0.86529308  1  0  -0.879456  0  1.844022  0  0  -0.840861  0  2.040808  0  0  -0.868407  0  2.008307  0  0  -0.620426  -0.828667  0  2.059375  0
O  O92  1  0.61310037  0.44512152  0.85895644  1  0  -0.833052  0  2.17603  0  0  -0.776794  0  2.444843  0  0  -0.824052  0  2.433987  0  0  -0.45382  -0.758089  0  2.451417  0
O  O93  1  0.11310024  0.05487065  0.14104437  1  0  -0.833136  0  2.176082  0  0  -0.776856  0  2.444928  0  0  -0.824122  0  2.434066  0  0  -0.453845  -0.758152  0  2.451508  0
O  O94  1  0.38688832  0.55487369  0.14104308  1  0  -0.833062  0  2.176223  0  0  -0.776797  0  2.445054  0  0  -0.824063  0  2.434197  0  0  -0.45386  -0.758094  0  2.451633  0
O  O95  1  0.88689838  0.94512588  0.85895612  1  0  -0.833145  0  2.176091  0  0  -0.77685  0  2.444955  0  0  -0.82411  0  2.434096  0  0  -0.453853  -0.758145  0  2.451531  0
