# generated using pymatgen
data_CdH10C12(SeN2)2
_symmetry_space_group_name_H-M   'P 1'
_cell_length_a   7.68414628
_cell_length_b   8.96261232
_cell_length_c   17.72976180
_cell_angle_alpha   97.16386752
_cell_angle_beta   98.14050463
_cell_angle_gamma   110.93039026
_symmetry_Int_Tables_number   1
_chemical_formula_structural   CdH10C12(SeN2)2
_chemical_formula_sum   'Cd3 H30 C36 Se6 N12'
_cell_volume   1108.51143450
_cell_formula_units_Z   3
loop_
 _symmetry_equiv_pos_site_id
 _symmetry_equiv_pos_as_xyz
  1  'x, y, z'
loop_
 _atom_site_type_symbol
 _atom_site_label
 _atom_site_symmetry_multiplicity
 _atom_site_fract_x
 _atom_site_fract_y
 _atom_site_fract_z
 _atom_site_occupancy
 _atom_site_hle17_bader_spin_density
 _atom_site_hle17_ddec_charge
 _atom_site_hle17_ddec_spin_density
 _atom_site_hle17_ddec_sum_bond_order
 _atom_site_hle17_magmom
 _atom_site_hse06_10hf_bader_spin_density
 _atom_site_hse06_10hf_ddec_charge
 _atom_site_hse06_10hf_ddec_spin_density
 _atom_site_hse06_10hf_ddec_sum_bond_order
 _atom_site_hse06_10hf_magmom
 _atom_site_hse06_bader_spin_density
 _atom_site_hse06_ddec_charge
 _atom_site_hse06_ddec_spin_density
 _atom_site_hse06_ddec_sum_bond_order
 _atom_site_hse06_magmom
 _atom_site_pbe_bader_spin_density
 _atom_site_pbe_cm5_charge
 _atom_site_pbe_ddec_charge
 _atom_site_pbe_ddec_spin_density
 _atom_site_pbe_ddec_sum_bond_order
 _atom_site_pbe_magmom
Cd  Cd0  1  0.81882685  0.82687787  0.83506904  1  0  0.889324  0  2.044475  0  0  0.706793  0  2.512283  0  0  0.753928  0  2.474137  0  0  0.678745  0.674198  0  2.53772  0
Cd  Cd1  1  0.18117591  0.17311953  0.16492945  1  0  0.889369  0  2.044431  0  0  0.706844  0  2.512236  0  0  0.753979  0  2.47409  0  0  0.678751  0.67425  0  2.537676  0
Cd  Cd2  1  0.49999677  0.49999870  0.49999924  1  0  0.896545  0  2.046895  0  0  0.71488  0  2.513531  0  0  0.762232  0  2.474449  0  0  0.685809  0.682106  0  2.539626  0
H  H3  1  0.50421511  0.46218658  0.79151264  1  0  0.069626  0  0.956092  0  0  0.075743  0  1.026365  0  0  0.077501  0  1.025245  0  0  0.105549  0.074445  0  1.027184  0
H  H4  1  0.49577974  0.53781081  0.20848817  1  0  0.069614  0  0.956097  0  0  0.075733  0  1.026376  0  0  0.077494  0  1.02525  0  0  0.105548  0.074436  0  1.0272  0
H  H5  1  0.38627494  0.20209163  0.84331937  1  0  0.095861  0  0.97723  0  0  0.099693  0  1.047886  0  0  0.102832  0  1.047836  0  0  0.095293  0.097418  0  1.048125  0
H  H6  1  0.61372414  0.79790942  0.15668363  1  0  0.095831  0  0.977192  0  0  0.099662  0  1.047848  0  0  0.102802  0  1.047797  0  0  0.095278  0.097383  0  1.048088  0
H  H7  1  0.53260731  0.20014909  0.97854964  1  0  0.091109  0  0.969835  0  0  0.097592  0  1.038987  0  0  0.099722  0  1.037749  0  0  0.096191  0.096004  0  1.039919  0
H  H8  1  0.46739519  0.79985075  0.02145237  1  0  0.091114  0  0.969809  0  0  0.097583  0  1.038967  0  0  0.099712  0  1.03773  0  0  0.096193  0.095996  0  1.0399  0
H  H9  1  0.78842394  0.45579094  0.05723720  1  0  0.097937  0  0.966691  0  0  0.102809  0  1.03612  0  0  0.106182  0  1.035562  0  0  0.098543  0.10044  0  1.036564  0
H  H10  1  0.21157833  0.54421133  0.94276438  1  0  0.097958  0  0.966671  0  0  0.102827  0  1.036097  0  0  0.106201  0  1.035534  0  0  0.098541  0.100453  0  1.036554  0
H  H11  1  0.89041089  0.70501253  0.99686895  1  0  0.075116  0  0.953252  0  0  0.08314  0  1.018881  0  0  0.084434  0  1.018318  0  0  0.109159  0.082197  0  1.019229  0
H  H12  1  0.10958636  0.29498730  0.00313104  1  0  0.075124  0  0.9532  0  0  0.083146  0  1.018839  0  0  0.084438  0  1.018282  0  0  0.109149  0.082197  0  1.019189  0
H  H13  1  0.80721656  0.17939729  0.85544392  1  0  0.076001  0  0.962675  0  0  0.082815  0  1.030865  0  0  0.084581  0  1.029982  0  0  0.108182  0.081483  0  1.031597  0
H  H14  1  0.19278253  0.82060375  0.14455851  1  0  0.076033  0  0.962712  0  0  0.082842  0  1.030894  0  0  0.08461  0  1.030009  0  0  0.108177  0.081509  0  1.031627  0
H  H15  1  0.91189469  0.44281709  0.80575395  1  0  0.108496  0  0.962895  0  0  0.114927  0  1.027715  0  0  0.117638  0  1.02791  0  0  0.103  0.112978  0  1.027762  0
H  H16  1  0.08810363  0.55718517  0.19424794  1  0  0.108569  0  0.962844  0  0  0.114981  0  1.027678  0  0  0.117695  0  1.02787  0  0  0.103018  0.113027  0  1.027729  0
H  H17  1  0.09615005  0.46599513  0.69906590  1  0  0.088989  0  0.985631  0  0  0.095103  0  1.056335  0  0  0.097375  0  1.054734  0  0  0.094942  0.09343  0  1.057469  0
H  H18  1  0.90384325  0.53400469  0.30093497  1  0  0.088968  0  0.985601  0  0  0.09508  0  1.056311  0  0  0.09735  0  1.05472  0  0  0.094929  0.093409  0  1.057442  0
H  H19  1  0.17103481  0.22746279  0.64667257  1  0  0.104997  0  0.962187  0  0  0.115504  0  1.019322  0  0  0.11787  0  1.020505  0  0  0.103957  0.113776  0  1.01869  0
H  H20  1  0.82896221  0.77253947  0.35332811  1  0  0.104975  0  0.96224  0  0  0.115484  0  1.019369  0  0  0.117841  0  1.020562  0  0  0.103942  0.113755  0  1.01874  0
H  H21  1  0.06091079  0.97548306  0.70432717  1  0  0.07584  0  0.950484  0  0  0.082665  0  1.018875  0  0  0.084609  0  1.017456  0  0  0.109548  0.081223  0  1.019933  0
H  H22  1  0.93908699  0.02451799  0.29567349  1  0  0.07576  0  0.950579  0  0  0.082571  0  1.018976  0  0  0.084515  0  1.017558  0  0  0.109535  0.081128  0  1.020031  0
H  H23  1  0.76981801  0.87503106  0.56783343  1  0  0.069538  0  0.953683  0  0  0.07499  0  1.024452  0  0  0.076706  0  1.023519  0  0  0.106279  0.073739  0  1.025099  0
H  H24  1  0.23017924  0.12496876  0.43216542  1  0  0.069543  0  0.95363  0  0  0.074985  0  1.024412  0  0  0.076702  0  1.023478  0  0  0.106272  0.073733  0  1.025057  0
H  H25  1  0.86316560  0.15327167  0.53313285  1  0  0.098595  0  0.962742  0  0  0.104585  0  1.031049  0  0  0.107909  0  1.030217  0  0  0.099155  0.102209  0  1.031787  0
H  H26  1  0.13683375  0.84672695  0.46686663  1  0  0.098594  0  0.962765  0  0  0.104585  0  1.031068  0  0  0.107909  0  1.030236  0  0  0.099153  0.102211  0  1.031804  0
H  H27  1  0.71529954  0.17962461  0.40321877  1  0  0.087674  0  0.988381  0  0  0.093669  0  1.059578  0  0  0.09585  0  1.058269  0  0  0.093211  0.092022  0  1.060603  0
H  H28  1  0.28470035  0.82037522  0.59678025  1  0  0.087661  0  0.988414  0  0  0.093661  0  1.059598  0  0  0.095841  0  1.058292  0  0  0.093198  0.092013  0  1.060632  0
H  H29  1  0.47839713  0.92899191  0.31233284  1  0  0.095875  0  0.97622  0  0  0.100789  0  1.045147  0  0  0.103769  0  1.045468  0  0  0.094889  0.098655  0  1.045056  0
H  H30  1  0.52160144  0.07100792  0.68766667  1  0  0.095904  0  0.976182  0  0  0.100786  0  1.045139  0  0  0.103771  0  1.045455  0  0  0.094892  0.098645  0  1.045052  0
H  H31  1  0.40019817  0.65988075  0.35608489  1  0  0.071238  0  0.964598  0  0  0.078235  0  1.033595  0  0  0.07944  0  1.033039  0  0  0.106347  0.077304  0  1.034019  0
H  H32  1  0.59980118  0.34011786  0.64391346  1  0  0.071287  0  0.964596  0  0  0.078276  0  1.033614  0  0  0.079484  0  1.033055  0  0  0.106357  0.077352  0  1.034037  0
C  C33  1  0.20481759  0.96026302  0.99222320  1  0  0.229914  0  3.829514  0  0  0.216135  0  4.138885  0  0  0.237789  0  4.150509  0  0  0.107497  0.201389  0  4.130691  0
C  C34  1  0.79518176  0.03973560  0.00777684  1  0  0.229932  0  3.829425  0  0  0.216156  0  4.138802  0  0  0.237811  0  4.150427  0  0  0.107488  0.201405  0  4.130616  0
C  C35  1  0.87335906  0.63560570  0.66319976  1  0  0.225084  0  3.831536  0  0  0.211892  0  4.141692  0  0  0.233651  0  4.15321  0  0  0.10545  0.197086  0  4.133489  0
C  C36  1  0.12664456  0.36439657  0.33679739  1  0  0.225347  0  3.831277  0  0  0.212163  0  4.141424  0  0  0.233923  0  4.152942  0  0  0.105629  0.19736  0  4.133206  0
C  C37  1  0.44239772  0.66889493  0.67729001  1  0  0.228571  0  3.828932  0  0  0.21701  0  4.133851  0  0  0.238293  0  4.145915  0  0  0.104285  0.202527  0  4.125295  0
C  C38  1  0.55760479  0.33110490  0.32271030  1  0  0.228643  0  3.829003  0  0  0.217089  0  4.133914  0  0  0.238372  0  4.145979  0  0  0.104347  0.202608  0  4.125351  0
C  C39  1  0.56377973  0.45463095  0.84993865  1  0  0.115885  0  3.727194  0  0  0.087892  0  3.972316  0  0  0.094704  0  3.991862  0  0  0.03923  0.083541  0  3.958911  0
C  C40  1  0.43621774  0.54536645  0.15006289  1  0  0.11596  0  3.727339  0  0  0.087951  0  3.972467  0  0  0.094763  0  3.992015  0  0  0.039275  0.083602  0  3.959058  0
C  C41  1  0.49853649  0.31136006  0.87885127  1  0  -0.126957  0  3.741961  0  0  -0.132964  0  3.983918  0  0  -0.140665  0  4.006104  0  0  -0.087794  -0.128003  0  3.968984  0
C  C42  1  0.50145967  0.68863733  0.12115018  1  0  -0.126942  0  3.741996  0  0  -0.13294  0  3.983934  0  0  -0.140642  0  4.006122  0  0  -0.087795  -0.127966  0  3.968988  0
C  C43  1  0.57975408  0.31040508  0.95427310  1  0  0.001417  0  3.713804  0  0  -0.016179  0  3.955748  0  0  -0.013088  0  3.975633  0  0  -0.06713  -0.017879  0  3.942126  0
C  C44  1  0.42024448  0.68959475  0.04572754  1  0  0.001455  0  3.71385  0  0  -0.016122  0  3.955779  0  0  -0.013031  0  3.975665  0  0  -0.067116  -0.017829  0  3.94216  0
C  C45  1  0.72236302  0.45275753  0.99814803  1  0  -0.120765  0  3.734707  0  0  -0.128906  0  3.978442  0  0  -0.136489  0  4.000979  0  0  -0.086212  -0.124053  0  3.963336  0
C  C46  1  0.27763980  0.54724596  0.00185253  1  0  -0.120808  0  3.734672  0  0  -0.128946  0  3.9784  0  0  -0.136528  0  4.000935  0  0  -0.086202  -0.124097  0  3.963295  0
C  C47  1  0.77950170  0.59087904  0.96487378  1  0  0.121984  0  3.714352  0  0  0.093772  0  3.959672  0  0  0.10047  0  3.979839  0  0  0.04233  0.0895  0  3.945898  0
C  C48  1  0.22049926  0.40912322  0.03512715  1  0  0.121938  0  3.714173  0  0  0.093723  0  3.959501  0  0  0.10042  0  3.979666  0  0  0.042278  0.089465  0  3.945718  0
C  C49  1  0.88868385  0.19633959  0.80934535  1  0  0.117124  0  3.711808  0  0  0.089629  0  3.955553  0  0  0.096628  0  3.974108  0  0  0.03994  0.085148  0  3.942879  0
C  C50  1  0.11131656  0.80366146  0.19065661  1  0  0.117082  0  3.711954  0  0  0.089612  0  3.955668  0  0  0.096609  0  3.974223  0  0  0.039922  0.085126  0  3.942996  0
C  C51  1  0.94672927  0.34154786  0.78165998  1  0  -0.121486  0  3.718178  0  0  -0.127617  0  3.959311  0  0  -0.134854  0  3.980913  0  0  -0.085254  -0.123037  0  3.944865  0
C  C52  1  0.05327169  0.65845441  0.21834096  1  0  -0.121533  0  3.718095  0  0  -0.127659  0  3.959227  0  0  -0.134896  0  3.980828  0  0  -0.085261  -0.123074  0  3.944781  0
C  C53  1  0.04912691  0.35433790  0.72211373  1  0  -0.001725  0  3.724207  0  0  -0.021975  0  3.970082  0  0  -0.018485  0  3.989141  0  0  -0.067743  -0.024008  0  3.957151  0
C  C54  1  0.95086956  0.64566314  0.27788741  1  0  -0.001694  0  3.724009  0  0  -0.021945  0  3.969888  0  0  -0.018456  0  3.988944  0  0  -0.067726  -0.023977  0  3.956955  0
C  C55  1  0.09075385  0.22175097  0.69292345  1  0  -0.126002  0  3.726279  0  0  -0.130607  0  3.964035  0  0  -0.138006  0  3.985825  0  0  -0.085588  -0.125846  0  3.949406  0
C  C56  1  0.90924316  0.77825129  0.30707780  1  0  -0.126014  0  3.726284  0  0  -0.130625  0  3.964047  0  0  -0.138014  0  3.985835  0  0  -0.085583  -0.125869  0  3.949424  0
C  C57  1  0.02954042  0.08147586  0.72454856  1  0  0.117701  0  3.719169  0  0  0.089942  0  3.965208  0  0  0.096936  0  3.983886  0  0  0.041601  0.085438  0  3.952474  0
C  C58  1  0.97045790  0.91852640  0.27545277  1  0  0.117865  0  3.719233  0  0  0.090124  0  3.965269  0  0  0.097121  0  3.983942  0  0  0.041627  0.085625  0  3.952532  0
C  C59  1  0.70863848  0.89310669  0.51193465  1  0  0.119306  0  3.727616  0  0  0.091486  0  3.974523  0  0  0.098181  0  3.994519  0  0  0.040568  0.087211  0  3.960866  0
C  C60  1  0.29136087  0.10689193  0.48806483  1  0  0.119325  0  3.72767  0  0  0.091513  0  3.974575  0  0  0.098207  0  3.994572  0  0  0.040597  0.087244  0  3.960907  0
C  C61  1  0.76035296  0.04661504  0.49237721  1  0  -0.120842  0  3.740437  0  0  -0.130644  0  3.987238  0  0  -0.137915  0  4.009471  0  0  -0.08708  -0.126022  0  3.972356  0
C  C62  1  0.23964716  0.95338236  0.50762168  1  0  -0.120799  0  3.740427  0  0  -0.130606  0  3.987226  0  0  -0.137876  0  4.009457  0  0  -0.087055  -0.125979  0  3.972337  0
C  C63  1  0.67727684  0.06092215  0.41987609  1  0  -0.00204  0  3.717969  0  0  -0.020338  0  3.960673  0  0  -0.017125  0  3.980314  0  0  -0.06965  -0.022139  0  3.947298  0
C  C64  1  0.32272174  0.93907768  0.58012285  1  0  -0.002077  0  3.7181  0  0  -0.020374  0  3.960779  0  0  -0.017161  0  3.980421  0  0  -0.069651  -0.022185  0  3.947417  0
C  C65  1  0.54554167  0.92136694  0.36942299  1  0  -0.128363  0  3.739247  0  0  -0.134805  0  3.981651  0  0  -0.142823  0  4.003959  0  0  -0.08962  -0.129645  0  3.966612  0
C  C66  1  0.45445768  0.07863167  0.63057536  1  0  -0.128345  0  3.739223  0  0  -0.134745  0  3.98161  0  0  -0.142768  0  4.003914  0  0  -0.089626  -0.129576  0  3.966568  0
C  C67  1  0.50190663  0.77240217  0.39338691  1  0  0.115819  0  3.732162  0  0  0.086397  0  3.980205  0  0  0.093498  0  3.999634  0  0  0.038753  0.08188  0  3.966924  0
C  C68  1  0.49809380  0.22759888  0.60661223  1  0  0.115718  0  3.732256  0  0  0.086279  0  3.980296  0  0  0.093378  0  3.99973  0  0  0.038717  0.081758  0  3.967003  0
Se  Se69  1  0.19979755  0.87068737  0.89489924  1  0  -0.26671  0  2.05638  0  0  -0.241648  0  2.433102  0  0  -0.260763  0  2.421651  0  0  -0.077626  -0.228169  0  2.440574  0
Se  Se70  1  0.80020335  0.12930882  0.10510018  1  0  -0.266696  0  2.056384  0  0  -0.24163  0  2.433098  0  0  -0.260746  0  2.421648  0  0  -0.07761  -0.228148  0  2.440574  0
Se  Se71  1  0.88902967  0.57197423  0.56490722  1  0  -0.266844  0  2.017913  0  0  -0.241325  0  2.385029  0  0  -0.260579  0  2.373774  0  0  -0.074443  -0.227663  0  2.392306  0
Se  Se72  1  0.11096893  0.42802560  0.43508834  1  0  -0.266929  0  2.017963  0  0  -0.241423  0  2.385085  0  0  -0.260677  0  2.373831  0  0  -0.074492  -0.227767  0  2.392359  0
Se  Se73  1  0.44076815  0.77948162  0.76899838  1  0  -0.270066  0  2.045884  0  0  -0.245986  0  2.415912  0  0  -0.26525  0  2.404791  0  0  -0.081544  -0.232286  0  2.42298  0
Se  Se74  1  0.55923538  0.22051457  0.23100121  1  0  -0.270096  0  2.045791  0  0  -0.246024  0  2.415819  0  0  -0.265287  0  2.404697  0  0  -0.08157  -0.232349  0  2.42292  0
N  N75  1  0.21096292  0.01527489  0.05700163  1  0  -0.494719  0  2.928263  0  0  -0.438172  0  3.207765  0  0  -0.4568  0  3.213507  0  0  -0.383105  -0.42554  0  3.203724  0
N  N76  1  0.78903644  0.98472373  0.94299672  1  0  -0.494773  0  2.928137  0  0  -0.438221  0  3.207626  0  0  -0.456848  0  3.213368  0  0  -0.383128  -0.425602  0  3.203616  0
N  N77  1  0.86317984  0.67366686  0.72812810  1  0  -0.494968  0  2.906544  0  0  -0.437717  0  3.183972  0  0  -0.456513  0  3.190237  0  0  -0.382731  -0.424932  0  3.179532  0
N  N78  1  0.13682643  0.32633542  0.27186696  1  0  -0.495157  0  2.906354  0  0  -0.437922  0  3.183809  0  0  -0.456717  0  3.190071  0  0  -0.382852  -0.425134  0  3.179361  0
N  N79  1  0.43642125  0.59403771  0.61671013  1  0  -0.491008  0  2.915528  0  0  -0.433841  0  3.190455  0  0  -0.452672  0  3.197019  0  0  -0.383639  -0.421051  0  3.185799  0
N  N80  1  0.56357833  0.40595847  0.38328921  1  0  -0.491059  0  2.915672  0  0  -0.433879  0  3.190563  0  0  -0.452709  0  3.197126  0  0  -0.383682  -0.421087  0  3.1859  0
N  N81  1  0.70236563  0.59171159  0.89197287  1  0  -0.333537  0  3.294305  0  0  -0.253841  0  3.550342  0  0  -0.274447  0  3.572224  0  0  -0.331324  -0.239824  0  3.535107  0
N  N82  1  0.29763502  0.40828703  0.10802782  1  0  -0.33359  0  3.294368  0  0  -0.25387  0  3.55037  0  0  -0.274476  0  3.572255  0  0  -0.331316  -0.239861  0  3.535138  0
N  N83  1  0.92963306  0.06868826  0.78152980  1  0  -0.335898  0  3.300575  0  0  -0.257272  0  3.556728  0  0  -0.27773  0  3.578589  0  0  -0.330533  -0.243379  0  3.541518  0
N  N84  1  0.07036789  0.93131401  0.21847227  1  0  -0.335973  0  3.300614  0  0  -0.257365  0  3.556772  0  0  -0.277823  0  3.578632  0  0  -0.330533  -0.243471  0  3.541562  0
N  N85  1  0.58218163  0.75850540  0.46334643  1  0  -0.335366  0  3.304249  0  0  -0.256821  0  3.562354  0  0  -0.277421  0  3.583815  0  0  -0.334524  -0.242802  0  3.54734  0
N  N86  1  0.41781903  0.24149322  0.53665313  1  0  -0.335352  0  3.304427  0  0  -0.256795  0  3.562509  0  0  -0.277396  0  3.583974  0  0  -0.334526  -0.242788  0  3.547507  0
