# generated using pymatgen
data_SmH14C7N10ClO6
_symmetry_space_group_name_H-M   'P 1'
_cell_length_a   8.81592119
_cell_length_b   10.02475590
_cell_length_c   10.07000139
_cell_angle_alpha   65.34066087
_cell_angle_beta   85.01770684
_cell_angle_gamma   70.79062107
_symmetry_Int_Tables_number   1
_chemical_formula_structural   SmH14C7N10ClO6
_chemical_formula_sum   'Sm2 H28 C14 N20 Cl2 O12'
_cell_volume   762.44905595
_cell_formula_units_Z   2
loop_
 _symmetry_equiv_pos_site_id
 _symmetry_equiv_pos_as_xyz
  1  'x, y, z'
loop_
 _atom_site_type_symbol
 _atom_site_label
 _atom_site_symmetry_multiplicity
 _atom_site_fract_x
 _atom_site_fract_y
 _atom_site_fract_z
 _atom_site_occupancy
 _atom_site_hle17_bader_spin_density
 _atom_site_hle17_ddec_charge
 _atom_site_hle17_ddec_spin_density
 _atom_site_hle17_ddec_sum_bond_order
 _atom_site_hle17_magmom
 _atom_site_hse06_10hf_bader_spin_density
 _atom_site_hse06_10hf_ddec_charge
 _atom_site_hse06_10hf_ddec_spin_density
 _atom_site_hse06_10hf_ddec_sum_bond_order
 _atom_site_hse06_10hf_magmom
 _atom_site_hse06_bader_spin_density
 _atom_site_hse06_ddec_charge
 _atom_site_hse06_ddec_spin_density
 _atom_site_hse06_ddec_sum_bond_order
 _atom_site_hse06_magmom
 _atom_site_pbe_bader_spin_density
 _atom_site_pbe_cm5_charge
 _atom_site_pbe_ddec_charge
 _atom_site_pbe_ddec_spin_density
 _atom_site_pbe_ddec_sum_bond_order
 _atom_site_pbe_magmom
Sm  Sm0  1  0.10832582  0.17782901  0.05901196  1  0  2.258534  0  1.651688  0  0  2.097822  0  2.126702  0  0  2.20343  0  1.965191  0  0  1.416191  2.06235  0  2.16168  0
Sm  Sm1  1  0.89167447  0.82217079  0.94098894  1  0  2.258529  0  1.651699  0  0  2.09782  0  2.126707  0  0  2.203423  0  1.965203  0  0  1.416185  2.062348  0  2.161688  0
H  H2  1  0.21895800  0.84029721  0.10442164  1  0  0.427907  0  0.864436  0  0  0.397812  0  0.93332  0  0  0.408849  0  0.917458  0  0  0.304098  0.390294  0  0.944304  0
H  H3  1  0.78104227  0.15970259  0.89557827  1  0  0.427912  0  0.864426  0  0  0.397816  0  0.933314  0  0  0.408853  0  0.917451  0  0  0.304104  0.390298  0  0.944298  0
H  H4  1  0.36997664  0.89495346  0.06922583  1  0  0.411374  0  0.890814  0  0  0.38524  0  0.953708  0  0  0.394695  0  0.9403  0  0  0.273033  0.378489  0  0.96343  0
H  H5  1  0.63002365  0.10504634  0.93077508  1  0  0.411372  0  0.890809  0  0  0.385233  0  0.953719  0  0  0.394687  0  0.940311  0  0  0.27302  0.378482  0  0.96344  0
H  H6  1  0.84331042  0.36591495  0.81917584  1  0  0.344992  0  0.948398  0  0  0.309241  0  1.038033  0  0  0.319373  0  1.028572  0  0  0.303564  0.301513  0  1.045728  0
H  H7  1  0.15668872  0.63408484  0.18082416  1  0  0.344972  0  0.948413  0  0  0.309221  0  1.038046  0  0  0.319355  0  1.028581  0  0  0.303557  0.301492  0  1.045745  0
H  H8  1  0.49496335  0.81565523  0.74592151  1  0  0.328891  0  0.923929  0  0  0.31001  0  0.992915  0  0  0.316926  0  0.987454  0  0  0.282932  0.305237  0  0.996271  0
H  H9  1  0.50503693  0.18434457  0.25407939  1  0  0.328871  0  0.92398  0  0  0.310014  0  0.992933  0  0  0.316931  0  0.987471  0  0  0.282946  0.30524  0  0.99629  0
H  H10  1  0.55394709  0.71252180  0.63442569  1  0  0.324606  0  0.949372  0  0  0.295686  0  1.033487  0  0  0.304739  0  1.025379  0  0  0.291702  0.289313  0  1.039125  0
H  H11  1  0.44605280  0.28747916  0.36557476  1  0  0.324593  0  0.949387  0  0  0.29568  0  1.033493  0  0  0.304733  0  1.025385  0  0  0.291691  0.289307  0  1.039131  0
H  H12  1  0.42072822  0.31986288  0.77785329  1  0  0.331199  0  0.90776  0  0  0.312199  0  0.977336  0  0  0.319433  0  0.970966  0  0  0.293353  0.307176  0  0.981432  0
H  H13  1  0.57927319  0.68013691  0.22214654  1  0  0.331197  0  0.907764  0  0  0.312197  0  0.97734  0  0  0.319432  0  0.970969  0  0  0.293349  0.307173  0  0.981436  0
H  H14  1  0.53116054  0.24537617  0.65758793  1  0  0.334746  0  0.921928  0  0  0.306831  0  1.006275  0  0  0.315672  0  0.99781  0  0  0.29487  0.300677  0  1.011951  0
H  H15  1  0.46883860  0.75462363  0.34241207  1  0  0.334753  0  0.921921  0  0  0.306838  0  1.00627  0  0  0.315679  0  0.997804  0  0  0.294871  0.300683  0  1.011945  0
H  H16  1  0.18763378  0.22923271  0.60911132  1  0  0.126387  0  0.945944  0  0  0.128483  0  1.022915  0  0  0.131301  0  1.020806  0  0  0.128955  0.126433  0  1.024432  0
H  H17  1  0.81236536  0.77076709  0.39088868  1  0  0.126383  0  0.945946  0  0  0.128471  0  1.022941  0  0  0.13129  0  1.020829  0  0  0.128948  0.126422  0  1.024457  0
H  H18  1  0.35446690  0.07227208  0.71870311  1  0  0.120335  0  0.933161  0  0  0.127985  0  1.002802  0  0  0.130857  0  1.000831  0  0  0.120515  0.125948  0  1.004107  0
H  H19  1  0.64553299  0.92772888  0.28129635  1  0  0.12033  0  0.933169  0  0  0.127973  0  1.002811  0  0  0.13084  0  1.000852  0  0  0.120509  0.125937  0  1.004111  0
H  H20  1  0.10713315  0.75099413  0.61251834  1  0  0.130639  0  0.935177  0  0  0.132715  0  1.009657  0  0  0.136204  0  1.006291  0  0  0.130902  0.130189  0  1.012109  0
H  H21  1  0.89286674  0.24900683  0.38748211  1  0  0.130658  0  0.935232  0  0  0.132742  0  1.009696  0  0  0.13623  0  1.006329  0  0  0.130904  0.130215  0  1.012148  0
H  H22  1  0.29325887  0.62324493  0.71224449  1  0  0.11425  0  0.930751  0  0  0.126618  0  0.994998  0  0  0.129254  0  0.993191  0  0  0.121934  0.12443  0  0.996833  0
H  H23  1  0.70674027  0.37675487  0.28775651  1  0  0.114268  0  0.930725  0  0  0.126631  0  0.994983  0  0  0.129267  0  0.993175  0  0  0.121929  0.124442  0  0.996818  0
H  H24  1  0.59055318  0.44272282  0.89268363  1  0  0.075106  0  0.937861  0  0  0.093867  0  1.002696  0  0  0.094604  0  1.00229  0  0  0.091309  0.093449  0  1.002618  0
H  H25  1  0.40944596  0.55727698  0.10731637  1  0  0.075116  0  0.937869  0  0  0.093877  0  1.002707  0  0  0.094613  0  1.002302  0  0  0.091314  0.093459  0  1.002629  0
H  H26  1  0.71735622  0.51186936  0.96000243  1  0  0.080819  0  0.956921  0  0  0.094174  0  1.027373  0  0  0.095287  0  1.027206  0  0  0.095848  0.093345  0  1.027552  0
H  H27  1  0.28264444  0.48812928  0.03999695  1  0  0.080815  0  0.956921  0  0  0.094169  0  1.027379  0  0  0.095282  0  1.027211  0  0  0.095855  0.09334  0  1.027556  0
H  H28  1  0.66757276  0.34132838  0.07849933  1  0  0.080549  0  0.959762  0  0  0.096847  0  1.029798  0  0  0.097283  0  1.030381  0  0  0.095896  0.096046  0  1.030167  0
H  H29  1  0.33242712  0.65867258  0.92149914  1  0  0.080565  0  0.959755  0  0  0.096859  0  1.029796  0  0  0.097295  0  1.030379  0  0  0.095891  0.096059  0  1.030165  0
C  C30  1  0.12285150  0.04515574  0.77805174  1  0  0.75881  0  3.828171  0  0  0.712601  0  4.128957  0  0  0.747147  0  4.121243  0  0  0.238125  0.68911  0  4.13598  0
C  C31  1  0.87714878  0.95484406  0.22194916  1  0  0.758832  0  3.82825  0  0  0.712598  0  4.129066  0  0  0.747143  0  4.121352  0  0  0.23812  0.689106  0  4.136088  0
C  C32  1  0.23803052  0.10278551  0.66311311  1  0  -0.177676  0  3.625215  0  0  -0.237055  0  3.867565  0  0  -0.237374  0  3.871232  0  0  -0.047819  -0.236643  0  3.864633  0
C  C33  1  0.76196976  0.89721429  0.33688581  1  0  -0.177672  0  3.625227  0  0  -0.237051  0  3.86761  0  0  -0.237365  0  3.871268  0  0  -0.047815  -0.236638  0  3.864676  0
C  C34  1  0.36672717  0.91126893  0.54901756  1  0  0.514518  0  3.822694  0  0  0.45743  0  4.114682  0  0  0.479911  0  4.123586  0  0  0.342288  0.442713  0  4.107391  0
C  C35  1  0.63327311  0.08873087  0.45098235  1  0  0.514477  0  3.822729  0  0  0.457386  0  4.114727  0  0  0.479866  0  4.123631  0  0  0.342272  0.442669  0  4.107437  0
C  C36  1  0.09016131  0.54676181  0.79885761  1  0  0.763027  0  3.814852  0  0  0.721552  0  4.108036  0  0  0.756158  0  4.099507  0  0  0.243393  0.698168  0  4.115035  0
C  C37  1  0.90983783  0.45323799  0.20114239  1  0  0.763025  0  3.814823  0  0  0.721573  0  4.10798  0  0  0.756179  0  4.09945  0  0  0.243402  0.69819  0  4.11498  0
C  C38  1  0.17930504  0.62906695  0.66944303  1  0  -0.172575  0  3.616003  0  0  -0.234991  0  3.858585  0  0  -0.235172  0  3.862354  0  0  -0.04452  -0.23461  0  3.855732  0
C  C39  1  0.82069410  0.37093285  0.33055797  1  0  -0.172604  0  3.616045  0  0  -0.235047  0  3.858665  0  0  -0.235228  0  3.862432  0  0  -0.044526  -0.234666  0  3.855813  0
C  C40  1  0.33387228  0.43401031  0.56531387  1  0  0.520463  0  3.822075  0  0  0.462974  0  4.111444  0  0  0.485823  0  4.120212  0  0  0.347123  0.447758  0  4.105079  0
C  C41  1  0.66612761  0.56599065  0.43468658  1  0  0.520478  0  3.822124  0  0  0.46299  0  4.111478  0  0  0.48584  0  4.120245  0  0  0.347125  0.447773  0  4.105113  0
C  C42  1  0.69432152  0.40806350  0.96680636  1  0  -0.01426  0  3.61805  0  0  -0.106141  0  3.880284  0  0  -0.100556  0  3.88675  0  0  -0.152006  -0.109662  0  3.8767  0
C  C43  1  0.30567875  0.59193630  0.03319256  1  0  -0.0143  0  3.618043  0  0  -0.106177  0  3.880267  0  0  -0.100592  0  3.886734  0  0  -0.152015  -0.109697  0  3.876684  0
N  N44  1  0.23167845  0.05161012  0.34131378  1  0  -0.150202  0  3.189592  0  0  -0.132442  0  3.513186  0  0  -0.136992  0  3.524312  0  0  -0.121724  -0.133507  0  3.507075  0
N  N45  1  0.76832145  0.94839084  0.65868667  1  0  -0.150189  0  3.189563  0  0  -0.132425  0  3.513154  0  0  -0.136975  0  3.52428  0  0  -0.121715  -0.133491  0  3.507045  0
N  N46  1  0.17988745  0.13160898  0.41849972  1  0  -0.074978  0  2.918638  0  0  -0.084382  0  3.214535  0  0  -0.081539  0  3.227256  0  0  -0.068725  -0.086753  0  3.208971  0
N  N47  1  0.82011169  0.86839082  0.58150028  1  0  -0.075008  0  2.918683  0  0  -0.084417  0  3.214584  0  0  -0.081574  0  3.227305  0  0  -0.068743  -0.086786  0  3.20902  0
N  N48  1  0.26333465  0.04560847  0.55035798  1  0  -0.048972  0  3.502831  0  0  0.037072  0  3.731117  0  0  0.022855  0  3.752659  0  0  -0.13183  0.046816  0  3.71586  0
N  N49  1  0.73666563  0.95439133  0.44964293  1  0  -0.048953  0  3.502857  0  0  0.037103  0  3.731126  0  0  0.022885  0  3.752667  0  0  -0.131822  0.046847  0  3.715869  0
N  N50  1  0.34749382  0.91429702  0.41638651  1  0  -0.359609  0  2.906199  0  0  -0.328825  0  3.194054  0  0  -0.343184  0  3.206263  0  0  -0.221601  -0.319239  0  3.18724  0
N  N51  1  0.65250532  0.08570278  0.58361350  1  0  -0.35959  0  2.906216  0  0  -0.328809  0  3.194079  0  0  -0.343168  0  3.206287  0  0  -0.221595  -0.319223  0  3.187266  0
N  N52  1  0.46669468  0.79513724  0.66108948  1  0  -0.690106  0  3.109934  0  0  -0.654717  0  3.361802  0  0  -0.675239  0  3.356418  0  0  -0.578326  -0.640165  0  3.364869  0
N  N53  1  0.53330560  0.20486256  0.33891143  1  0  -0.690057  0  3.109994  0  0  -0.654693  0  3.361838  0  0  -0.675214  0  3.356452  0  0  -0.578321  -0.640139  0  3.364904  0
N  N54  1  0.21499990  0.56263470  0.56320700  1  0  -0.045016  0  3.494071  0  0  0.039849  0  3.725143  0  0  0.025319  0  3.747298  0  0  -0.127623  0.0493  0  3.710109  0
N  N55  1  0.78500039  0.43736510  0.43679390  1  0  -0.045084  0  3.494147  0  0  0.039792  0  3.725213  0  0  0.025264  0  3.747367  0  0  -0.127631  0.049243  0  3.71018  0
N  N56  1  0.12539459  0.63269898  0.43461342  1  0  -0.078808  0  2.848343  0  0  -0.088628  0  3.133219  0  0  -0.086195  0  3.142887  0  0  -0.067236  -0.09024  0  3.126714  0
N  N57  1  0.87460455  0.36730082  0.56538659  1  0  -0.078765  0  2.848357  0  0  -0.088589  0  3.133237  0  0  -0.086159  0  3.14291  0  0  -0.067234  -0.090202  0  3.126733  0
N  N58  1  0.19000792  0.54985082  0.36214589  1  0  -0.036345  0  3.115747  0  0  -0.015232  0  3.415968  0  0  -0.01231  0  3.423243  0  0  -0.067678  -0.016415  0  3.41031  0
N  N59  1  0.80999236  0.45014897  0.63785402  1  0  -0.036401  0  3.115749  0  0  -0.015297  0  3.415982  0  0  -0.012375  0  3.423259  0  0  -0.06769  -0.01648  0  3.410323  0
N  N60  1  0.31823302  0.42608313  0.43718143  1  0  -0.378109  0  2.937656  0  0  -0.344971  0  3.220525  0  0  -0.360211  0  3.229517  0  0  -0.223282  -0.334851  0  3.214107  0
N  N61  1  0.68176687  0.57391783  0.56281902  1  0  -0.378043  0  2.937657  0  0  -0.344886  0  3.220504  0  0  -0.360126  0  3.2295  0  0  -0.223252  -0.334766  0  3.214087  0
N  N62  1  0.44912938  0.33829892  0.67248361  1  0  -0.681675  0  3.101577  0  0  -0.650298  0  3.354145  0  0  -0.670065  0  3.348082  0  0  -0.579085  -0.636069  0  3.357349  0
N  N63  1  0.55087090  0.66170087  0.32751631  1  0  -0.681695  0  3.101571  0  0  -0.650319  0  3.354136  0  0  -0.670086  0  3.348071  0  0  -0.579092  -0.63609  0  3.35734  0
Cl  Cl64  1  0.42808541  0.17808127  0.04678399  1  0  -0.696024  0  0.824196  0  0  -0.645014  0  1.063579  0  0  -0.667136  0  1.034684  0  0  -0.298485  -0.635137  0  1.076468  0
Cl  Cl65  1  0.57191487  0.82191853  0.95321592  1  0  -0.696025  0  0.824196  0  0  -0.645012  0  1.063578  0  0  -0.667133  0  1.034683  0  0  -0.298481  -0.635131  0  1.076463  0
O  O66  1  0.07071068  0.94175159  0.77811237  1  0  -0.708266  0  1.998809  0  0  -0.662775  0  2.255592  0  0  -0.694864  0  2.243026  0  0  -0.388011  -0.64524  0  2.262404  0
O  O67  1  0.92928960  0.05824821  0.22188854  1  0  -0.70824  0  1.998853  0  0  -0.662732  0  2.255645  0  0  -0.694822  0  2.243079  0  0  -0.387987  -0.645198  0  2.262456  0
O  O68  1  0.08887081  0.10796546  0.86751463  1  0  -0.753582  0  2.097541  0  0  -0.700384  0  2.368133  0  0  -0.734546  0  2.354175  0  0  -0.409589  -0.682323  0  2.37721  0
O  O69  1  0.91113100  0.89203318  0.13248664  1  0  -0.753627  0  2.097568  0  0  -0.700425  0  2.368182  0  0  -0.734587  0  2.354224  0  0  -0.409608  -0.682364  0  2.377259  0
O  O70  1  0.12078616  0.40285801  0.83922862  1  0  -0.730996  0  2.053994  0  0  -0.686968  0  2.31401  0  0  -0.718662  0  2.300869  0  0  -0.384408  -0.669809  0  2.320761  0
O  O71  1  0.87921412  0.59714179  0.16077129  1  0  -0.730993  0  2.053992  0  0  -0.686969  0  2.313996  0  0  -0.718666  0  2.300863  0  0  -0.384406  -0.66981  0  2.320746  0
O  O72  1  0.99668022  0.62998693  0.85773117  1  0  -0.749392  0  2.082769  0  0  -0.700582  0  2.354473  0  0  -0.735404  0  2.339358  0  0  -0.418137  -0.682412  0  2.363003  0
O  O73  1  0.00331967  0.37001402  0.14226829  1  0  -0.749376  0  2.082743  0  0  -0.700584  0  2.354461  0  0  -0.735405  0  2.339347  0  0  -0.418143  -0.682412  0  2.36299  0
O  O74  1  0.27133980  0.90426169  0.12447400  1  0  -0.888202  0  1.92616  0  0  -0.840246  0  2.123737  0  0  -0.866174  0  2.090621  0  0  -0.637898  -0.826794  0  2.143752  0
O  O75  1  0.72866087  0.09573695  0.87552636  1  0  -0.888206  0  1.926138  0  0  -0.840238  0  2.123719  0  0  -0.866165  0  2.090602  0  0  -0.637895  -0.826786  0  2.143735  0
O  O76  1  0.83301314  0.30870062  0.92834148  1  0  -0.612357  0  2.284121  0  0  -0.533353  0  2.527427  0  0  -0.55949  0  2.518672  0  0  -0.448035  -0.518886  0  2.532812  0
O  O77  1  0.16698638  0.69129802  0.07165897  1  0  -0.612321  0  2.2841  0  0  -0.533316  0  2.527396  0  0  -0.559453  0  2.518647  0  0  -0.448031  -0.518849  0  2.532784  0
