# generated using pymatgen
data_Co3H16C20(NO)12
_symmetry_space_group_name_H-M   'P 1'
_cell_length_a   7.47078136
_cell_length_b   9.14405511
_cell_length_c   12.07793855
_cell_angle_alpha   109.22161571
_cell_angle_beta   93.20301865
_cell_angle_gamma   111.35887519
_symmetry_Int_Tables_number   1
_chemical_formula_structural   Co3H16C20(NO)12
_chemical_formula_sum   'Co3 H16 C20 N12 O12'
_cell_volume   710.93408275
_cell_formula_units_Z   1
loop_
 _symmetry_equiv_pos_site_id
 _symmetry_equiv_pos_as_xyz
  1  'x, y, z'
loop_
 _atom_site_type_symbol
 _atom_site_label
 _atom_site_symmetry_multiplicity
 _atom_site_fract_x
 _atom_site_fract_y
 _atom_site_fract_z
 _atom_site_occupancy
 _atom_site_pbe_bader_charge
 _atom_site_pbe_bader_spin_density
 _atom_site_pbe_cm5_charge
 _atom_site_pbe_ddec_charge
 _atom_site_pbe_ddec_spin_density
 _atom_site_pbe_ddec_sum_bond_order
 _atom_site_pbe_magmom
Co  Co0  1  0.49999809  0.49998759  0.50000293  1  1.331382  2.602653  0.694348  0.93914  2.806559  2.52077  2.589
Co  Co1  1  0.00368003  0.95386854  0.83134948  1  1.300359  2.624363  0.703973  0.871233  2.825202  2.452547  2.601
Co  Co2  1  0.99631650  0.04614479  0.16865009  1  1.300269  2.624375  0.703986  0.871196  2.825187  2.452399  2.601
H  H3  1  0.69933979  0.61942324  0.76210106  1  0.658809  0.001224  0.292396  0.394384  0.000554  0.944543  0.002
H  H4  1  0.30066444  0.38057215  0.23790757  1  0.65862  0.001224  0.292411  0.394388  0.000554  0.944536  0.002
H  H5  1  0.76453579  0.71692870  0.90551462  1  0.635174  0.001258  0.309555  0.402627  0.000578  0.902204  0.001
H  H6  1  0.23546170  0.28307358  0.09448059  1  0.635122  0.001259  0.309516  0.402584  0.000579  0.902142  0.001
H  H7  1  0.29094769  0.23939732  0.84561319  1  0.662433  0.000672  0.298607  0.411183  0.000606  0.913385  0.001
H  H8  1  0.70905497  0.76060777  0.15438703  1  0.662436  0.000672  0.298587  0.411118  0.000606  0.913471  0.001
H  H9  1  0.38255154  0.18889508  0.94044862  1  0.632921  0.00049  0.291877  0.356812  0.00025  0.988277  0.001
H  H10  1  0.61743670  0.81111771  0.05954723  1  0.632913  0.00049  0.29183  0.356728  0.00025  0.988386  0.001
H  H11  1  0.05028139  0.82001541  0.56245038  1  0.127887  0.002639  0.128564  0.112228  0.000912  0.997982  0.002
H  H12  1  0.94972055  0.17999458  0.43755267  1  0.127956  0.002639  0.128592  0.112282  0.000912  0.997926  0.002
H  H13  1  0.19507728  0.62135506  0.44768987  1  0.12273  0.002369  0.123082  0.106306  0.000777  1.015187  0.002
H  H14  1  0.80490033  0.37864110  0.55230814  1  0.122781  0.002369  0.123095  0.106282  0.000777  1.015246  0.002
H  H15  1  0.41748490  0.60502587  0.76386182  1  0.158107  0.002401  0.126224  0.10984  0.00084  1.044705  0.002
H  H16  1  0.58253190  0.39499116  0.23613601  1  0.158065  0.002401  0.126266  0.109916  0.00084  1.04457  0.002
H  H17  1  0.66944189  0.14533956  0.71279191  1  0.143342  0.000331  0.104957  0.107415  0.000144  1.061103  0.0
H  H18  1  0.33056468  0.85464486  0.28721161  1  0.143573  0.000331  0.10496  0.107397  0.000144  1.061155  0.0
C  C19  1  0.26119822  0.81726766  0.91116047  1  0.968126  0.00254  0.217204  0.210335  0.000333  4.06697  0.004
C  C20  1  0.73881901  0.18274698  0.08884424  1  0.967825  0.002542  0.21718  0.210291  0.000333  4.067051  0.004
C  C21  1  0.25582423  0.76306899  0.78324320  1  0.451642  -0.006276  0.133184  0.135186  -0.00883  3.976007  -0.003
C  C22  1  0.74419621  0.23694704  0.21675617  1  0.451561  -0.006273  0.13311  0.135052  -0.008828  3.976145  -0.003
C  C23  1  0.13266237  0.77284526  0.60782256  1  0.534671  -0.006579  0.060306  0.078983  -0.00798  3.913766  -0.002
C  C24  1  0.86733870  0.22716591  0.39218076  1  0.534566  -0.006579  0.060197  0.078836  -0.007981  3.913998  -0.002
C  C25  1  0.21240401  0.66336141  0.54442176  1  0.516268  -0.005344  0.047373  0.029785  -0.007392  3.943046  -0.002
C  C26  1  0.78759001  0.33664561  0.45557699  1  0.516179  -0.005342  0.04735  0.02972  -0.00739  3.943397  -0.002
C  C27  1  0.33796939  0.65483511  0.71915047  1  0.563427  -0.001944  0.064918  0.04763  -0.003693  3.840656  0.0
C  C28  1  0.66204554  0.34518058  0.28084863  1  0.563522  -0.001942  0.064882  0.047543  -0.003691  3.840368  0.0
C  C29  1  0.47372663  0.14475786  0.57320453  1  -0.063267  0.001416  -0.008725  -0.052567  4.2e-05  3.950603  0.001
C  C30  1  0.52625138  0.85522234  0.42679783  1  -0.061731  0.001417  -0.00877  -0.052491  4.3e-05  3.950571  0.001
C  C31  1  0.37684217  0.05872923  0.45218145  1  0.010411  0.006056  -0.013704  -0.061186  0.002584  3.964366  0.005
C  C32  1  0.62316196  0.94126607  0.54781391  1  0.010117  0.006056  -0.013664  -0.0613  0.002583  3.964871  0.005
C  C33  1  0.59564954  0.08427452  0.61893262  1  -0.031784  0.001013  -0.082228  -0.118796  0.000372  3.942978  0.001
C  C34  1  0.40433760  0.91570501  0.38106988  1  -0.033558  0.001012  -0.082193  -0.118752  0.000371  3.942583  0.001
C  C35  1  0.46622249  0.30611061  0.65732550  1  1.60873  0.007721  0.225626  0.605952  0.004979  4.160148  0.007
C  C36  1  0.53375273  0.69385586  0.34267421  1  1.609236  0.00772  0.225572  0.605639  0.004979  4.16032  0.007
C  C37  1  0.24888559  0.11591032  0.39288076  1  1.553675  0.001843  0.221922  0.593843  0.000256  4.145675  0.003
C  C38  1  0.75112452  0.88407301  0.60711184  1  1.553796  0.001848  0.221871  0.593719  0.00026  4.145889  0.003
N  N39  1  0.13921511  0.89140286  0.95201975  1  -0.69735  0.059215  -0.23721  -0.271624  0.031131  3.578573  0.051
N  N40  1  0.86079116  0.10860120  0.04797619  1  -0.696973  0.059217  -0.237134  -0.271409  0.031133  3.578562  0.051
N  N41  1  0.16321599  0.92403888  0.06880595  1  -0.19187  0.043812  -0.097504  -0.037025  0.023734  3.496177  0.04
N  N42  1  0.83678115  0.07596585  0.93119151  1  -0.191755  0.043815  -0.097625  -0.037323  0.023737  3.496356  0.04
N  N43  1  0.29871815  0.87521894  0.09994677  1  -0.096086  0.011894  -0.077154  -0.044931  0.005935  3.180143  0.01
N  N44  1  0.70128609  0.12480353  0.90006027  1  -0.096215  0.011899  -0.077247  -0.045014  0.005938  3.180206  0.01
N  N45  1  0.36332341  0.80755221  0.00213929  1  -0.6572  0.004178  -0.203595  -0.254556  0.001256  3.20765  0.003
N  N46  1  0.63669625  0.19247862  0.99787032  1  -0.65727  0.004176  -0.203422  -0.254347  0.001254  3.207514  0.003
N  N47  1  0.15259492  0.82286944  0.72695909  1  -1.215318  0.042526  -0.306874  -0.254665  0.021344  3.537456  0.039
N  N48  1  0.84741768  0.17714368  0.27304509  1  -1.215155  0.042522  -0.306797  -0.254553  0.021341  3.537389  0.039
N  N49  1  0.31940311  0.60720084  0.59980639  1  -1.181524  0.037038  -0.305667  -0.210456  0.017204  3.536124  0.036
N  N50  1  0.68059881  0.39280913  0.40019335  1  -1.181472  0.037051  -0.305593  -0.210224  0.017208  3.535913  0.036
O  O51  1  0.36650368  0.30522418  0.73639915  1  -1.171922  0.019913  -0.294935  -0.508686  0.009481  2.146364  0.016
O  O52  1  0.63345814  0.69474258  0.26358280  1  -1.172046  0.019917  -0.294958  -0.508626  0.009483  2.146057  0.016
O  O53  1  0.58161581  0.44456458  0.64577462  1  -1.181224  0.053461  -0.321374  -0.597215  0.027686  2.377638  0.041
O  O54  1  0.41837312  0.55541263  0.35423233  1  -1.18162  0.05344  -0.321337  -0.597064  0.027682  2.378173  0.041
O  O55  1  0.27784321  0.27237591  0.43162903  1  -1.164154  0.085122  -0.314155  -0.57266  0.043518  2.437732  0.072
O  O56  1  0.72217593  0.72761662  0.56836614  1  -1.163924  0.085089  -0.314141  -0.572637  0.043501  2.437892  0.072
O  O57  1  0.11354015  0.00389732  0.30448129  1  -1.146285  0.081804  -0.302986  -0.523184  0.042149  2.345162  0.066
O  O58  1  0.88647676  0.99608278  0.69551735  1  -1.146275  0.081846  -0.302943  -0.523033  0.04217  2.345324  0.066
O  O59  1  0.75652632  0.73336728  0.82957458  1  -1.263594  0.056976  -0.570639  -0.777089  0.028787  2.176221  0.046
O  O60  1  0.24346706  0.26663475  0.17042209  1  -1.263254  0.056971  -0.570631  -0.77707  0.028792  2.176163  0.046
O  O61  1  0.25901635  0.19403663  0.91027113  1  -1.252915  0.066525  -0.560174  -0.758607  0.033956  2.12867  0.053
O  O62  1  0.74096942  0.80596989  0.08972971  1  -1.25289  0.066527  -0.560139  -0.758483  0.033957  2.128726  0.053
