# generated using pymatgen
data_Zn4C24Br12O13
_symmetry_space_group_name_H-M   'P 1'
_cell_length_a   18.68667674
_cell_length_b   18.68660742
_cell_length_c   18.68658176
_cell_angle_alpha   90.00028098
_cell_angle_beta   120.00011461
_cell_angle_gamma   119.99981876
_symmetry_Int_Tables_number   1
_chemical_formula_structural   Zn4C24Br12O13
_chemical_formula_sum   'Zn8 C48 Br24 O26'
_cell_volume   4613.99133457
_cell_formula_units_Z   2
loop_
 _symmetry_equiv_pos_site_id
 _symmetry_equiv_pos_as_xyz
  1  'x, y, z'
loop_
 _atom_site_type_symbol
 _atom_site_label
 _atom_site_symmetry_multiplicity
 _atom_site_fract_x
 _atom_site_fract_y
 _atom_site_fract_z
 _atom_site_occupancy
 _atom_site_pbe_bader_charge
 _atom_site_pbe_bader_spin_density
 _atom_site_pbe_cm5_charge
 _atom_site_pbe_ddec_charge
 _atom_site_pbe_ddec_spin_density
 _atom_site_pbe_ddec_sum_bond_order
 _atom_site_pbe_magmom
Zn  Zn0  1  0.58571698  0.62857483  0.04286185  1  1.313884  0  0.682977  0.989685  0  2.356676  0
Zn  Zn1  1  0.41428010  0.45714072  0.87142587  1  1.31402  0  0.683026  0.989849  0  2.356424  0
Zn  Zn2  1  0.41428901  0.45714324  0.04285718  1  1.317087  0  0.683042  0.989824  0  2.356318  0
Zn  Zn3  1  0.58571204  0.45714414  0.04286042  1  1.317132  0  0.68312  0.990006  0  2.356315  0
Zn  Zn4  1  0.41428025  0.87142456  0.45713967  1  1.313715  0  0.682964  0.989553  0  2.356739  0
Zn  Zn5  1  0.58571116  0.04285695  0.45714305  1  1.316961  0  0.683105  0.990027  0  2.356449  0
Zn  Zn6  1  0.58571890  0.04285915  0.62857528  1  1.314234  0  0.683023  0.989824  0  2.35633  0
Zn  Zn7  1  0.41428689  0.04285482  0.45714079  1  1.317168  0  0.683097  0.989918  0  2.356287  0
C  C8  1  0.49999970  0.63717829  0.86282007  1  1.572391  0  0.229449  0.627949  0  4.119817  0
C  C9  1  0.22564590  0.36282199  0.86283169  1  1.571446  0  0.229587  0.628234  0  4.119864  0
C  C10  1  0.49999996  0.63718508  0.13718348  1  1.575356  0  0.229741  0.628068  0  4.119787  0
C  C11  1  0.49999119  0.36282263  0.13717712  1  1.558994  0  0.229707  0.628458  0  4.119684  0
C  C12  1  0.77435911  0.63717928  0.13718005  1  1.637141  0  0.22941  0.627965  0  4.11985  0
C  C13  1  0.49999909  0.36281547  0.86281405  1  1.575215  0  0.229832  0.628113  0  4.119683  0
C  C14  1  0.49999873  0.86282099  0.36281985  1  1.575879  0  0.229378  0.627782  0  4.119865  0
C  C15  1  0.77437034  0.13718594  0.63718611  1  1.572632  0  0.229836  0.628291  0  4.119701  0
C  C16  1  0.49999538  0.86281847  0.63717493  1  1.569826  0  0.229418  0.627901  0  4.119872  0
C  C17  1  0.50000271  0.13718392  0.63718690  1  1.575434  0  0.22968  0.627986  0  4.11975  0
C  C18  1  0.22564060  0.86282257  0.36282110  1  1.555119  0  0.229387  0.627928  0  4.120062  0
C  C19  1  0.49999580  0.13718601  0.36281598  1  1.558722  0  0.229729  0.628154  0  4.119794  0
C  C20  1  0.89015318  0.69507893  0.19507694  1  0.006684  0  -0.013744  -0.094438  0  3.840122  0
C  C21  1  0.10984678  0.80492187  0.30492488  1  0.066878  0  -0.013764  -0.09447  0  3.840184  0
C  C22  1  0.94636886  0.65822283  0.22318529  1  0.03529  0  -0.013788  0.049347  0  3.867785  0
C  C23  1  0.05363005  0.84177758  0.27681600  1  0.042349  0  -0.013768  0.049371  0  3.867783  0
C  C24  1  0.05362556  0.71184936  0.27681493  1  -0.070925  0  -0.013701  0.049527  0  3.867709  0
C  C25  1  0.94637440  0.78815144  0.22318796  1  -0.088659  0  -0.013727  0.049482  0  3.867768  0
C  C26  1  0.10984623  0.30492329  0.80492557  1  0.055713  0  -0.013763  -0.094394  0  3.840168  0
C  C27  1  0.89015339  0.19507719  0.69507481  1  0.07078  0  -0.013765  -0.094284  0  3.840093  0
C  C28  1  0.05362565  0.27681252  0.84177829  1  -0.050191  0  -0.013676  0.04953  0  3.867856  0
C  C29  1  0.94637459  0.22318858  0.65822401  1  -0.052073  0  -0.013709  0.049487  0  3.867644  0
C  C30  1  0.94636965  0.22318472  0.78814793  1  -0.00136  0  -0.013748  0.049315  0  3.867699  0
C  C31  1  0.05363041  0.27681555  0.71185375  1  0.015924  0  -0.013778  0.049316  0  3.867803  0
C  C32  1  0.49999718  0.69507347  0.19507462  1  0.120369  0  -0.013739  -0.094258  0  3.840039  0
C  C33  1  0.49999908  0.80492362  0.30492427  1  0.11979  0  -0.013643  -0.094345  0  3.840085  0
C  C34  1  0.43503677  0.65822353  0.22318633  1  0.007587  0  -0.013711  0.049401  0  3.867727  0
C  C35  1  0.56496046  0.84177585  0.27681466  1  0.007519  0  -0.01375  0.049391  0  3.867719  0
C  C36  1  0.43503564  0.71185012  0.27681373  1  -0.118922  0  -0.013754  0.049327  0  3.867873  0
C  C37  1  0.56496061  0.78814697  0.22318517  1  -0.119786  0  -0.013711  0.049368  0  3.867603  0
C  C38  1  0.50000071  0.30492395  0.80492339  1  0.119282  0  -0.013788  -0.094318  0  3.840138  0
C  C39  1  0.49999935  0.19507631  0.69507561  1  0.120131  0  -0.013761  -0.094365  0  3.840158  0
C  C40  1  0.56496276  0.27681487  0.84177762  1  0.007452  0  -0.013658  0.049445  0  3.867547  0
C  C41  1  0.43503668  0.22318477  0.65822160  1  0.007429  0  -0.013689  0.049411  0  3.867573  0
C  C42  1  0.56496378  0.22318555  0.78814857  1  -0.118903  0  -0.013666  0.049451  0  3.867589  0
C  C43  1  0.43503671  0.27681449  0.71185119  1  -0.118855  0  -0.013658  0.049478  0  3.867559  0
C  C44  1  0.50000228  0.69507880  0.80492653  1  0.118986  0  -0.013741  -0.094482  0  3.84023  0
C  C45  1  0.49999713  0.80492229  0.69507545  1  0.121692  0  -0.01372  -0.094384  0  3.840063  0
C  C46  1  0.43503655  0.65822309  0.71185344  1  -0.006779  0  -0.013749  0.049372  0  3.867752  0
C  C47  1  0.56496181  0.84177760  0.78814748  1  0.031192  0  -0.013762  0.049299  0  3.867884  0
C  C48  1  0.43503426  0.71184937  0.65822308  1  -0.128948  0  -0.013689  0.049486  0  3.867729  0
C  C49  1  0.56496366  0.78815154  0.84177709  1  -0.090072  0  -0.013682  0.049545  0  3.867846  0
C  C50  1  0.49999695  0.30492259  0.19507803  1  0.070543  0  -0.013759  -0.094489  0  3.840334  0
C  C51  1  0.50000024  0.19507724  0.30492445  1  0.070669  0  -0.013748  -0.094321  0  3.840138  0
C  C52  1  0.56496036  0.27681554  0.22318549  1  0.039463  0  -0.013769  0.049369  0  3.867887  0
C  C53  1  0.43503657  0.22318535  0.27681686  1  0.039491  0  -0.013682  0.049412  0  3.867575  0
C  C54  1  0.56496229  0.22318759  0.27681407  1  -0.083124  0  -0.013704  0.049386  0  3.867687  0
C  C55  1  0.43503297  0.27681228  0.22318691  1  -0.082281  0  -0.013649  0.049504  0  3.867915  0
Br  Br56  1  0.88288878  0.53500183  0.19144420  1  0.036222  0  0.038435  -0.019313  0  1.663471  0
Br  Br57  1  0.11711137  0.96499981  0.30855771  1  0.034786  0  0.038413  -0.019326  0  1.663441  0
Br  Br58  1  0.11710636  0.65210810  0.30855471  1  0.016047  0  0.038429  -0.0193  0  1.663475  0
Br  Br59  1  0.88289422  0.84789332  0.19144688  1  0.017598  0  0.038413  -0.019319  0  1.663462  0
Br  Br60  1  0.11710598  0.30855507  0.96499982  1  0.03459  0  0.038392  -0.019359  0  1.663437  0
Br  Br61  1  0.88289102  0.19144672  0.53499979  1  0.03597  0  0.038421  -0.019322  0  1.663453  0
Br  Br62  1  0.88288960  0.19144541  0.84788991  1  0.017378  0  0.038396  -0.019315  0  1.663424  0
Br  Br63  1  0.11711002  0.30855507  0.65211208  1  0.016772  0  0.038429  -0.019283  0  1.663432  0
Br  Br64  1  0.34355645  0.53500211  0.19144656  1  0.029236  0  0.038479  -0.019216  0  1.663326  0
Br  Br65  1  0.65644457  0.96499909  0.30855739  1  0.029375  0  0.038503  -0.019229  0  1.66325  0
Br  Br66  1  0.34355494  0.65210884  0.30855322  1  0.02882  0  0.038476  -0.019208  0  1.663368  0
Br  Br67  1  0.65644237  0.84788865  0.19144514  1  0.029075  0  0.038525  -0.019155  0  1.663299  0
Br  Br68  1  0.65644577  0.30855569  0.96500226  1  0.02937  0  0.038485  -0.019245  0  1.663242  0
Br  Br69  1  0.34355323  0.19144417  0.53499782  1  0.030121  0  0.038459  -0.01927  0  1.663256  0
Br  Br70  1  0.65644630  0.19144667  0.84789190  1  0.029121  0  0.03848  -0.019238  0  1.663288  0
Br  Br71  1  0.34355455  0.30855505  0.65210857  1  0.028437  0  0.038481  -0.019238  0  1.663273  0
Br  Br72  1  0.34355287  0.53500034  0.65211169  1  0.033667  0  0.038479  -0.019245  0  1.66327  0
Br  Br73  1  0.65644363  0.96499850  0.84788938  1  0.035884  0  0.038481  -0.019226  0  1.66335  0
Br  Br74  1  0.34355207  0.65210753  0.53500037  1  0.016673  0  0.038466  -0.019275  0  1.663303  0
Br  Br75  1  0.65644716  0.84789272  0.96500099  1  0.019231  0  0.038451  -0.019292  0  1.663307  0
Br  Br76  1  0.65644171  0.30855497  0.19144516  1  0.036441  0  0.038506  -0.019188  0  1.663315  0
Br  Br77  1  0.34355690  0.19144694  0.30856017  1  0.035219  0  0.038432  -0.019292  0  1.663204  0
Br  Br78  1  0.65644346  0.19144544  0.30855428  1  0.019631  0  0.038494  -0.019188  0  1.663262  0
Br  Br79  1  0.34354984  0.30854984  0.19144465  1  0.019279  0  0.038435  -0.019264  0  1.663257  0
O  O80  1  0.49999952  0.50000444  0.00000095  1  -1.184624  0  -0.572189  -1.035392  0  2.525099  0
O  O81  1  0.55996444  0.67464729  0.94528043  1  -1.163532  0  -0.312573  -0.540531  0  2.482542  0
O  O82  1  0.27063038  0.38531876  0.82536447  1  -1.164895  0  -0.312738  -0.540888  0  2.482863  0
O  O83  1  0.44003305  0.55471779  0.11467881  1  -1.165125  0  -0.312817  -0.540818  0  2.482492  0
O  O84  1  0.44005097  0.55473052  0.82536403  1  -1.161574  0  -0.312555  -0.540503  0  2.482863  0
O  O85  1  0.55995600  0.67463901  0.11468557  1  -1.156053  0  -0.312734  -0.540705  0  2.482937  0
O  O86  1  0.27062575  0.38530540  0.94527066  1  -1.159286  0  -0.312595  -0.540588  0  2.4829  0
O  O87  1  0.44004288  0.38531332  0.11468959  1  -1.161346  0  -0.312638  -0.540719  0  2.482856  0
O  O88  1  0.72936686  0.55473147  0.11468518  1  -1.160192  0  -0.312542  -0.540493  0  2.482846  0
O  O89  1  0.55994736  0.38531361  0.11468297  1  -1.160979  0  -0.312736  -0.540951  0  2.482852  0
O  O90  1  0.72936986  0.67464809  0.11468548  1  -1.164086  0  -0.31265  -0.540661  0  2.482708  0
O  O91  1  0.44003651  0.38531225  0.82535624  1  -1.155928  0  -0.312745  -0.540728  0  2.482649  0
O  O92  1  0.55996308  0.38532195  0.94527719  1  -1.165156  0  -0.312768  -0.54071  0  2.48249  0
O  O93  1  0.49999815  0.99999473  0.50000080  1  -1.184608  0  -0.57217  -1.035349  0  2.525043  0
O  O94  1  0.44003724  0.82535310  0.38531450  1  -1.156139  0  -0.312608  -0.540555  0  2.482745  0
O  O95  1  0.72936511  0.11468371  0.55471679  1  -1.159135  0  -0.312829  -0.54092  0  2.482476  0
O  O96  1  0.55995309  0.94527195  0.67463867  1  -1.161565  0  -0.312549  -0.540527  0  2.482707  0
O  O97  1  0.55994921  0.94527055  0.38531469  1  -1.165291  0  -0.312543  -0.540415  0  2.482769  0
O  O98  1  0.44004068  0.82535558  0.55472601  1  -1.163393  0  -0.312547  -0.540466  0  2.482777  0
O  O99  1  0.72937182  0.11468692  0.67463827  1  -1.164542  0  -0.312802  -0.540823  0  2.482905  0
O  O100  1  0.55995809  0.11468518  0.67464271  1  -1.15623  0  -0.31262  -0.54054  0  2.482748  0
O  O101  1  0.27063125  0.94526748  0.38530982  1  -1.160207  0  -0.312577  -0.540549  0  2.483032  0
O  O102  1  0.44004024  0.11468223  0.55472291  1  -1.165068  0  -0.312746  -0.540688  0  2.482388  0
O  O103  1  0.27062904  0.82535231  0.38532116  1  -1.164267  0  -0.312613  -0.540593  0  2.482814  0
O  O104  1  0.55996967  0.11468810  0.38532271  1  -1.161138  0  -0.312852  -0.540975  0  2.482443  0
O  O105  1  0.44004376  0.11468277  0.38531113  1  -1.161291  0  -0.312623  -0.540593  0  2.482949  0
