# generated using pymatgen
data_CdH16C14(SN3)2
_symmetry_space_group_name_H-M   'P 1'
_cell_length_a   7.99292920
_cell_length_b   8.88647027
_cell_length_c   12.54698512
_cell_angle_alpha   90.00048276
_cell_angle_beta   89.99937316
_cell_angle_gamma   98.69247410
_symmetry_Int_Tables_number   1
_chemical_formula_structural   CdH16C14(SN3)2
_chemical_formula_sum   'Cd2 H32 C28 S4 N12'
_cell_volume   880.96236289
_cell_formula_units_Z   2
loop_
 _symmetry_equiv_pos_site_id
 _symmetry_equiv_pos_as_xyz
  1  'x, y, z'
loop_
 _atom_site_type_symbol
 _atom_site_label
 _atom_site_symmetry_multiplicity
 _atom_site_fract_x
 _atom_site_fract_y
 _atom_site_fract_z
 _atom_site_occupancy
 _atom_site_hle17_bader_spin_density
 _atom_site_hle17_ddec_charge
 _atom_site_hle17_ddec_spin_density
 _atom_site_hle17_ddec_sum_bond_order
 _atom_site_hle17_magmom
 _atom_site_hse06_10hf_bader_spin_density
 _atom_site_hse06_10hf_ddec_charge
 _atom_site_hse06_10hf_ddec_spin_density
 _atom_site_hse06_10hf_ddec_sum_bond_order
 _atom_site_hse06_10hf_magmom
 _atom_site_hse06_bader_spin_density
 _atom_site_hse06_ddec_charge
 _atom_site_hse06_ddec_spin_density
 _atom_site_hse06_ddec_sum_bond_order
 _atom_site_hse06_magmom
 _atom_site_pbe_bader_spin_density
 _atom_site_pbe_cm5_charge
 _atom_site_pbe_ddec_charge
 _atom_site_pbe_ddec_spin_density
 _atom_site_pbe_ddec_sum_bond_order
 _atom_site_pbe_magmom
Cd  Cd0  1  0.99999466  0.00000099  0.49999949  1  0  1.023964  0  1.851109  0  0  0.827931  0  2.306157  0  0  0.875124  0  2.266614  0  0  0.778642  0.795305  0  2.332483  0
Cd  Cd1  1  0.50000379  0.49999979  0.99999934  1  0  1.023995  0  1.85112  0  0  0.827961  0  2.306186  0  0  0.875156  0  2.266639  0  0  0.778643  0.795335  0  2.332516  0
H  H2  1  0.94805747  0.65104721  0.60028945  1  0  0.068525  0  0.963631  0  0  0.072472  0  1.039718  0  0  0.074852  0  1.037777  0  0  0.105204  0.07071  0  1.04115  0
H  H3  1  0.55194159  0.84895478  0.10029163  1  0  0.068476  0  0.96366  0  0  0.072423  0  1.039751  0  0  0.0748  0  1.037822  0  0  0.105187  0.070662  0  1.041188  0
H  H4  1  0.05194175  0.34895556  0.39971043  1  0  0.068529  0  0.963649  0  0  0.072471  0  1.039744  0  0  0.074859  0  1.037785  0  0  0.105227  0.070708  0  1.041178  0
H  H5  1  0.44806202  0.15104454  0.89970745  1  0  0.068475  0  0.963657  0  0  0.072422  0  1.039747  0  0  0.0748  0  1.037814  0  0  0.105208  0.070663  0  1.041174  0
H  H6  1  0.78550543  0.39214588  0.56965718  1  0  0.104621  0  0.961602  0  0  0.111197  0  1.026042  0  0  0.114397  0  1.025476  0  0  0.100121  0.108903  0  1.026628  0
H  H7  1  0.71449652  0.10785412  0.06965998  1  0  0.104586  0  0.961586  0  0  0.111155  0  1.026043  0  0  0.114356  0  1.025474  0  0  0.100102  0.108863  0  1.026625  0
H  H8  1  0.21450069  0.60785342  0.43034429  1  0  0.104611  0  0.961534  0  0  0.111183  0  1.025981  0  0  0.114381  0  1.025416  0  0  0.100117  0.108889  0  1.026564  0
H  H9  1  0.28550584  0.89214520  0.93034149  1  0  0.104606  0  0.961599  0  0  0.111187  0  1.026045  0  0  0.114387  0  1.025478  0  0  0.100119  0.108895  0  1.02663  0
H  H10  1  0.58611966  0.35190977  0.41416543  1  0  0.096678  0  0.96652  0  0  0.107393  0  1.028167  0  0  0.109424  0  1.027589  0  0  0.100929  0.105917  0  1.028548  0
H  H11  1  0.91388576  0.14808671  0.91416506  1  0  0.096639  0  0.966483  0  0  0.107365  0  1.028127  0  0  0.109399  0  1.027545  0  0  0.100882  0.10588  0  1.028536  0
H  H12  1  0.41388586  0.64808612  0.58583604  1  0  0.096642  0  0.966454  0  0  0.107352  0  1.028114  0  0  0.109386  0  1.027531  0  0  0.100876  0.105863  0  1.02853  0
H  H13  1  0.08611951  0.85191488  0.08583721  1  0  0.096682  0  0.966458  0  0  0.107386  0  1.028126  0  0  0.109419  0  1.027546  0  0  0.100922  0.10591  0  1.028513  0
H  H14  1  0.72054798  0.82821662  0.34148677  1  0  0.070336  0  0.972275  0  0  0.076284  0  1.045114  0  0  0.078069  0  1.044127  0  0  0.107142  0.074971  0  1.045872  0
H  H15  1  0.77944740  0.67178088  0.84148350  1  0  0.070304  0  0.972281  0  0  0.076255  0  1.045113  0  0  0.078042  0  1.044123  0  0  0.107112  0.074944  0  1.04587  0
H  H16  1  0.27944169  0.17178165  0.65851550  1  0  0.07031  0  0.972301  0  0  0.076261  0  1.045132  0  0  0.078045  0  1.044147  0  0  0.107128  0.074949  0  1.04589  0
H  H17  1  0.22055557  0.32822186  0.15851478  1  0  0.070309  0  0.972271  0  0  0.076264  0  1.045107  0  0  0.07805  0  1.044119  0  0  0.107123  0.074954  0  1.045862  0
H  H18  1  0.40858723  0.50372072  0.28230056  1  0  0.06486  0  0.937713  0  0  0.08037  0  1.004747  0  0  0.080043  0  1.00578  0  0  0.102097  0.080502  0  1.004141  0
H  H19  1  0.09141244  0.99627424  0.78229736  1  0  0.064819  0  0.937657  0  0  0.0803  0  1.004726  0  0  0.079967  0  1.005756  0  0  0.102091  0.080433  0  1.004115  0
H  H20  1  0.59141248  0.49627064  0.71770171  1  0  0.064843  0  0.937648  0  0  0.080345  0  1.004697  0  0  0.080011  0  1.005727  0  0  0.102101  0.080476  0  1.004085  0
H  H21  1  0.90858968  0.00373079  0.21770252  1  0  0.064839  0  0.937611  0  0  0.080345  0  1.004679  0  0  0.080006  0  1.005706  0  0  0.102114  0.080479  0  1.004071  0
H  H22  1  0.51264035  0.68003810  0.23534602  1  0  0.061659  0  0.936453  0  0  0.076826  0  1.002796  0  0  0.077039  0  1.002678  0  0  0.101318  0.076593  0  1.002946  0
H  H23  1  0.98735792  0.81995836  0.73534138  1  0  0.061608  0  0.936481  0  0  0.076758  0  1.002836  0  0  0.076967  0  1.00272  0  0  0.101275  0.076521  0  1.002987  0
H  H24  1  0.48735227  0.31995559  0.76465705  1  0  0.061628  0  0.936386  0  0  0.076775  0  1.002752  0  0  0.076987  0  1.002633  0  0  0.101257  0.076537  0  1.002905  0
H  H25  1  0.01264670  0.18004665  0.26465849  1  0  0.061623  0  0.936433  0  0  0.076783  0  1.002813  0  0  0.076989  0  1.002695  0  0  0.101257  0.076549  0  1.002961  0
H  H26  1  0.60341151  0.37440694  0.19730617  1  0  0.269475  0  0.94601  0  0  0.25563  0  1.016038  0  0  0.261564  0  1.012515  0  0  0.266631  0.251427  0  1.018501  0
H  H27  1  0.89659161  0.12559087  0.69730898  1  0  0.269486  0  0.945993  0  0  0.255634  0  1.016021  0  0  0.261567  0  1.012502  0  0  0.266634  0.25143  0  1.01848  0
H  H28  1  0.39659106  0.62559352  0.80269291  1  0  0.269467  0  0.945963  0  0  0.25562  0  1.016006  0  0  0.261554  0  1.012485  0  0  0.26662  0.251417  0  1.018468  0
H  H29  1  0.10340886  0.87441189  0.30269249  1  0  0.269452  0  0.945928  0  0  0.255591  0  1.015975  0  0  0.261523  0  1.012465  0  0  0.266625  0.251387  0  1.018438  0
H  H30  1  0.73632230  0.52915612  0.17055870  1  0  0.270595  0  0.952962  0  0  0.258579  0  1.018666  0  0  0.264593  0  1.015109  0  0  0.263783  0.254302  0  1.021199  0
H  H31  1  0.76367652  0.97084426  0.67056052  1  0  0.270565  0  0.953045  0  0  0.258579  0  1.018733  0  0  0.264595  0  1.015173  0  0  0.263778  0.254299  0  1.021268  0
H  H32  1  0.26367692  0.47084664  0.82944356  1  0  0.270557  0  0.952979  0  0  0.258561  0  1.018669  0  0  0.264577  0  1.015107  0  0  0.263766  0.254278  0  1.021207  0
H  H33  1  0.23632165  0.02915965  0.32944334  1  0  0.270565  0  0.953009  0  0  0.25855  0  1.018721  0  0  0.264567  0  1.01516  0  0  0.263764  0.254272  0  1.021253  0
C  C34  1  0.66964582  0.10289971  0.36614250  1  0  0.28749  0  4.06706  0  0  0.270273  0  4.369005  0  0  0.29212  0  4.381918  0  0  0.136154  0.255491  0  4.359806  0
C  C35  1  0.83034810  0.39709068  0.86612986  1  0  0.287491  0  4.067114  0  0  0.270274  0  4.369087  0  0  0.292124  0  4.381999  0  0  0.136292  0.255491  0  4.359884  0
C  C36  1  0.33032931  0.89709410  0.63384861  1  0  0.287717  0  4.067721  0  0  0.270487  0  4.369642  0  0  0.292331  0  4.382548  0  0  0.136358  0.255714  0  4.360436  0
C  C37  1  0.16966592  0.60291085  0.13385488  1  0  0.287479  0  4.067406  0  0  0.270255  0  4.369364  0  0  0.292102  0  4.382274  0  0  0.136223  0.255475  0  4.360173  0
C  C38  1  0.85730782  0.63052150  0.53506766  1  0  0.116082  0  3.725054  0  0  0.083979  0  3.979696  0  0  0.090666  0  3.998399  0  0  0.039896  0.079758  0  3.966879  0
C  C39  1  0.64269081  0.86947872  0.03506933  1  0  0.116149  0  3.724976  0  0  0.084034  0  3.979627  0  0  0.09072  0  3.99833  0  0  0.039912  0.079811  0  3.966821  0
C  C40  1  0.14269245  0.36948012  0.46493381  1  0  0.11607  0  3.725048  0  0  0.083979  0  3.979683  0  0  0.090667  0  3.99839  0  0  0.0399  0.079759  0  3.966875  0
C  C41  1  0.35731156  0.13052060  0.96493055  1  0  0.116121  0  3.724982  0  0  0.084025  0  3.97963  0  0  0.090711  0  3.99833  0  0  0.039896  0.079807  0  3.966809  0
C  C42  1  0.76782425  0.48569605  0.51681375  1  0  -0.117381  0  3.75519  0  0  -0.126979  0  4.007195  0  0  -0.13436  0  4.029862  0  0  -0.085667  -0.122298  0  3.991966  0
C  C43  1  0.73217707  0.01430231  0.01681507  1  0  -0.117344  0  3.755167  0  0  -0.126932  0  4.007167  0  0  -0.134314  0  4.029833  0  0  -0.085669  -0.12226  0  3.991963  0
C  C44  1  0.23217832  0.51430442  0.48318772  1  0  -0.117436  0  3.755215  0  0  -0.127033  0  4.007227  0  0  -0.134416  0  4.029896  0  0  -0.085726  -0.12236  0  3.99201  0
C  C45  1  0.26782655  0.98569701  0.98318561  1  0  -0.117383  0  3.755203  0  0  -0.126986  0  4.007207  0  0  -0.134368  0  4.029874  0  0  -0.085694  -0.12231  0  3.991988  0
C  C46  1  0.65815899  0.46384189  0.43024427  1  0  -0.044809  0  3.691542  0  0  -0.07085  0  3.932975  0  0  -0.068595  0  3.953198  0  0  -0.067045  -0.071952  0  3.919197  0
C  C47  1  0.84184138  0.03615592  0.93024454  1  0  -0.044752  0  3.6914  0  0  -0.070802  0  3.932839  0  0  -0.068546  0  3.953062  0  0  -0.066993  -0.071911  0  3.919051  0
C  C48  1  0.34184173  0.53615517  0.56975640  1  0  -0.044771  0  3.691489  0  0  -0.070796  0  3.932924  0  0  -0.06854  0  3.953148  0  0  -0.067014  -0.071903  0  3.919137  0
C  C49  1  0.15816139  0.96384568  0.06975613  1  0  -0.044844  0  3.691452  0  0  -0.070884  0  3.93289  0  0  -0.068629  0  3.953117  0  0  -0.067049  -0.071986  0  3.919111  0
C  C50  1  0.64143251  0.58654765  0.36323019  1  0  0.012254  0  3.733745  0  0  0.042401  0  3.965668  0  0  0.03721  0  3.989872  0  0  -0.010708  0.045551  0  3.949449  0
C  C51  1  0.85856609  0.91344891  0.86322861  1  0  0.012255  0  3.733674  0  0  0.042387  0  3.965582  0  0  0.037195  0  3.989783  0  0  -0.010644  0.045545  0  3.949359  0
C  C52  1  0.35856426  0.41344830  0.63677128  1  0  0.012244  0  3.733725  0  0  0.042358  0  3.965662  0  0  0.037167  0  3.989862  0  0  -0.010642  0.04551  0  3.949441  0
C  C53  1  0.14143668  0.08655269  0.13677206  1  0  0.012225  0  3.733573  0  0  0.042398  0  3.965471  0  0  0.037202  0  3.989668  0  0  -0.010654  0.04555  0  3.949254  0
C  C54  1  0.73301278  0.72804514  0.38950752  1  0  0.07915  0  3.694941  0  0  0.045244  0  3.936775  0  0  0.050964  0  3.955855  0  0  0.039871  0.041373  0  3.924214  0
C  C55  1  0.76698436  0.77195282  0.88950494  1  0  0.079183  0  3.694945  0  0  0.045282  0  3.936767  0  0  0.051003  0  3.955846  0  0  0.039867  0.04141  0  3.924206  0
C  C56  1  0.26698189  0.27195310  0.61049474  1  0  0.079167  0  3.694891  0  0  0.045279  0  3.93673  0  0  0.051  0  3.955809  0  0  0.039869  0.041405  0  3.924175  0
C  C57  1  0.23301966  0.22804877  0.11049334  1  0  0.079208  0  3.694784  0  0  0.045307  0  3.936596  0  0  0.051023  0  3.955683  0  0  0.039922  0.041434  0  3.924036  0
C  C58  1  0.53386462  0.56780230  0.26414775  1  0  0.044566  0  3.689542  0  0  -0.018394  0  3.945993  0  0  -0.012936  0  3.958633  0  0  -0.070439  -0.021967  0  3.937339  0
C  C59  1  0.96613301  0.93219330  0.76414393  1  0  0.044732  0  3.689569  0  0  -0.018165  0  3.94597  0  0  -0.012692  0  3.958591  0  0  -0.070366  -0.021742  0  3.937313  0
C  C60  1  0.46613070  0.43219251  0.73585372  1  0  0.044682  0  3.689409  0  0  -0.018238  0  3.945839  0  0  -0.012767  0  3.958463  0  0  -0.070365  -0.021808  0  3.937176  0
C  C61  1  0.03386891  0.06781058  0.23585515  1  0  0.044682  0  3.689369  0  0  -0.018313  0  3.945893  0  0  -0.012823  0  3.958493  0  0  -0.07041  -0.021888  0  3.937235  0
S  S62  1  0.53303715  0.10053836  0.26975965  1  0  -0.390416  0  2.055908  0  0  -0.365782  0  2.347755  0  0  -0.38052  0  2.342516  0  0  -0.161858  -0.35533  0  2.351076  0
S  S63  1  0.96695596  0.39945224  0.76974846  1  0  -0.390422  0  2.05608  0  0  -0.365786  0  2.347918  0  0  -0.380525  0  2.34268  0  0  -0.16193  -0.355333  0  2.351237  0
S  S64  1  0.46695042  0.89946220  0.73023943  1  0  -0.390584  0  2.055576  0  0  -0.365939  0  2.347413  0  0  -0.380681  0  2.342172  0  0  -0.161955  -0.355489  0  2.350734  0
S  S65  1  0.03304891  0.60054707  0.23024344  1  0  -0.390462  0  2.05578  0  0  -0.36581  0  2.347585  0  0  -0.380552  0  2.342344  0  0  -0.161899  -0.355356  0  2.350913  0
N  N66  1  0.77012863  0.10724059  0.43626657  1  0  -0.555584  0  2.82222  0  0  -0.497572  0  3.089007  0  0  -0.517909  0  3.094809  0  0  -0.403585  -0.483655  0  3.084761  0
N  N67  1  0.72985795  0.39275053  0.93625780  1  0  -0.555597  0  2.822166  0  0  -0.49759  0  3.088972  0  0  -0.51793  0  3.094771  0  0  -0.403641  -0.483672  0  3.084727  0
N  N68  1  0.22986714  0.89274967  0.56373968  1  0  -0.555631  0  2.823161  0  0  -0.497609  0  3.089911  0  0  -0.517939  0  3.095703  0  0  -0.403694  -0.483701  0  3.085663  0
N  N69  1  0.27013962  0.60724997  0.06373729  1  0  -0.555502  0  2.822647  0  0  -0.497498  0  3.089447  0  0  -0.517824  0  3.095228  0  0  -0.403616  -0.483585  0  3.085209  0
N  N70  1  0.83881172  0.75037381  0.47323889  1  0  -0.326959  0  3.253609  0  0  -0.249889  0  3.515167  0  0  -0.268272  0  3.534731  0  0  -0.330331  -0.237397  0  3.501544  0
N  N71  1  0.66118537  0.74962496  0.97323851  1  0  -0.326986  0  3.253532  0  0  -0.249909  0  3.515078  0  0  -0.268291  0  3.534639  0  0  -0.330311  -0.237414  0  3.501462  0
N  N72  1  0.16118190  0.24962557  0.52676258  1  0  -0.326917  0  3.253561  0  0  -0.249869  0  3.515129  0  0  -0.268252  0  3.534691  0  0  -0.330327  -0.237377  0  3.501512  0
N  N73  1  0.33881950  0.25037435  0.02676137  1  0  -0.326965  0  3.253515  0  0  -0.249913  0  3.515083  0  0  -0.268294  0  3.534643  0  0  -0.330369  -0.237419  0  3.50146  0
N  N74  1  0.60929015  0.48742935  0.17716300  1  0  -0.623142  0  3.085278  0  0  -0.565157  0  3.321089  0  0  -0.585929  0  3.321265  0  0  -0.622829  -0.55055  0  3.320596  0
N  N75  1  0.89070955  0.01256829  0.67716358  1  0  -0.623184  0  3.085485  0  0  -0.565244  0  3.321263  0  0  -0.586019  0  3.32143  0  0  -0.622885  -0.550633  0  3.320765  0
N  N76  1  0.39070972  0.51256999  0.82283847  1  0  -0.623114  0  3.085218  0  0  -0.565151  0  3.320973  0  0  -0.585927  0  3.321145  0  0  -0.622827  -0.55054  0  3.320475  0
N  N77  1  0.10928843  0.98743449  0.32283869  1  0  -0.623091  0  3.085195  0  0  -0.565079  0  3.32106  0  0  -0.585846  0  3.321189  0  0  -0.622814  -0.55047  0  3.320562  0
