# generated using pymatgen
data_TbH12C16O11
_symmetry_space_group_name_H-M   'P 1'
_cell_length_a   5.89364572
_cell_length_b   9.89870314
_cell_length_c   14.75454883
_cell_angle_alpha   85.46754868
_cell_angle_beta   88.88837080
_cell_angle_gamma   74.48452116
_symmetry_Int_Tables_number   1
_chemical_formula_structural   TbH12C16O11
_chemical_formula_sum   'Tb2 H24 C32 O22'
_cell_volume   826.80906262
_cell_formula_units_Z   2
loop_
 _symmetry_equiv_pos_site_id
 _symmetry_equiv_pos_as_xyz
  1  'x, y, z'
loop_
 _atom_site_type_symbol
 _atom_site_label
 _atom_site_symmetry_multiplicity
 _atom_site_fract_x
 _atom_site_fract_y
 _atom_site_fract_z
 _atom_site_occupancy
 _atom_site_hle17_bader_spin_density
 _atom_site_hle17_ddec_charge
 _atom_site_hle17_ddec_spin_density
 _atom_site_hle17_ddec_sum_bond_order
 _atom_site_hle17_magmom
 _atom_site_hse06_10hf_bader_spin_density
 _atom_site_hse06_10hf_ddec_charge
 _atom_site_hse06_10hf_ddec_spin_density
 _atom_site_hse06_10hf_ddec_sum_bond_order
 _atom_site_hse06_10hf_magmom
 _atom_site_hse06_bader_spin_density
 _atom_site_hse06_ddec_charge
 _atom_site_hse06_ddec_spin_density
 _atom_site_hse06_ddec_sum_bond_order
 _atom_site_hse06_magmom
 _atom_site_pbe_bader_spin_density
 _atom_site_pbe_cm5_charge
 _atom_site_pbe_ddec_charge
 _atom_site_pbe_ddec_spin_density
 _atom_site_pbe_ddec_sum_bond_order
 _atom_site_pbe_magmom
Tb  Tb0  1  0.82973282  0.70739014  0.95877217  1  0  2.249402  0  1.628405  0  0  2.097899  0  2.101132  0  0  2.224142  0  1.912944  0  0  1.516762  2.062756  0  2.131913  0
Tb  Tb1  1  0.17020516  0.29264569  0.04122788  1  0  2.249282  0  1.628747  0  0  2.097596  0  2.101812  0  0  2.224038  0  1.913308  0  0  1.516835  2.06245  0  2.132588  0
H  H2  1  0.37542355  0.10597626  0.48083938  1  0  0.395835  0  0.898609  0  0  0.36577  0  0.974498  0  0  0.378803  0  0.960967  0  0  0.303387  0.356643  0  0.983918  0
H  H3  1  0.62460146  0.89403176  0.51915176  1  0  0.395698  0  0.898753  0  0  0.365659  0  0.974598  0  0  0.378691  0  0.961069  0  0  0.303316  0.356533  0  0.984019  0
H  H4  1  0.04308354  0.84488120  0.79994285  1  0  0.435602  0  0.836279  0  0  0.41454  0  0.890877  0  0  0.422464  0  0.879754  0  0  0.317458  0.409141  0  0.898645  0
H  H5  1  0.95690807  0.15513647  0.20005871  1  0  0.435602  0  0.836217  0  0  0.414542  0  0.890858  0  0  0.422469  0  0.879731  0  0  0.317498  0.409145  0  0.898622  0
H  H6  1  0.20061796  0.84914520  0.88661535  1  0  0.454086  0  0.838669  0  0  0.421995  0  0.903057  0  0  0.434213  0  0.885362  0  0  0.304865  0.413749  0  0.915032  0
H  H7  1  0.79935485  0.15087260  0.11338828  1  0  0.454045  0  0.838723  0  0  0.42194  0  0.90314  0  0  0.434163  0  0.885442  0  0  0.304824  0.413695  0  0.915116  0
H  H8  1  0.27056245  0.60552581  0.06887703  1  0  0.453334  0  0.843743  0  0  0.420051  0  0.910631  0  0  0.430592  0  0.8956  0  0  0.31236  0.412778  0  0.921186  0
H  H9  1  0.72938126  0.39450055  0.93112486  1  0  0.453102  0  0.844045  0  0  0.419774  0  0.91101  0  0  0.430319  0  0.895972  0  0  0.312239  0.412499  0  0.92157  0
H  H10  1  0.20294130  0.77094380  0.07516371  1  0  0.463258  0  0.783873  0  0  0.443924  0  0.836747  0  0  0.452771  0  0.826595  0  0  0.336944  0.438057  0  0.843568  0
H  H11  1  0.79701739  0.22908769  0.92483178  1  0  0.463294  0  0.783716  0  0  0.443952  0  0.836596  0  0  0.452799  0  0.826532  0  0  0.33699  0.438087  0  0.84342  0
H  H12  1  0.39738332  0.31980982  0.35775324  1  0  0.112129  0  0.941322  0  0  0.121754  0  1.002301  0  0  0.125694  0  0.999544  0  0  0.107965  0.119241  0  1.003469  0
H  H13  1  0.60259853  0.68017745  0.64222550  1  0  0.112215  0  0.94141  0  0  0.121812  0  1.002384  0  0  0.125782  0  0.999592  0  0  0.108054  0.119303  0  1.003546  0
H  H14  1  0.63103257  0.38518938  0.47815259  1  0  0.093483  0  0.969055  0  0  0.101928  0  1.03333  0  0  0.104796  0  1.032267  0  0  0.100234  0.099683  0  1.034559  0
H  H15  1  0.36898710  0.61475678  0.52183565  1  0  0.093317  0  0.969171  0  0  0.101796  0  1.033414  0  0  0.104711  0  1.032295  0  0  0.10016  0.099557  0  1.034643  0
H  H16  1  0.89853786  0.53990561  0.43506151  1  0  0.110464  0  0.942095  0  0  0.124356  0  0.99624  0  0  0.127304  0  0.994865  0  0  0.109117  0.122172  0  0.997384  0
H  H17  1  0.10156255  0.46000232  0.56493463  1  0  0.110336  0  0.942225  0  0  0.124353  0  0.996243  0  0  0.127311  0  0.994856  0  0  0.109024  0.122167  0  0.997388  0
H  H18  1  0.28214136  0.70842963  0.36280829  1  0  0.119877  0  0.956416  0  0  0.125567  0  1.027655  0  0  0.128616  0  1.02645  0  0  0.108965  0.123595  0  1.02826  0
H  H19  1  0.71786556  0.29155966  0.63720352  1  0  0.11974  0  0.956307  0  0  0.125428  0  1.027591  0  0  0.128478  0  1.026382  0  0  0.108879  0.123462  0  1.028185  0
H  H20  1  0.86786872  0.14015954  0.36330138  1  0  0.101923  0  0.970073  0  0  0.10914  0  1.037616  0  0  0.111816  0  1.036612  0  0  0.10282  0.107343  0  1.038079  0
H  H21  1  0.13214709  0.85983703  0.63670597  1  0  0.101913  0  0.970115  0  0  0.109159  0  1.037611  0  0  0.111836  0  1.036602  0  0  0.102856  0.107364  0  1.038079  0
H  H22  1  0.55651504  0.08429094  0.27216148  1  0  0.107154  0  0.953597  0  0  0.115231  0  1.015129  0  0  0.118689  0  1.013441  0  0  0.106318  0.113104  0  1.015572  0
H  H23  1  0.44350837  0.91569930  0.72785227  1  0  0.107071  0  0.953498  0  0  0.11523  0  1.014957  0  0  0.118686  0  1.013267  0  0  0.106291  0.11307  0  1.015441  0
H  H24  1  0.60861296  0.83850864  0.22828493  1  0  0.125365  0  0.939792  0  0  0.134418  0  1.00024  0  0  0.138285  0  0.997765  0  0  0.111741  0.131735  0  1.001814  0
H  H25  1  0.39139423  0.16148799  0.77172514  1  0  0.125427  0  0.939467  0  0  0.134435  0  1.000009  0  0  0.138302  0  0.997535  0  0  0.111769  0.131751  0  1.001585  0
C  C26  1  0.81938278  0.55160228  0.29285219  1  0  0.252978  0  3.760625  0  0  0.235459  0  4.029029  0  0  0.243644  0  4.04518  0  0  0.090862  0.229892  0  4.017691  0
C  C27  1  0.18068284  0.44835412  0.70715035  1  0  0.253396  0  3.760372  0  0  0.235849  0  4.028846  0  0  0.244036  0  4.044992  0  0  0.090963  0.230226  0  4.017519  0
C  C28  1  0.69179574  0.51384732  0.22460691  1  0  -0.12879  0  3.657441  0  0  -0.12425  0  3.897357  0  0  -0.127676  0  3.912083  0  0  0.000483  -0.121985  0  3.886843  0
C  C29  1  0.30824151  0.48613966  0.77539140  1  0  -0.128525  0  3.657117  0  0  -0.124114  0  3.896964  0  0  -0.127525  0  3.911673  0  0  0.000472  -0.121859  0  3.886473  0
C  C30  1  0.53893730  0.42957600  0.24914041  1  0  -0.053149  0  3.725428  0  0  -0.04031  0  3.964962  0  0  -0.044776  0  3.98341  0  0  -0.008519  -0.037024  0  3.951384  0
C  C31  1  0.46107769  0.57041215  0.75084974  1  0  -0.053096  0  3.725704  0  0  -0.040305  0  3.96532  0  0  -0.044778  0  3.983773  0  0  -0.008498  -0.037012  0  3.951747  0
C  C32  1  0.51719916  0.38485863  0.34059291  1  0  -0.072439  0  3.71525  0  0  -0.102481  0  3.973495  0  0  -0.102325  0  3.991244  0  0  -0.083183  -0.102167  0  3.960147  0
C  C33  1  0.48283077  0.61510320  0.65939315  1  0  -0.072634  0  3.715236  0  0  -0.102636  0  3.973484  0  0  -0.102507  0  3.991236  0  0  -0.083251  -0.102327  0  3.960139  0
C  C34  1  0.64640220  0.42305231  0.40760796  1  0  -0.056314  0  3.77747  0  0  -0.068438  0  4.032882  0  0  -0.069951  0  4.052682  0  0  -0.088518  -0.067576  0  4.019678  0
C  C35  1  0.35363950  0.57688637  0.59237655  1  0  -0.056007  0  3.77713  0  0  -0.068116  0  4.032498  0  0  -0.069667  0  4.052279  0  0  -0.088357  -0.067268  0  4.01932  0
C  C36  1  0.79675670  0.50771289  0.38397645  1  0  -0.15069  0  3.729933  0  0  -0.176076  0  3.986017  0  0  -0.178139  0  4.003606  0  0  -0.088502  -0.174465  0  3.97406  0
C  C37  1  0.20331711  0.49220569  0.61601784  1  0  -0.150832  0  3.729868  0  0  -0.176371  0  3.985979  0  0  -0.178439  0  4.003577  0  0  -0.088541  -0.174763  0  3.974039  0
C  C38  1  0.72486435  0.56981184  0.12900619  1  0  0.734729  0  3.865267  0  0  0.680246  0  4.166428  0  0  0.717436  0  4.159186  0  0  0.225388  0.65472  0  4.176531  0
C  C39  1  0.27511401  0.43020804  0.87100681  1  0  0.734171  0  3.866367  0  0  0.680116  0  4.166863  0  0  0.717303  0  4.159637  0  0  0.225341  0.654586  0  4.176979  0
C  C40  1  0.40041197  0.38581108  0.17884301  1  0  0.651115  0  3.898199  0  0  0.599001  0  4.196748  0  0  0.632364  0  4.195049  0  0  0.201577  0.575756  0  4.202341  0
C  C41  1  0.59954739  0.61421516  0.82115004  1  0  0.651068  0  3.898586  0  0  0.598909  0  4.197243  0  0  0.63228  0  4.19551  0  0  0.201371  0.575654  0  4.20285  0
C  C42  1  0.94653335  0.76065345  0.29406931  1  0  0.271973  0  3.769321  0  0  0.267332  0  4.031411  0  0  0.274919  0  4.047175  0  0  0.089731  0.261987  0  4.020664  0
C  C43  1  0.05347611  0.23932954  0.70594756  1  0  0.272266  0  3.769277  0  0  0.267664  0  4.031286  0  0  0.275258  0  4.047045  0  0  0.089816  0.262258  0  4.020561  0
C  C44  1  0.12334513  0.79080356  0.34353856  1  0  -0.162784  0  3.691959  0  0  -0.197831  0  3.939841  0  0  -0.19881  0  3.958256  0  0  -0.086218  -0.196817  0  3.927034  0
C  C45  1  0.87666596  0.20918045  0.65646808  1  0  -0.162651  0  3.69157  0  0  -0.197757  0  3.939446  0  0  -0.198735  0  3.957861  0  0  -0.086155  -0.196747  0  3.926658  0
C  C46  1  0.09364820  0.92822997  0.36850989  1  0  -0.065788  0  3.801402  0  0  -0.039379  0  4.031722  0  0  -0.048367  0  4.056168  0  0  -0.020462  -0.033504  0  4.01528  0
C  C47  1  0.90636443  0.07175087  0.63149217  1  0  -0.065743  0  3.80125  0  0  -0.039269  0  4.031572  0  0  -0.048258  0  4.056017  0  0  -0.020409  -0.033392  0  4.015129  0
C  C48  1  0.88968587  0.03416683  0.34260685  1  0  -0.103068  0  3.747919  0  0  -0.130299  0  3.997199  0  0  -0.129352  0  4.016202  0  0  -0.093975  -0.13057  0  3.983713  0
C  C49  1  0.11033709  0.96582865  0.65740325  1  0  -0.10326  0  3.747837  0  0  -0.130535  0  3.997171  0  0  -0.12959  0  4.016175  0  0  -0.094138  -0.130808  0  3.983674  0
C  C50  1  0.71477367  0.00195758  0.29271466  1  0  -0.056733  0  3.754473  0  0  -0.067818  0  4.011749  0  0  -0.069964  0  4.030769  0  0  -0.088227  -0.066084  0  3.997617  0
C  C51  1  0.28524728  0.99803476  0.70729492  1  0  -0.056443  0  3.754027  0  0  -0.067539  0  4.011256  0  0  -0.069681  0  4.030273  0  0  -0.088065  -0.065782  0  3.997129  0
C  C52  1  0.74171489  0.86511815  0.26837280  1  0  -0.123938  0  3.665545  0  0  -0.154332  0  3.922731  0  0  -0.155509  0  3.939371  0  0  -0.081714  -0.15331  0  3.910972  0
C  C53  1  0.25829857  0.13486795  0.73163712  1  0  -0.124153  0  3.665569  0  0  -0.154589  0  3.922873  0  0  -0.155769  0  3.939513  0  0  -0.081853  -0.15357  0  3.911125  0
C  C54  1  0.27416264  0.95789755  0.42658318  1  0  0.656749  0  3.805982  0  0  0.603205  0  4.106165  0  0  0.637083  0  4.098168  0  0  0.237942  0.580165  0  4.111385  0
C  C55  1  0.72585385  0.04209796  0.57341811  1  0  0.656924  0  3.805781  0  0  0.603202  0  4.106181  0  0  0.637082  0  4.098181  0  0  0.237915  0.580161  0  4.1114  0
C  C56  1  0.60120499  0.01314412  0.02744430  1  0  0.560491  0  3.921019  0  0  0.517026  0  4.215107  0  0  0.546926  0  4.212608  0  0  0.221897  0.496548  0  4.221446  0
C  C57  1  0.39876115  0.98690518  0.97255433  1  0  0.559762  0  3.921809  0  0  0.516161  0  4.21609  0  0  0.546056  0  4.213611  0  0  0.22166  0.495688  0  4.222413  0
O  O58  1  0.98448170  0.62494168  0.26702319  1  0  -0.307244  0  2.338832  0  0  -0.240618  0  2.567025  0  0  -0.257253  0  2.570452  0  0  -0.156584  -0.229137  0  2.563765  0
O  O59  1  0.01554929  0.37504745  0.73298179  1  0  -0.307818  0  2.339081  0  0  -0.241103  0  2.567111  0  0  -0.257765  0  2.570582  0  0  -0.156621  -0.229484  0  2.563768  0
O  O60  1  0.61061803  0.69382847  0.10276059  1  0  -0.689017  0  1.977259  0  0  -0.643325  0  2.220579  0  0  -0.675888  0  2.208621  0  0  -0.354251  -0.626027  0  2.22725  0
O  O61  1  0.38937107  0.30620397  0.89727411  1  0  -0.688791  0  1.977959  0  0  -0.643175  0  2.220993  0  0  -0.675761  0  2.209035  0  0  -0.354229  -0.625883  0  2.227672  0
O  O62  1  0.88026674  0.49751149  0.07768662  1  0  -0.790494  0  2.148778  0  0  -0.733434  0  2.418205  0  0  -0.778469  0  2.406756  0  0  -0.420967  -0.714577  0  2.425217  0
O  O63  1  0.11966188  0.50252016  0.92229401  1  0  -0.79031  0  2.14935  0  0  -0.733399  0  2.418524  0  0  -0.778419  0  2.407081  0  0  -0.420936  -0.714541  0  2.425539  0
O  O64  1  0.40836847  0.43514607  0.09563538  1  0  -0.694148  0  2.036931  0  0  -0.631085  0  2.270148  0  0  -0.663582  0  2.259868  0  0  -0.360236  -0.613686  0  2.276048  0
O  O65  1  0.59157557  0.56489181  0.90436049  1  0  -0.694265  0  2.037263  0  0  -0.631063  0  2.270359  0  0  -0.66356  0  2.260115  0  0  -0.360164  -0.613648  0  2.276243  0
O  O66  1  0.28025928  0.29897226  0.20023553  1  0  -0.668116  0  1.946818  0  0  -0.621452  0  2.186541  0  0  -0.653403  0  2.177544  0  0  -0.365853  -0.605001  0  2.191766  0
O  O67  1  0.71960460  0.70110595  0.79975775  1  0  -0.668015  0  1.946834  0  0  -0.621498  0  2.186779  0  0  -0.653426  0  2.177779  0  0  -0.365801  -0.605041  0  2.192005  0
O  O68  1  0.24475596  0.09213225  0.43899776  1  0  -0.538426  0  2.101377  0  0  -0.486803  0  2.318025  0  0  -0.509461  0  2.304968  0  0  -0.320756  -0.471239  0  2.326703  0
O  O69  1  0.75526620  0.90786635  0.56099726  1  0  -0.538441  0  2.101389  0  0  -0.48676  0  2.318077  0  0  -0.509418  0  2.305018  0  0  -0.320717  -0.471197  0  2.326757  0
O  O70  1  0.43881967  0.86115494  0.46123007  1  0  -0.569879  0  2.005191  0  0  -0.517428  0  2.225122  0  0  -0.541281  0  2.218878  0  0  -0.282594  -0.501243  0  2.229437  0
O  O71  1  0.56122551  0.13884561  0.53876210  1  0  -0.569962  0  2.005103  0  0  -0.517371  0  2.225019  0  0  -0.541233  0  2.218785  0  0  -0.282568  -0.501186  0  2.229327  0
O  O72  1  0.79647817  0.92317000  0.02778912  1  0  -0.617379  0  2.073394  0  0  -0.572272  0  2.318988  0  0  -0.60319  0  2.308367  0  0  -0.355443  -0.55681  0  2.324384  0
O  O73  1  0.20348577  0.07688138  0.97219856  1  0  -0.616857  0  2.07347  0  0  -0.571773  0  2.31921  0  0  -0.60272  0  2.308609  0  0  -0.355257  -0.556298  0  2.324561  0
O  O74  1  0.55212665  0.12645780  0.06839004  1  0  -0.683143  0  2.1102  0  0  -0.625441  0  2.347201  0  0  -0.660815  0  2.337771  0  0  -0.353115  -0.607333  0  2.351667  0
O  O75  1  0.44783813  0.87357789  0.93162149  1  0  -0.683036  0  2.110691  0  0  -0.625299  0  2.347733  0  0  -0.660639  0  2.338314  0  0  -0.353171  -0.60719  0  2.352189  0
O  O76  1  0.05784775  0.82375097  0.86538725  1  0  -0.916473  0  1.883314  0  0  -0.87062  0  2.080292  0  0  -0.899303  0  2.042219  0  0  -0.648203  -0.858277  0  2.101733  0
O  O77  1  0.94213912  0.17625833  0.13461068  1  0  -0.916397  0  1.883323  0  0  -0.870522  0  2.080344  0  0  -0.899246  0  2.042252  0  0  -0.648228  -0.858182  0  2.101783  0
O  O78  1  0.14727570  0.69485455  0.05452477  1  0  -0.901776  0  1.897646  0  0  -0.854906  0  2.111125  0  0  -0.882876  0  2.077985  0  0  -0.649465  -0.842008  0  2.129502  0
O  O79  1  0.85268227  0.30517485  0.94546880  1  0  -0.901554  0  1.897814  0  0  -0.854627  0  2.111311  0  0  -0.88263  0  2.078268  0  0  -0.649342  -0.841707  0  2.129642  0
