# generated using pymatgen
data_NiH30C22(N3O2)2
_symmetry_space_group_name_H-M   'P 1'
_cell_length_a   11.01718910
_cell_length_b   15.47321139
_cell_length_c   15.47401099
_cell_angle_alpha   114.56320748
_cell_angle_beta   103.75454821
_cell_angle_gamma   103.71274311
_symmetry_Int_Tables_number   1
_chemical_formula_structural   NiH30C22(N3O2)2
_chemical_formula_sum   'Ni3 H90 C66 N18 O12'
_cell_volume   2155.33989819
_cell_formula_units_Z   3
loop_
 _symmetry_equiv_pos_site_id
 _symmetry_equiv_pos_as_xyz
  1  'x, y, z'
loop_
 _atom_site_type_symbol
 _atom_site_label
 _atom_site_symmetry_multiplicity
 _atom_site_fract_x
 _atom_site_fract_y
 _atom_site_fract_z
 _atom_site_occupancy
 _atom_site_pbe_bader_charge
 _atom_site_pbe_bader_spin_density
 _atom_site_pbe_cm5_charge
 _atom_site_pbe_ddec_charge
 _atom_site_pbe_ddec_spin_density
 _atom_site_pbe_ddec_sum_bond_order
 _atom_site_pbe_magmom
Ni  Ni0  1  0.50000049  0.49999983  0.99999956  1  1.055862  -1.493111  0.638468  0.613007  -1.751747  2.524164  -1.48
Ni  Ni1  1  0.00000053  0.50000025  0.50000082  1  1.051983  1.492207  0.637001  0.610674  1.796138  2.522051  1.479
Ni  Ni2  1  0.50000033  0.00000034  0.50000041  1  1.052609  -1.492592  0.63692  0.611486  -1.750518  2.521845  -1.479
H  H3  1  0.57043571  0.64431319  0.96764605  1  0.477374  0.000534  0.288708  0.248558  5e-06  0.995987  0.001
H  H4  1  0.92610215  0.32336760  0.35557138  1  0.465627  -0.000531  0.288202  0.246859  1.8e-05  0.997123  -0.001
H  H5  1  0.60278881  0.03245453  0.67676374  1  0.461852  0.000509  0.288933  0.249218  1.7e-05  0.995566  0.001
H  H6  1  0.07389949  0.67663324  0.64442996  1  0.465612  -0.000531  0.288207  0.246857  1.8e-05  0.997123  -0.001
H  H7  1  0.39721321  0.96754707  0.32323864  1  0.46186  0.000509  0.288913  0.249199  1.6e-05  0.995558  0.001
H  H8  1  0.42956409  0.35568765  0.03235174  1  0.477371  0.000534  0.288696  0.248556  5e-06  0.995971  0.001
H  H9  1  0.26116593  0.47837446  0.99115904  1  0.435575  0.000392  0.299621  0.245817  -7.9e-05  0.949019  0.0
H  H10  1  0.78278301  0.51288782  0.52164899  1  0.427455  -0.000349  0.299911  0.246631  0.000114  0.948752  0.0
H  H11  1  0.26987835  0.00864047  0.48703709  1  0.429095  0.000349  0.299904  0.247141  -8.3e-05  0.946826  0.0
H  H12  1  0.21721638  0.48711225  0.47835165  1  0.427477  -0.000349  0.299913  0.246635  0.000114  0.948784  0.0
H  H13  1  0.73012236  0.99136037  0.51296474  1  0.429081  0.000348  0.299926  0.247152  -8.3e-05  0.946813  0.0
H  H14  1  0.73883442  0.52162561  0.00883918  1  0.435571  0.000392  0.299659  0.245928  -7.9e-05  0.948953  0.0
H  H15  1  0.27509115  0.52520381  0.85273849  1  0.043247  -0.000354  0.104899  0.081917  -5.2e-05  0.998255  0.0
H  H16  1  0.75012313  0.32770532  0.47480228  1  0.033571  0.000352  0.105481  0.082634  6.4e-05  0.997779  0.0
H  H17  1  0.42227851  0.14726776  0.67235153  1  0.042835  -0.000368  0.104807  0.082862  -5.1e-05  0.998474  0.0
H  H18  1  0.24987797  0.67229629  0.52519865  1  0.033593  0.000352  0.105485  0.082649  6.4e-05  0.997792  0.0
H  H19  1  0.57772220  0.85273308  0.32764966  1  0.042877  -0.000368  0.104805  0.082852  -5.1e-05  0.998476  0.0
H  H20  1  0.72490974  0.47479549  0.14726080  1  0.04341  -0.000354  0.104909  0.081949  -5.2e-05  0.998243  0.0
H  H21  1  0.35551246  0.65754408  0.89472942  1  0.017695  -0.004557  0.097331  0.071976  -0.002106  0.966263  -0.002
H  H22  1  0.69803152  0.23727207  0.34244380  1  0.005756  0.004509  0.096964  0.07136  0.002137  0.967294  0.002
H  H23  1  0.46080123  0.10541947  0.76282645  1  0.040646  -0.00446  0.096909  0.071762  -0.002086  0.966945  -0.002
H  H24  1  0.30196920  0.76272877  0.65755610  1  0.005744  0.004509  0.096985  0.071419  0.002137  0.967286  0.002
H  H25  1  0.53919986  0.89458214  0.23717513  1  0.040673  -0.00446  0.096926  0.07177  -0.002086  0.966954  -0.002
H  H26  1  0.64448618  0.34245445  0.10526787  1  0.017711  -0.004558  0.09734  0.071982  -0.002106  0.966288  -0.002
H  H27  1  0.43096395  0.69521568  0.07854190  1  0.037784  -0.000492  0.107639  0.085109  -0.000129  0.979776  0.0
H  H28  1  0.73571122  0.38339895  0.30477351  1  0.037833  5e-05  0.107459  0.085585  -0.000123  0.980759  0.0
H  H29  1  0.35245106  0.92159303  0.61680860  1  0.036308  -4.7e-05  0.107632  0.0842  0.000126  0.980577  0.0
H  H30  1  0.26429043  0.61660189  0.69522719  1  0.037846  5e-05  0.107467  0.085593  -0.000123  0.980767  0.0
H  H31  1  0.64755151  0.07840781  0.38319356  1  0.036293  -4.8e-05  0.107628  0.084183  0.000126  0.980557  0.0
H  H32  1  0.56903771  0.30478516  0.92145687  1  0.03765  -0.000492  0.107617  0.085093  -0.000129  0.97977  0.0
H  H33  1  0.25198762  0.64051879  0.01536523  1  0.043972  -0.003828  0.092808  0.064311  -0.001846  1.024768  -0.002
H  H34  1  0.61148513  0.37491772  0.35947175  1  0.023792  0.003319  0.092859  0.064438  0.001569  1.025288  0.002
H  H35  1  0.23658254  0.98468825  0.62507147  1  0.052516  -0.003263  0.093521  0.065599  -0.001514  1.02447  -0.002
H  H36  1  0.38851614  0.62508236  0.64052793  1  0.023787  0.00332  0.092851  0.064418  0.001569  1.025295  0.002
H  H37  1  0.76341872  0.01531182  0.37492949  1  0.052509  -0.003263  0.093516  0.065574  -0.001514  1.024467  -0.002
H  H38  1  0.74801179  0.35948128  0.98463283  1  0.043991  -0.003828  0.092808  0.064312  -0.001846  1.024738  -0.002
H  H39  1  0.27551691  0.59088774  0.16200947  1  0.02258  -0.006559  0.090658  0.05835  -0.003002  1.014398  -0.004
H  H40  1  0.68451110  0.57127558  0.40923174  1  0.021334  0.006321  0.090849  0.05872  0.002956  1.015152  0.003
H  H41  1  0.11348721  0.83780478  0.42884071  1  0.032665  -0.006272  0.091491  0.059684  -0.002869  1.013382  -0.003
H  H42  1  0.31548961  0.42872526  0.59076816  1  0.021323  0.00632  0.090853  0.058746  0.002956  1.015163  0.003
H  H43  1  0.88651443  0.16219606  0.57116064  1  0.032649  -0.006272  0.09149  0.059694  -0.002869  1.013352  -0.003
H  H44  1  0.72448211  0.40911156  0.83798885  1  0.022581  -0.006558  0.090656  0.058362  -0.003002  1.014434  -0.004
H  H45  1  0.45366679  0.64100394  0.19825891  1  0.042705  -0.000784  0.102223  0.076536  -0.000232  1.000946  -0.001
H  H46  1  0.81249772  0.55738517  0.35909261  1  0.029327  0.000727  0.102728  0.077785  0.000215  1.001319  0.001
H  H47  1  0.25554514  0.80168941  0.44275587  1  0.052196  -0.000728  0.102434  0.076997  -0.000207  1.000857  -0.001
H  H48  1  0.18750393  0.44261567  0.64090810  1  0.029328  0.000727  0.102725  0.0778  0.000215  1.001331  0.001
H  H49  1  0.74445650  0.19831143  0.55724613  1  0.052264  -0.000728  0.102443  0.077025  -0.000207  1.000843  -0.001
H  H50  1  0.54633168  0.35899613  0.80174028  1  0.042612  -0.000784  0.102228  0.076546  -0.000232  1.000916  -0.001
H  H51  1  0.28648823  0.41402052  0.11486852  1  0.051983  2.6e-05  0.096084  0.10561  1.9e-05  1.003068  0.0
H  H52  1  0.87234086  0.70104939  0.58610214  1  0.063573  -3.3e-05  0.096188  0.105405  -1.3e-05  1.002742  0.0
H  H53  1  0.17147781  0.88501274  0.29913044  1  0.0572  5e-05  0.095787  0.104661  3.1e-05  1.004192  0.0
H  H54  1  0.12765890  0.29895145  0.41389953  1  0.06367  -3.3e-05  0.096188  0.105412  -1.3e-05  1.002746  0.0
H  H55  1  0.82852382  0.11498810  0.70087155  1  0.057234  5e-05  0.09578  0.10464  3.1e-05  1.004192  0.0
H  H56  1  0.71351212  0.58597955  0.88512905  1  0.051985  2.6e-05  0.096085  0.105619  1.9e-05  1.003058  0.0
H  H57  1  0.35888691  0.50724392  0.24654313  1  0.047286  0.000167  0.092342  0.094214  5.5e-05  1.019172  0.0
H  H58  1  0.85165191  0.73945265  0.49287675  1  0.036798  -0.000169  0.092225  0.093527  -4.4e-05  1.020524  0.0
H  H59  1  0.11227926  0.75334864  0.26058975  1  0.040728  0.000135  0.092529  0.094879  3.7e-05  1.019846  0.0
H  H60  1  0.14834841  0.26054742  0.50712405  1  0.036791  -0.000169  0.092204  0.093497  -4.4e-05  1.020498  0.0
H  H61  1  0.88772331  0.24665220  0.73941241  1  0.04066  0.000135  0.092525  0.094859  3.7e-05  1.019833  0.0
H  H62  1  0.64111305  0.49275539  0.75345471  1  0.047264  0.000167  0.092326  0.094198  5.5e-05  1.01916  0.0
H  H63  1  0.40972281  0.45670247  0.76705125  1  0.057607  -0.000777  0.09968  0.07057  -0.000207  1.012641  -0.001
H  H64  1  0.95315344  0.31031850  0.54310342  1  0.021649  0.000782  0.09931  0.069207  0.00022  1.012741  0.001
H  H65  1  0.64262857  0.23292425  0.68960827  1  0.039268  -0.001118  0.10015  0.071042  -0.000416  1.012237  -0.001
H  H66  1  0.04684726  0.68968234  0.45689841  1  0.021671  0.000782  0.099312  0.069212  0.00022  1.012717  0.001
H  H67  1  0.35737400  0.76707659  0.31039389  1  0.039293  -0.001118  0.100127  0.071049  -0.000416  1.012227  -0.001
H  H68  1  0.59027792  0.54329836  0.23294736  1  0.057632  -0.000777  0.099672  0.070548  -0.000207  1.012669  -0.001
H  H69  1  0.49097897  0.57880407  0.78180116  1  0.021187  -0.007399  0.09128  0.058707  -0.003352  0.982242  -0.004
H  H70  1  0.91222249  0.20296586  0.42095317  1  -0.005267  0.007362  0.091348  0.058228  0.003422  0.9817  0.004
H  H71  1  0.70928636  0.21827968  0.79702466  1  0.037333  -0.007639  0.091185  0.057949  -0.003495  0.98211  -0.004
H  H72  1  0.08777783  0.79703421  0.57904764  1  -0.005291  0.007362  0.091348  0.058249  0.003421  0.981722  0.004
H  H73  1  0.29071527  0.78172116  0.20297734  1  0.037383  -0.007639  0.091195  0.057977  -0.003495  0.982086  -0.004
H  H74  1  0.50902138  0.42119600  0.21819706  1  0.021227  -0.007399  0.091267  0.058683  -0.003352  0.982252  -0.004
H  H75  1  0.92869554  0.88884276  0.19912092  1  0.097284  1e-06  0.114686  0.120897  1.9e-05  0.976343  0.0
H  H76  1  0.04028877  0.31050546  0.11133730  1  0.098651  1e-06  0.114771  0.12014  1e-06  0.976708  0.0
H  H77  1  0.72960316  0.80087257  0.68974457  1  0.085357  -2e-06  0.114678  0.119362  2e-06  0.976251  0.0
H  H78  1  0.95971286  0.68949538  0.88866469  1  0.098663  1e-06  0.114768  0.120103  1e-06  0.976687  0.0
H  H79  1  0.27038903  0.19912058  0.31025261  1  0.085225  -2e-06  0.114663  0.119313  2e-06  0.976226  0.0
H  H80  1  0.07130665  0.11115731  0.80087956  1  0.097276  1e-06  0.114683  0.12088  1.9e-05  0.97637  0.0
H  H81  1  0.06641955  0.03626844  0.38166324  1  0.111847  -0.000143  0.109006  0.120479  -5.2e-05  1.016516  0.0
H  H82  1  0.03031049  0.34541890  0.96375941  1  0.111381  8e-05  0.109639  0.121608  4.3e-05  1.016495  0.0
H  H83  1  0.68480219  0.61836337  0.65471082  1  0.116437  -0.000179  0.109346  0.120836  -0.000104  1.018096  0.0
H  H84  1  0.96969076  0.65458117  0.03624220  1  0.111405  8e-05  0.109632  0.121593  4.3e-05  1.016515  0.0
H  H85  1  0.31518629  0.38162978  0.34528184  1  0.116612  -0.000179  0.109307  0.120766  -0.000104  1.018123  0.0
H  H86  1  0.93358171  0.96373163  0.61833708  1  0.111867  -0.000143  0.108976  0.120432  -5.2e-05  1.016496  0.0
H  H87  1  0.72096411  0.72886410  0.32318625  1  0.090843  -0.000226  0.110382  0.080276  -0.00014  1.006475  0.0
H  H88  1  0.99241003  0.59462215  0.27122745  1  0.091776  0.000186  0.110794  0.08173  0.000135  1.005712  0.0
H  H89  1  0.39752502  0.67667773  0.40561671  1  0.072432  -0.00028  0.110584  0.081305  -0.000182  1.005786  0.0
H  H90  1  0.00758974  0.40537869  0.72877422  1  0.091806  0.000186  0.110801  0.081743  0.000135  1.005728  0.0
H  H91  1  0.60247219  0.32332541  0.59438224  1  0.072492  -0.00028  0.110577  0.08131  -0.000182  1.005777  0.0
H  H92  1  0.27903753  0.27113674  0.67681510  1  0.090828  -0.000226  0.110373  0.08025  -0.00014  1.006479  0.0
C  C93  1  0.35980814  0.59672377  0.91398960  1  0.304714  -0.000143  -0.069304  -0.047211  -0.000479  3.922317  0.001
C  C94  1  0.76319872  0.31737110  0.40324747  1  0.329604  7.9e-05  -0.069588  -0.047659  0.000506  3.925981  -0.001
C  C95  1  0.44580943  0.08609227  0.68271525  1  0.278916  -0.000121  -0.068981  -0.048265  -0.000449  3.926077  0.001
C  C96  1  0.23680293  0.68262974  0.59675259  1  0.329567  7.9e-05  -0.069615  -0.047754  0.000506  3.92606  -0.001
C  C97  1  0.55419128  0.91390857  0.31728594  1  0.278717  -0.000122  -0.069018  -0.048313  -0.000449  3.926104  0.001
C  C98  1  0.64019275  0.40327553  0.08600840  1  0.304804  -0.000143  -0.06934  -0.047288  -0.000479  3.922353  0.001
C  C99  1  0.34483109  0.62491019  0.01677592  1  0.27085  -0.000266  -0.07031  -0.055571  -0.000491  3.912445  0.001
C  C100  1  0.71993648  0.39195227  0.37507561  1  0.288758  -0.000203  -0.070485  -0.05717  0.000169  3.916453  -0.001
C  C101  1  0.32805298  0.98327823  0.60812873  1  0.25895  0.000168  -0.071121  -0.056306  -0.000113  3.914602  0.001
C  C102  1  0.28006253  0.60804704  0.62492400  1  0.288752  -0.000203  -0.070495  -0.057132  0.000169  3.916502  -0.001
C  C103  1  0.67194866  0.01672261  0.39187262  1  0.258793  0.000166  -0.071105  -0.056242  -0.000113  3.914512  0.001
C  C104  1  0.65516870  0.37509065  0.98322253  1  0.270933  -0.000266  -0.070301  -0.055553  -0.000491  3.912502  0.001
C  C105  1  0.36144950  0.57121506  0.14763801  1  0.29081  0.000329  -0.071757  -0.018968  -0.000306  3.895925  0.002
C  C106  1  0.79012361  0.57655522  0.42888794  1  0.302206  -0.000428  -0.072883  -0.022424  0.000287  3.900628  -0.002
C  C107  1  0.21380176  0.85223528  0.42355208  1  0.277711  0.000423  -0.072927  -0.022016  -0.000197  3.899569  0.002
C  C108  1  0.20987842  0.42344639  0.57111315  1  0.302174  -0.000428  -0.072887  -0.022518  0.000287  3.90068  -0.002
C  C109  1  0.78619951  0.14776480  0.57644825  1  0.277669  0.000422  -0.072942  -0.022086  -0.000197  3.899536  0.002
C  C110  1  0.63854991  0.42878501  0.85236005  1  0.290945  0.00033  -0.071774  -0.018988  -0.000306  3.895872  0.002
C  C111  1  0.37111517  0.48692253  0.17290911  1  -0.024727  -0.00179  -0.166545  -0.206705  -0.000837  3.919001  -0.002
C  C112  1  0.88412537  0.68612255  0.51322654  1  -0.015148  0.001753  -0.165543  -0.204105  0.000854  3.919809  0.002
C  C113  1  0.19813528  0.82699704  0.31397614  1  -0.023619  -0.001772  -0.166834  -0.206947  -0.000836  3.922323  -0.002
C  C114  1  0.11587759  0.31387906  0.48677536  1  -0.0152  0.001753  -0.165538  -0.204049  0.000854  3.919696  0.002
C  C115  1  0.80186729  0.17300380  0.68602602  1  -0.023616  -0.001772  -0.166854  -0.206928  -0.000835  3.922241  -0.002
C  C116  1  0.62888424  0.51307754  0.82708895  1  -0.024774  -0.00179  -0.166558  -0.206719  -0.000837  3.919051  -0.002
C  C117  1  0.49658841  0.53022806  0.81757098  1  0.272004  0.000538  -0.069251  -0.004817  -0.00023  3.898467  0.002
C  C118  1  0.96645826  0.28732528  0.46957684  1  0.32668  -0.000558  -0.069518  -0.003253  0.000299  3.897871  -0.002
C  C119  1  0.67903760  0.18245008  0.71264833  1  0.280517  0.000182  -0.068723  -0.002362  -0.000472  3.898736  0.002
C  C120  1  0.03354376  0.71267633  0.53042490  1  0.326673  -0.000558  -0.069519  -0.003286  0.000299  3.897897  -0.002
C  C121  1  0.32096348  0.81755153  0.28735454  1  0.280477  0.000182  -0.068713  -0.002409  -0.000472  3.898742  0.002
C  C122  1  0.50341233  0.46977278  0.18242698  1  0.271568  0.000538  -0.069257  -0.004783  -0.00023  3.898324  0.002
C  C123  1  0.73036673  0.70986360  0.14088318  1  1.591354  0.001612  0.194478  0.547761  0.000227  4.272465  0.002
C  C124  1  0.02059844  0.43117642  0.29013649  1  1.586553  -0.001432  0.196444  0.549708  -3.7e-05  4.270786  -0.002
C  C125  1  0.58952071  0.85902155  0.56893386  1  1.591831  0.001422  0.194664  0.547386  0.00013  4.273796  0.002
C  C126  1  0.97940188  0.56882365  0.70986431  1  1.586578  -0.001432  0.196528  0.549853  -3.7e-05  4.270795  -0.002
C  C127  1  0.41047866  0.14097853  0.43106808  1  1.59182  0.001422  0.19457  0.547248  0.00013  4.273987  0.002
C  C128  1  0.26963492  0.29013724  0.85911753  1  1.591435  0.001612  0.194558  0.547924  0.000228  4.272439  0.002
C  C129  1  0.81523200  0.79824300  0.24822906  1  -0.036734  -0.007169  -0.016364  -0.076802  -0.004361  3.962032  -0.005
C  C130  1  0.01733888  0.45021525  0.20181998  1  -0.035839  0.006193  -0.015737  -0.074666  0.003907  3.956372  0.005
C  C131  1  0.56695543  0.75166612  0.54999978  1  -0.013218  -0.0061  -0.01617  -0.077644  -0.003752  3.960589  -0.005
C  C132  1  0.98265957  0.54978482  0.79818114  1  -0.035685  0.006193  -0.015781  -0.074773  0.003907  3.956422  0.005
C  C133  1  0.43304211  0.24833395  0.44999795  1  -0.013195  -0.0061  -0.01612  -0.07756  -0.003752  3.960596  -0.005
C  C134  1  0.18476964  0.20175784  0.75177229  1  -0.036842  -0.007169  -0.016428  -0.076945  -0.004361  3.962138  -0.005
C  C135  1  0.91302074  0.88616927  0.26511805  1  -0.005063  -0.000333  -0.061638  -0.04608  -0.00021  3.948321  0.0
C  C136  1  0.02727638  0.37914976  0.11394195  1  -0.026559  -0.000762  -0.062238  -0.044558  -0.000404  3.945786  0.0
C  C137  1  0.64792397  0.73484202  0.62106607  1  -0.025861  0.000493  -0.06155  -0.041518  0.000298  3.943459  0.0
C  C138  1  0.97272487  0.62085032  0.88605966  1  -0.026583  -0.000762  -0.062224  -0.044472  -0.000404  3.945785  0.0
C  C139  1  0.35207071  0.26515420  0.37893022  1  -0.025608  0.000493  -0.061528  -0.041484  0.000298  3.943372  0.0
C  C140  1  0.08698239  0.11383080  0.73488324  1  -0.005082  -0.000333  -0.061643  -0.046069  -0.00021  3.948368  0.0
C  C141  1  0.98779056  0.96709875  0.36502206  1  -0.092675  -0.000845  -0.081338  -0.159786  -0.000447  3.947642  0.0
C  C142  1  0.02092255  0.39798981  0.03294617  1  -0.003653  -3.7e-05  -0.081206  -0.161139  -1e-06  3.948352  0.0
C  C143  1  0.62277897  0.63499132  0.60216548  1  0.000249  -0.000133  -0.081849  -0.162318  -0.000102  3.948783  0.0
C  C144  1  0.97907684  0.60201026  0.96705512  1  -0.003735  -3.7e-05  -0.08122  -0.161174  -1e-06  3.948381  0.0
C  C145  1  0.37721348  0.36500414  0.39782753  1  0.000326  -0.000133  -0.081846  -0.162284  -0.000102  3.948798  0.0
C  C146  1  0.01221202  0.03290209  0.63497945  1  -0.092663  -0.000845  -0.081297  -0.159713  -0.000447  3.947543  0.0
C  C147  1  0.96176923  0.95808354  0.44613146  1  0.504536  0.000786  0.112354  0.15697  0.000424  4.022778  0.001
C  C148  1  0.00381145  0.48808714  0.04195967  1  0.482735  -0.001353  0.112531  0.156156  -0.000878  4.023936  -0.001
C  C149  1  0.51563652  0.55388138  0.51200044  1  0.430804  0.00123  0.113278  0.157871  0.000807  4.020724  0.001
C  C150  1  0.99618942  0.51191217  0.95804155  1  0.441606  -0.001363  0.112499  0.156139  -0.000878  4.023895  -0.001
C  C151  1  0.48435782  0.44611408  0.48798966  1  0.457926  0.001223  0.113401  0.158015  0.000807  4.020724  0.001
C  C152  1  0.03823334  0.04191730  0.55387005  1  0.546853  0.000784  0.112366  0.157007  0.000424  4.022661  0.001
C  C153  1  0.79693719  0.79655046  0.33422194  1  0.470128  -0.000542  0.046323  0.075488  -0.000326  3.984316  0.0
C  C154  1  0.00069365  0.53792180  0.20354971  1  0.487664  -0.00154  0.046322  0.072149  -0.000907  3.981599  -0.001
C  C155  1  0.46253552  0.66570234  0.46230900  1  0.506994  0.001266  0.04618  0.073435  0.00079  3.982298  0.001
C  C156  1  0.99930705  0.46207904  0.79645212  1  0.487584  -0.00154  0.046349  0.072159  -0.000907  3.981622  -0.001
C  C157  1  0.53746204  0.33429773  0.53768680  1  0.507057  0.001265  0.046186  0.073434  0.00079  3.982357  0.001
C  C158  1  0.20306352  0.20345038  0.66577924  1  0.470141  -0.000542  0.046363  0.07558  -0.000326  3.984261  0.0
N  N159  1  0.48485231  0.57807495  0.91783820  1  -1.091253  -0.07723  -0.494042  -0.316279  -0.046858  3.530481  -0.068
N  N160  1  0.90686068  0.33981577  0.42182955  1  -1.08932  0.076594  -0.494054  -0.314556  0.047841  3.533155  0.067
N  N161  1  0.56701354  0.08220189  0.66025083  1  -1.079195  -0.076765  -0.495178  -0.318711  -0.046699  3.534578  -0.067
N  N162  1  0.09314041  0.66018584  0.57817202  1  -1.089303  0.076597  -0.494065  -0.314563  0.047842  3.533151  0.067
N  N163  1  0.43298848  0.91779972  0.33975155  1  -1.079071  -0.076762  -0.495168  -0.318669  -0.046697  3.53453  -0.067
N  N164  1  0.51514843  0.42192589  0.08215911  1  -1.091082  -0.077233  -0.494029  -0.316279  -0.04686  3.530377  -0.068
N  N165  1  0.34759789  0.54253279  0.04103756  1  -1.058698  -0.074177  -0.487258  -0.303361  -0.045177  3.510493  -0.065
N  N166  1  0.80505338  0.49861253  0.45750838  1  -1.041756  0.073547  -0.487341  -0.302995  0.046197  3.510283  0.065
N  N167  1  0.30653710  0.95887279  0.50144799  1  -1.052237  -0.073599  -0.487563  -0.303728  -0.044885  3.510048  -0.065
N  N168  1  0.19494640  0.50138831  0.54249200  1  -1.041787  0.073543  -0.487298  -0.302963  0.046194  3.510415  0.065
N  N169  1  0.69346416  0.04112728  0.49855297  1  -1.052044  -0.073594  -0.487558  -0.303682  -0.044883  3.509982  -0.065
N  N170  1  0.65240283  0.45746805  0.95896169  1  -1.058706  -0.074177  -0.487295  -0.303497  -0.045178  3.510495  -0.065
N  N171  1  0.86673145  0.87382034  0.43069239  1  -1.202796  -5.4e-05  -0.321431  -0.312687  2.6e-05  3.347941  0.0
N  N172  1  0.99312082  0.55700349  0.12622005  1  -1.215942  -0.000314  -0.322275  -0.311333  -4.6e-05  3.347356  0.0
N  N173  1  0.43593507  0.56925786  0.44314281  1  -1.218628  0.00019  -0.321913  -0.311698  3.1e-05  3.3461  0.0
N  N174  1  0.00687950  0.44299658  0.87378076  1  -1.215967  -0.000314  -0.322276  -0.311322  -4.6e-05  3.347388  0.0
N  N175  1  0.56405987  0.43074068  0.55684932  1  -1.218679  0.00019  -0.321948  -0.311737  3.1e-05  3.346065  0.0
N  N176  1  0.13326927  0.12618050  0.56930815  1  -1.202719  -5.4e-05  -0.321425  -0.312702  2.6e-05  3.347839  0.0
O  O177  1  0.64526684  0.63284267  0.13525508  1  -1.163939  -0.069511  -0.32137  -0.557684  -0.041582  2.363609  -0.065
O  O178  1  0.01236496  0.50257359  0.36707422  1  -1.15965  0.068214  -0.321618  -0.558421  0.042006  2.362525  0.064
O  O179  1  0.51005065  0.86455129  0.49744264  1  -1.159466  -0.068177  -0.320845  -0.556803  -0.04083  2.363553  -0.064
O  O180  1  0.98763085  0.49742495  0.63292646  1  -1.159635  0.068212  -0.321631  -0.558445  0.042005  2.362595  0.064
O  O181  1  0.48994988  0.13545109  0.50256044  1  -1.159502  -0.068173  -0.320819  -0.55675  -0.040828  2.363653  -0.064
O  O182  1  0.35473481  0.36715817  0.86474498  1  -1.163981  -0.069511  -0.321407  -0.557757  -0.041582  2.36362  -0.065
O  O183  1  0.74704040  0.71870241  0.06668031  1  -1.180478  0.001799  -0.338824  -0.563891  0.001318  2.113106  0.001
O  O184  1  0.02834674  0.34807241  0.28122981  1  -1.181288  -0.00154  -0.339822  -0.564783  -0.001096  2.112673  -0.001
O  O185  1  0.68044166  0.93322956  0.65203285  1  -1.19056  0.001534  -0.339313  -0.563967  0.001133  2.110996  0.001
O  O186  1  0.97165638  0.65192767  0.71877213  1  -1.181293  -0.00154  -0.339885  -0.564858  -0.001096  2.112684  -0.001
O  O187  1  0.31956014  0.06676974  0.34796918  1  -1.190508  0.001533  -0.339256  -0.563901  0.001132  2.111025  0.001
O  O188  1  0.25296163  0.28129920  0.93332014  1  -1.180451  0.001799  -0.338834  -0.563921  0.001318  2.11315  0.001
