# generated using pymatgen
data_LaH11C15O8
_symmetry_space_group_name_H-M   'P 1'
_cell_length_a   13.26146516
_cell_length_b   13.92630222
_cell_length_c   15.03670158
_cell_angle_alpha   96.76723450
_cell_angle_beta   90.00676627
_cell_angle_gamma   118.40078947
_symmetry_Int_Tables_number   1
_chemical_formula_structural   LaH11C15O8
_chemical_formula_sum   'La4 H44 C60 O32'
_cell_volume   2420.75021066
_cell_formula_units_Z   4
loop_
 _symmetry_equiv_pos_site_id
 _symmetry_equiv_pos_as_xyz
  1  'x, y, z'
loop_
 _atom_site_type_symbol
 _atom_site_label
 _atom_site_symmetry_multiplicity
 _atom_site_fract_x
 _atom_site_fract_y
 _atom_site_fract_z
 _atom_site_occupancy
 _atom_site_pbe_bader_charge
 _atom_site_pbe_bader_spin_density
 _atom_site_pbe_cm5_charge
 _atom_site_pbe_ddec_charge
 _atom_site_pbe_ddec_spin_density
 _atom_site_pbe_ddec_sum_bond_order
 _atom_site_pbe_magmom
La  La0  1  0.88203401  0.34170190  0.97044609  1  2.229011  0  1.402375  1.840996  0  2.464786  0
La  La1  1  0.54025530  0.65840488  0.52964844  1  2.228002  0  1.402489  1.840815  0  2.464663  0
La  La2  1  0.11796397  0.65829708  0.02955155  1  2.229129  0  1.402396  1.840962  0  2.464835  0
La  La3  1  0.45974377  0.34159326  0.47034779  1  2.227904  0  1.402499  1.840798  0  2.464849  0
H  H4  1  0.67495068  0.43606617  0.20432130  1  0.106411  0  0.108698  0.112711  0  1.005686  0
H  H5  1  0.23862925  0.56422952  0.29629507  1  0.109466  0  0.108497  0.112515  0  1.005093  0
H  H6  1  0.32505580  0.56394679  0.79567578  1  0.106216  0  0.108687  0.112752  0  1.00551  0
H  H7  1  0.76137182  0.43577108  0.70370142  1  0.109487  0  0.108496  0.112522  0  1.005107  0
H  H8  1  0.66392963  0.73779159  0.28055026  1  0.106901  0  0.109613  0.111899  0  1.020383  0
H  H9  1  0.92618838  0.26250200  0.21982564  1  0.10159  0  0.109989  0.112518  0  1.019925  0
H  H10  1  0.33609626  0.26223454  0.71944818  1  0.107107  0  0.109672  0.111908  0  1.020548  0
H  H11  1  0.07380900  0.73750029  0.78017501  1  0.101656  0  0.109997  0.112516  0  1.019892  0
H  H12  1  0.85921643  0.71023794  0.05815262  1  0.132909  0  0.114289  0.118463  0  1.007929  0
H  H13  1  0.14897526  0.28976667  0.44214810  1  0.117195  0  0.114136  0.118613  0  1.006986  0
H  H14  1  0.14079841  0.28976760  0.94184437  1  0.132735  0  0.114234  0.118443  0  1.007879  0
H  H15  1  0.85102950  0.71023229  0.55784821  1  0.116187  0  0.114123  0.118641  0  1.007015  0
H  H16  1  0.61776864  0.82507886  0.17502189  1  0.058119  0  0.099645  0.098219  0  1.011407  0
H  H17  1  0.79269565  0.17552230  0.32549276  1  0.052777  0  0.099673  0.09841  0  1.010929  0
H  H18  1  0.38225065  0.17493255  0.82498567  1  0.058416  0  0.099679  0.098295  0  1.011379  0
H  H19  1  0.20730266  0.82447582  0.67450214  1  0.052648  0  0.099692  0.098448  0  1.010967  0
H  H20  1  0.64628569  0.99560507  0.11520601  1  0.100739  0  0.105243  0.109428  0  0.994864  0
H  H21  1  0.65071403  0.00498610  0.38516152  1  0.0863  0  0.105266  0.109573  0  0.995599  0
H  H22  1  0.35372639  0.00440398  0.88481195  1  0.100554  0  0.105219  0.109444  0  0.994634  0
H  H23  1  0.34928370  0.99502443  0.61483931  1  0.086454  0  0.10528  0.109644  0  0.995551  0
H  H24  1  0.98682283  0.06542972  0.04909029  1  0.091036  0  0.104236  0.106745  0  1.023349  0
H  H25  1  0.92119606  0.93463473  0.45107412  1  0.100294  0  0.104429  0.106896  0  1.023382  0
H  H26  1  0.01317714  0.93457171  0.95090628  1  0.091187  0  0.104265  0.106845  0  1.023241  0
H  H27  1  0.07878708  0.06536019  0.54892910  1  0.099628  0  0.104451  0.106879  0  1.023341  0
H  H28  1  0.95992960  0.89534795  0.10684592  1  0.094569  0  0.09935  0.10162  0  1.034393  0
H  H29  1  0.06437264  0.10486780  0.39357302  1  0.076237  0  0.099364  0.101623  0  1.034513  0
H  H30  1  0.04007895  0.10465254  0.89313991  1  0.09521  0  0.099344  0.101541  0  1.034396  0
H  H31  1  0.93561925  0.89512049  0.60642619  1  0.076486  0  0.099384  0.10165  0  1.034504  0
H  H32  1  0.62118684  0.23458722  0.92081858  1  0.625658  0  0.342602  0.426769  0  0.851129  0
H  H33  1  0.38651363  0.76563046  0.57883062  1  0.6339  0  0.342223  0.42668  0  0.850313  0
H  H34  1  0.37881103  0.76540699  0.07919587  1  0.625474  0  0.342629  0.426791  0  0.851195  0
H  H35  1  0.61345947  0.23434890  0.42117965  1  0.633863  0  0.342305  0.426678  0  0.850188  0
H  H36  1  0.68891395  0.30998788  0.84891867  1  0.637317  0  0.328169  0.409061  0  0.887182  0
H  H37  1  0.37842732  0.69023348  0.65084167  1  0.63075  0  0.32823  0.408363  0  0.887638  0
H  H38  1  0.31106777  0.68999968  0.15108911  1  0.637069  0  0.328137  0.409088  0  0.887172  0
H  H39  1  0.62158087  0.30975573  0.34916761  1  0.630988  0  0.328334  0.408499  0  0.88747  0
H  H40  1  0.90115551  0.17565145  0.85258207  1  0.632904  0  0.312674  0.391751  0  0.926461  0
H  H41  1  0.72523577  0.82431061  0.64760446  1  0.614688  0  0.313281  0.392351  0  0.925395  0
H  H42  1  0.09882544  0.82432703  0.14742279  1  0.63314  0  0.312696  0.391758  0  0.926437  0
H  H43  1  0.27476787  0.17569667  0.35240069  1  0.614881  0  0.313286  0.392333  0  0.925448  0
H  H44  1  0.83747327  0.19709426  0.77470910  1  0.612507  0  0.340628  0.41843  0  0.858671  0
H  H45  1  0.64001478  0.80282179  0.72534875  1  0.617876  0  0.340192  0.418201  0  0.858799  0
H  H46  1  0.16250546  0.80289333  0.22530201  1  0.612306  0  0.340591  0.418512  0  0.858543  0
H  H47  1  0.35998316  0.19717559  0.27465405  1  0.618144  0  0.34013  0.418113  0  0.858903  0
C  C48  1  0.81066917  0.49938379  0.06754496  1  1.562805  0  0.222834  0.619081  0  4.164895  0
C  C49  1  0.31120170  0.50072982  0.43277271  1  1.570135  0  0.223403  0.620054  0  4.1625  0
C  C50  1  0.18932858  0.50061925  0.93244778  1  1.562966  0  0.222719  0.618978  0  4.164981  0
C  C51  1  0.68880188  0.49926829  0.56722085  1  1.570145  0  0.223403  0.620094  0  4.162536  0
C  C52  1  0.77224325  0.56761727  0.12643266  1  0.012019  0  -0.011913  -0.029666  0  3.995589  0
C  C53  1  0.20437949  0.43252152  0.37406443  1  -0.010325  0  -0.011678  -0.029516  0  3.993735  0
C  C54  1  0.22776538  0.43239244  0.87356941  1  0.011742  0  -0.011931  -0.029868  0  3.995539  0
C  C55  1  0.79561749  0.56747998  0.62593813  1  -0.010067  0  -0.011687  -0.029431  0  3.99381  0
C  C56  1  0.70110940  0.52089562  0.19501539  1  -0.105873  0  -0.070856  -0.09662  0  3.929993  0
C  C57  1  0.17993295  0.47936751  0.30555940  1  -0.019833  0  -0.071332  -0.096751  0  3.929802  0
C  C58  1  0.29890182  0.47911323  0.80498326  1  -0.105678  0  -0.070855  -0.096555  0  3.929713  0
C  C59  1  0.82007042  0.52062564  0.69443233  1  -0.020318  0  -0.071325  -0.096803  0  3.929942  0
C  C60  1  0.66523856  0.58391219  0.25180711  1  0.006069  0  -0.01822  -0.042487  0  3.993126  0
C  C61  1  0.08116166  0.41638837  0.24868886  1  -0.033589  0  -0.017958  -0.044211  0  3.994831  0
C  C62  1  0.33477405  0.41609341  0.74819521  1  0.006273  0  -0.01815  -0.042676  0  3.993243  0
C  C63  1  0.91882422  0.58360900  0.75131261  1  -0.032604  0  -0.017959  -0.044112  0  3.99501  0
C  C64  1  0.69467675  0.69104272  0.23610738  1  -0.04539  0  -0.070344  -0.120142  0  3.902302  0
C  C65  1  0.00353162  0.30925567  0.26436131  1  -0.064125  0  -0.070568  -0.120004  0  3.902761  0
C  C66  1  0.30533860  0.30896534  0.76389453  1  -0.046025  0  -0.070335  -0.12004  0  3.902604  0
C  C67  1  0.99646861  0.69073422  0.73563341  1  -0.065212  0  -0.070568  -0.119961  0  3.902703  0
C  C68  1  0.76279360  0.73765451  0.16563243  1  0.043278  0  -0.00487  0.061876  0  4.005621  0
C  C69  1  0.02503937  0.26263234  0.33482899  1  0.017711  0  -0.004835  0.062097  0  4.008816  0
C  C70  1  0.23722420  0.26235846  0.83436731  1  0.043506  0  -0.004914  0.061875  0  4.005712  0
C  C71  1  0.97495722  0.73737742  0.66517707  1  0.01753  0  -0.004766  0.062016  0  4.008801  0
C  C72  1  0.80480093  0.67587604  0.11282326  1  -0.086793  0  -0.066827  -0.120395  0  3.885607  0
C  C73  1  0.12877283  0.32425635  0.38762642  1  -0.046388  0  -0.066889  -0.120558  0  3.887426  0
C  C74  1  0.19521249  0.32413118  0.88717723  1  -0.086278  0  -0.066754  -0.120199  0  3.885276  0
C  C75  1  0.87123387  0.67573593  0.61236056  1  -0.045424  0  -0.066905  -0.120627  0  3.887414  0
C  C76  1  0.59561249  0.53820263  0.32947795  1  1.569834  0  0.236048  0.634219  0  4.157915  0
C  C77  1  0.05737174  0.46202060  0.17083442  1  1.570904  0  0.236463  0.63613  0  4.156701  0
C  C78  1  0.40439090  0.46180867  0.67051763  1  1.569795  0  0.236091  0.634606  0  4.157471  0
C  C79  1  0.94262055  0.53797754  0.82916248  1  1.571208  0  0.236394  0.6362  0  4.15709  0
C  C80  1  0.78547994  0.84627384  0.14276057  1  -0.008605  0  -0.000133  0.083127  0  3.982971  0
C  C81  1  0.93908692  0.15411008  0.35770723  1  -0.057092  0  0.000225  0.083287  0  3.984687  0
C  C82  1  0.21453113  0.15374074  0.85723468  1  -0.009087  0  -0.000118  0.082957  0  3.982895  0
C  C83  1  0.06090789  0.84588556  0.64228608  1  -0.058006  0  0.000177  0.083249  0  3.984857  0
C  C84  1  0.69917479  0.87798853  0.14771835  1  -0.021626  0  -0.09026  -0.135164  0  3.982581  0
C  C85  1  0.82115347  0.12250058  0.35273255  1  0.025931  0  -0.090068  -0.13538  0  3.982533  0
C  C86  1  0.30083730  0.12202209  0.85229113  1  -0.021153  0  -0.090349  -0.135252  0  3.982197  0
C  C87  1  0.17884219  0.87749677  0.64726759  1  0.02629  0  -0.090065  -0.135348  0  3.982476  0
C  C88  1  0.71432465  0.97266019  0.11413669  1  -0.043761  0  -0.082792  -0.088358  0  3.986441  0
C  C89  1  0.74162388  0.02778069  0.38621422  1  -0.05012  0  -0.08326  -0.088409  0  3.987669  0
C  C90  1  0.28567991  0.02734135  0.88587120  1  -0.044339  0  -0.082835  -0.088394  0  3.985915  0
C  C91  1  0.25836863  0.97222242  0.61378584  1  -0.050103  0  -0.08318  -0.088469  0  3.987366  0
C  C92  1  0.81684484  0.03828598  0.07540350  1  -0.045135  0  -0.022801  -0.041672  0  3.993244  0
C  C93  1  0.77838173  0.96192269  0.42478704  1  -0.077837  0  -0.023457  -0.043021  0  3.992363  0
C  C94  1  0.18316229  0.96171470  0.92460097  1  -0.044469  0  -0.022729  -0.041656  0  3.993586  0
C  C95  1  0.22160311  0.03807715  0.57521402  1  -0.077635  0  -0.023571  -0.043125  0  3.99216  0
C  C96  1  0.90610768  0.01146140  0.07622354  1  -0.042992  0  -0.083237  -0.083035  0  3.976817  0
C  C97  1  0.89444943  0.98867236  0.42400036  1  -0.002816  0  -0.083061  -0.082843  0  3.974734  0
C  C98  1  0.09390526  0.98854333  0.92377469  1  -0.045167  0  -0.083305  -0.08329  0  3.976816  0
C  C99  1  0.10553388  0.01131836  0.57599511  1  -0.002842  0  -0.083153  -0.08282  0  3.975008  0
C  C100  1  0.89070665  0.91668243  0.10925987  1  -0.089077  0  -0.091437  -0.136625  0  3.973117  0
C  C101  1  0.97382632  0.08355144  0.39113583  1  -0.076654  0  -0.091637  -0.136595  0  3.973609  0
C  C102  1  0.10930635  0.08332395  0.89073787  1  -0.087921  0  -0.091397  -0.136349  0  3.972804  0
C  C103  1  0.02616753  0.91644678  0.60886906  1  -0.076111  0  -0.09161  -0.136561  0  3.973854  0
C  C104  1  0.82986154  0.13192138  0.02915651  1  1.52056  0  0.191526  0.561921  0  4.235645  0
C  C105  1  0.69768211  0.86824586  0.47093722  1  1.531304  0  0.191958  0.5628  0  4.235564  0
C  C106  1  0.17013824  0.86808421  0.97084380  1  1.520411  0  0.191545  0.561871  0  4.236075  0
C  C107  1  0.30230934  0.13175814  0.52906892  1  1.531262  0  0.191952  0.562738  0  4.235293  0
O  O108  1  0.67810443  0.24579831  0.87651985  1  -1.228535  0  -0.590418  -0.781306  0  1.953491  0
O  O109  1  0.43197388  0.75443294  0.62337802  1  -1.230737  0  -0.589841  -0.780251  0  1.952068  0
O  O110  1  0.32188531  0.75419171  0.12348685  1  -1.228103  0  -0.59042  -0.781348  0  1.953627  0
O  O111  1  0.56801591  0.24555869  0.37662552  1  -1.230952  0  -0.590026  -0.780379  0  1.951868  0
O  O112  1  0.90223560  0.23260259  0.81904723  1  -1.220789  0  -0.591812  -0.768315  0  1.968465  0
O  O113  1  0.66949858  0.76734088  0.68116520  1  -1.207836  0  -0.591834  -0.768569  0  1.966241  0
O  O114  1  0.09775554  0.76737666  0.18095305  1  -1.22077  0  -0.591761  -0.768377  0  1.968303  0
O  O115  1  0.33050643  0.23266310  0.31883894  1  -1.208277  0  -0.591781  -0.768455  0  1.966356  0
O  O116  1  0.74571250  0.39610420  0.05079071  1  -1.191575  0  -0.368829  -0.595323  0  2.147495  0
O  O117  1  0.34939594  0.60400200  0.44962061  1  -1.190981  0  -0.369201  -0.595821  0  2.146724  0
O  O118  1  0.25428307  0.60390050  0.94920420  1  -1.191592  0  -0.368738  -0.595205  0  2.14737  0
O  O119  1  0.65059282  0.39599210  0.55038252  1  -1.191182  0  -0.369176  -0.595896  0  2.146788  0
O  O120  1  0.91019321  0.54689217  0.03515450  1  -1.219019  0  -0.41823  -0.67563  0  2.349097  0
O  O121  1  0.36345221  0.45320078  0.46481496  1  -1.220145  0  -0.41796  -0.675775  0  2.349511  0
O  O122  1  0.08980655  0.45309525  0.96484063  1  -1.219069  0  -0.418159  -0.675563  0  2.349014  0
O  O123  1  0.63655863  0.54679977  0.53517620  1  -1.22007  0  -0.417937  -0.675769  0  2.349597  0
O  O124  1  0.56991300  0.44058007  0.34329500  1  -1.207727  0  -0.377477  -0.634185  0  2.217171  0
O  O125  1  0.12921916  0.55960529  0.15693271  1  -1.203127  0  -0.377006  -0.634324  0  2.217316  0
O  O126  1  0.43010511  0.55943955  0.65671008  1  -1.208001  0  -0.377532  -0.634417  0  2.216942  0
O  O127  1  0.87078469  0.44039031  0.84305728  1  -1.203057  0  -0.376965  -0.634389  0  2.217292  0
O  O128  1  0.56611964  0.60095499  0.37779530  1  -1.200793  0  -0.395324  -0.625782  0  2.300809  0
O  O129  1  0.96533146  0.39914261  0.12236399  1  -1.209794  0  -0.395597  -0.627091  0  2.300778  0
O  O130  1  0.43386759  0.39904963  0.62219095  1  -1.200419  0  -0.395359  -0.625847  0  2.300802  0
O  O131  1  0.03466342  0.60084561  0.87762856  1  -1.209755  0  -0.39559  -0.627183  0  2.301006  0
O  O132  1  0.75485441  0.16465722  0.03499230  1  -1.167445  0  -0.378024  -0.592747  0  2.115378  0
O  O133  1  0.58998381  0.83547962  0.46493607  1  -1.185783  0  -0.377774  -0.592766  0  2.116086  0
O  O134  1  0.24513127  0.83533524  0.96501133  1  -1.167344  0  -0.37806  -0.592712  0  2.115656  0
O  O135  1  0.41000802  0.16451607  0.53506324  1  -1.185667  0  -0.377823  -0.59282  0  2.115577  0
O  O136  1  0.91841599  0.17840607  0.98243264  1  -1.215374  0  -0.384704  -0.638527  0  2.193682  0
O  O137  1  0.73971172  0.82173124  0.51772224  1  -1.199933  0  -0.385328  -0.639385  0  2.194455  0
O  O138  1  0.08158644  0.82159123  0.01756217  1  -1.215424  0  -0.384721  -0.638454  0  2.193775  0
O  O139  1  0.26027769  0.17826111  0.48227206  1  -1.199958  0  -0.385255  -0.63929  0  2.194682  0
