# generated using pymatgen
data_AlH11C14O5
_symmetry_space_group_name_H-M   'P 1'
_cell_length_a   6.62636748
_cell_length_b   18.23217945
_cell_length_c   17.91746762
_cell_angle_alpha   89.96339237
_cell_angle_beta   90.00061772
_cell_angle_gamma   89.99934843
_symmetry_Int_Tables_number   1
_chemical_formula_structural   AlH11C14O5
_chemical_formula_sum   'Al4 H44 C56 O20'
_cell_volume   2164.66474126
_cell_formula_units_Z   4
loop_
 _symmetry_equiv_pos_site_id
 _symmetry_equiv_pos_as_xyz
  1  'x, y, z'
loop_
 _atom_site_type_symbol
 _atom_site_label
 _atom_site_symmetry_multiplicity
 _atom_site_fract_x
 _atom_site_fract_y
 _atom_site_fract_z
 _atom_site_occupancy
 _atom_site_pbe_bader_charge
 _atom_site_pbe_bader_spin_density
 _atom_site_pbe_cm5_charge
 _atom_site_pbe_ddec_charge
 _atom_site_pbe_ddec_spin_density
 _atom_site_pbe_ddec_sum_bond_order
 _atom_site_pbe_magmom
Al  Al0  1  0.70180676  0.74888073  0.24583001  1  2.499861  0  0.397104  1.639687  0  2.587158  0
Al  Al1  1  0.29822730  0.24926662  0.75383346  1  2.501639  0  0.396979  1.640012  0  2.588051  0
Al  Al2  1  0.79818736  0.24887786  0.74583006  1  2.500021  0  0.397226  1.639537  0  2.587339  0
Al  Al3  1  0.20177728  0.74926675  0.25383286  1  2.50171  0  0.397088  1.64008  0  2.587827  0
H  H4  1  0.78337093  0.38160188  0.55733689  1  0.074053  0  0.10625  0.110472  0  1.000853  0
H  H5  1  0.21108233  0.61677519  0.43889456  1  0.077168  0  0.109687  0.11704  0  0.997272  0
H  H6  1  0.71392146  0.61556802  0.06174301  1  0.077872  0  0.110093  0.117424  0  0.999655  0
H  H7  1  0.27906049  0.38380363  0.94034183  1  0.077235  0  0.106248  0.110232  0  1.002585  0
H  H8  1  0.28890374  0.11674986  0.93886279  1  0.076832  0  0.109711  0.11706  0  0.997731  0
H  H9  1  0.71666270  0.88160087  0.05734080  1  0.073898  0  0.106263  0.110412  0  1.000725  0
H  H10  1  0.22094821  0.88380809  0.44033458  1  0.077037  0  0.106311  0.110296  0  1.00268  0
H  H11  1  0.78606857  0.11557286  0.56173409  1  0.077863  0  0.110038  0.117416  0  0.999478  0
H  H12  1  0.63931300  0.44040079  0.44394019  1  0.051252  0  0.100673  0.105594  0  1.003504  0
H  H13  1  0.35420008  0.55837396  0.55343959  1  0.059089  0  0.102442  0.107714  0  1.00049  0
H  H14  1  0.86164037  0.55525649  0.94901072  1  0.060866  0  0.101965  0.108056  0  1.001113  0
H  H15  1  0.13038325  0.44467565  0.05154004  1  0.067119  0  0.100616  0.105771  0  1.005948  0
H  H16  1  0.14573421  0.05835316  0.05339996  1  0.059813  0  0.102466  0.107785  0  1.000295  0
H  H17  1  0.86071658  0.94041225  0.94395139  1  0.050801  0  0.100696  0.105635  0  1.003836  0
H  H18  1  0.36963522  0.94467940  0.55153453  1  0.067199  0  0.100589  0.105771  0  1.005903  0
H  H19  1  0.63835944  0.05525766  0.44900844  1  0.060767  0  0.102005  0.108087  0  1.001154  0
H  H20  1  0.47008687  0.51742925  0.66702334  1  0.024278  0  0.090156  0.124005  0  0.999185  0
H  H21  1  0.32111148  0.45880571  0.72460576  1  0.053601  0  0.095272  0.138588  0  0.996556  0
H  H22  1  0.49496508  0.42053441  0.66154227  1  0.060912  0  0.094758  0.135365  0  1.013103  0
H  H23  1  0.51058665  0.48385334  0.33569197  1  0.027364  0  0.08738  0.119227  0  1.005632  0
H  H24  1  0.50314020  0.58171936  0.33598807  1  0.092197  0  0.100692  0.150439  0  0.99818  0
H  H25  1  0.66419207  0.53607651  0.27348380  1  0.084581  0  0.09516  0.137306  0  0.996448  0
H  H26  1  0.99517323  0.48983011  0.15738837  1  0.004534  0  0.087274  0.119202  0  1.006669  0
H  H27  1  0.15040587  0.53827076  0.22210144  1  0.057967  0  0.095087  0.137279  0  0.994209  0
H  H28  1  0.99908899  0.58770713  0.15929465  1  0.082695  0  0.100935  0.150475  0  1.000711  0
H  H29  1  0.98615097  0.51203983  0.83841646  1  0.034619  0  0.089956  0.123862  0  0.999923  0
H  H30  1  0.99854136  0.41477617  0.84235883  1  0.071723  0  0.094471  0.134396  0  1.018676  0
H  H31  1  0.83482830  0.45689070  0.77819526  1  0.053867  0  0.095179  0.138601  0  0.994535  0
H  H32  1  0.98953707  0.98388196  0.83572813  1  0.02651  0  0.08731  0.119273  0  1.005441  0
H  H33  1  0.83592617  0.03608668  0.77349792  1  0.085441  0  0.095051  0.137089  0  0.996546  0
H  H34  1  0.99687728  0.08174715  0.83602168  1  0.09149  0  0.100751  0.150766  0  0.997862  0
H  H35  1  0.02986657  0.01742306  0.16698220  1  0.025452  0  0.090256  0.124179  0  0.998825  0
H  H36  1  0.00500383  0.92052526  0.16152206  1  0.060793  0  0.094732  0.135306  0  1.012996  0
H  H37  1  0.17884903  0.95881414  0.22457995  1  0.054264  0  0.095224  0.13858  0  0.996329  0
H  H38  1  0.51380447  0.01203424  0.33842439  1  0.034462  0  0.089902  0.123709  0  0.999957  0
H  H39  1  0.66513905  0.95689094  0.27819398  1  0.054039  0  0.095189  0.138569  0  0.994455  0
H  H40  1  0.50145555  0.91476758  0.34236484  1  0.071603  0  0.094449  0.134374  0  1.018664  0
H  H41  1  0.50483692  0.98983606  0.65738614  1  0.004465  0  0.087289  0.119187  0  1.006602  0
H  H42  1  0.50091006  0.08771667  0.65929317  1  0.082594  0  0.100873  0.150377  0  1.000841  0
H  H43  1  0.34958638  0.03827651  0.72209831  1  0.058053  0  0.095083  0.13727  0  0.994262  0
H  H44  1  0.46700351  0.77732601  0.34279885  1  0.619877  0  0.352539  0.429485  0  0.855951  0
H  H45  1  0.53381413  0.28029042  0.65805532  1  0.636705  0  0.351878  0.428678  0  0.857483  0
H  H46  1  0.03299246  0.27733161  0.84279524  1  0.619889  0  0.352495  0.429346  0  0.855997  0
H  H47  1  0.96617269  0.78028975  0.15805222  1  0.636626  0  0.351828  0.428657  0  0.85753  0
C  C48  1  0.44269249  0.64861247  0.16228841  1  1.558503  0  0.269032  0.64388  0  4.093199  0
C  C49  1  0.55014459  0.35030009  0.83971135  1  1.559503  0  0.266094  0.650904  0  4.086875  0
C  C50  1  0.04941011  0.35116045  0.66088279  1  1.566388  0  0.266143  0.649738  0  4.084922  0
C  C51  1  0.94365476  0.64753147  0.33618004  1  1.569445  0  0.268754  0.644278  0  4.094036  0
C  C52  1  0.94986838  0.85029893  0.33971099  1  1.55965  0  0.266149  0.650978  0  4.08665  0
C  C53  1  0.05727217  0.14861142  0.66228433  1  1.558153  0  0.269076  0.644008  0  4.093203  0
C  C54  1  0.55638274  0.14753317  0.83616982  1  1.569884  0  0.268733  0.643995  0  4.093382  0
C  C55  1  0.45057209  0.85116312  0.16088020  1  1.566478  0  0.266325  0.650227  0  4.085044  0
C  C56  1  0.06056488  0.41459452  0.60831544  1  -0.01131  0  -0.016147  -0.103233  0  3.94312  0
C  C57  1  0.93308855  0.58406065  0.38859450  1  -0.047346  0  -0.014666  -0.106246  0  3.940146  0
C  C58  1  0.43063646  0.58545169  0.10951591  1  -0.01907  0  -0.013911  -0.104971  0  3.934694  0
C  C59  1  0.56222626  0.41384096  0.89199413  1  -0.010897  0  -0.016688  -0.10393  0  3.94165  0
C  C60  1  0.56689897  0.08404751  0.88859492  1  -0.048059  0  -0.014472  -0.105811  0  3.939801  0
C  C61  1  0.43941298  0.91458077  0.10830891  1  -0.010861  0  -0.016166  -0.103285  0  3.943203  0
C  C62  1  0.93776636  0.91384970  0.39199316  1  -0.011049  0  -0.016446  -0.103796  0  3.941315  0
C  C63  1  0.06937265  0.08545828  0.60951856  1  -0.018864  0  -0.013863  -0.105046  0  3.935128  0
C  C64  1  0.76333642  0.47992795  0.44314160  1  -0.042498  0  -0.09376  -0.205563  0  3.954391  0
C  C65  1  0.23107913  0.51853251  0.55384382  1  0.011  0  -0.09181  -0.200049  0  3.951321  0
C  C66  1  0.73560071  0.51661013  0.94755392  1  -0.051841  0  -0.092012  -0.202002  0  3.951231  0
C  C67  1  0.25713824  0.48294962  0.05353232  1  -0.063449  0  -0.094381  -0.205977  0  3.957282  0
C  C68  1  0.26890657  0.01851353  0.05381128  1  0.010759  0  -0.091925  -0.200172  0  3.95131  0
C  C69  1  0.73669761  0.97992443  0.94314180  1  -0.042559  0  -0.093722  -0.205446  0  3.954985  0
C  C70  1  0.24286971  0.98295375  0.55352752  1  -0.065484  0  -0.094342  -0.205956  0  3.957238  0
C  C71  1  0.76438851  0.01661201  0.44754591  1  -0.051933  0  -0.091999  -0.201934  0  3.951353  0
C  C72  1  0.76693215  0.53327101  0.38818847  1  0.002964  0  0.00019  0.164149  0  3.944139  0
C  C73  1  0.22606783  0.46549113  0.60903338  1  -0.063915  0  -0.004643  0.154603  0  3.956475  0
C  C74  1  0.73121532  0.46324295  0.89271142  1  0.016077  0  -0.004069  0.155876  0  3.953181  0
C  C75  1  0.26072833  0.53626908  0.10842398  1  0.008726  0  0.000341  0.16393  0  3.941169  0
C  C76  1  0.27391557  0.96547568  0.10901292  1  -0.06427  0  -0.004626  0.154616  0  3.95643  0
C  C77  1  0.73310416  0.03326779  0.88819333  1  0.003165  0  -1.4e-05  0.163957  0  3.944206  0
C  C78  1  0.23926760  0.03627516  0.60841657  1  0.008817  0  0.000416  0.164068  0  3.941163  0
C  C79  1  0.76877235  0.96324397  0.39270991  1  0.016066  0  -0.004192  0.155875  0  3.953534  0
C  C80  1  0.08599802  0.57791942  0.44110864  1  -0.025292  0  -0.076085  -0.132373  0  3.949511  0
C  C81  1  0.90848694  0.42042257  0.55555873  1  -0.046594  0  -0.079867  -0.135832  0  3.959744  0
C  C82  1  0.40674513  0.42147209  0.94314155  1  -0.037678  0  -0.078873  -0.1343  0  3.957002  0
C  C83  1  0.58647374  0.57787815  0.05841923  1  -0.044364  0  -0.07671  -0.133071  0  3.950729  0
C  C84  1  0.59149980  0.92041974  0.05555554  1  -0.046513  0  -0.079883  -0.135785  0  3.959241  0
C  C85  1  0.41397459  0.07790358  0.94109065  1  -0.02445  0  -0.076027  -0.132362  0  3.950842  0
C  C86  1  0.91353729  0.07788316  0.55841686  1  -0.044695  0  -0.076695  -0.133089  0  3.950356  0
C  C87  1  0.09326066  0.92147419  0.44313780  1  -0.037397  0  -0.078979  -0.134422  0  3.957281  0
C  C88  1  0.08093093  0.52400215  0.49769854  1  -0.006278  0  -0.009496  0.076573  0  4.043235  0
C  C89  1  0.91423163  0.47416267  0.49885788  1  -0.021434  0  -0.009504  0.078605  0  4.047823  0
C  C90  1  0.41173871  0.47555892  0.99945923  1  -0.020561  0  -0.009689  0.078048  0  4.048878  0
C  C91  1  0.58170049  0.52384233  0.00205744  1  -0.024877  0  -0.009355  0.077052  0  4.044608  0
C  C92  1  0.58577135  0.97415904  0.99884197  1  -0.021054  0  -0.009565  0.078445  0  4.04758  0
C  C93  1  0.41905182  0.02399178  0.99767332  1  -0.006451  0  -0.009639  0.076442  0  4.04398  0
C  C94  1  0.91829717  0.02384129  0.50205229  1  -0.024455  0  -0.009392  0.076907  0  4.044368  0
C  C95  1  0.08826989  0.97556158  0.49945100  1  -0.018837  0  -0.009803  0.078017  0  4.048911  0
C  C96  1  0.38632107  0.46549705  0.66865032  1  -0.028384  0  -0.240098  -0.411573  0  3.966082  0
C  C97  1  0.60214553  0.53375877  0.33030692  1  -0.11003  0  -0.239841  -0.414839  0  3.963983  0
C  C98  1  0.09199882  0.53815725  0.16469320  1  -0.040144  0  -0.240467  -0.415886  0  3.961899  0
C  C99  1  0.89624444  0.46159059  0.83493958  1  -0.072401  0  -0.240217  -0.412031  0  3.966668  0
C  C100  1  0.89793705  0.03377644  0.83032961  1  -0.109576  0  -0.239672  -0.415027  0  3.963441  0
C  C101  1  0.11364478  0.96549251  0.16862320  1  -0.03021  0  -0.24007  -0.411668  0  3.965338  0
C  C102  1  0.60374582  0.96158553  0.33494926  1  -0.072329  0  -0.240119  -0.411823  0  3.966805  0
C  C103  1  0.40799446  0.03816337  0.66468802  1  -0.03997  0  -0.24043  -0.415793  0  3.961726  0
O  O104  1  0.28388591  0.82227054  0.18058207  1  -1.261114  0  -0.235076  -0.597872  0  2.371054  0
O  O105  1  0.72148284  0.16922394  0.80774784  1  -1.256422  0  -0.225959  -0.575456  0  2.396108  0
O  O106  1  0.22196125  0.17062695  0.69073959  1  -1.256914  0  -0.225884  -0.574023  0  2.400202  0
O  O107  1  0.78381233  0.82083310  0.32019902  1  -1.257984  0  -0.236111  -0.599524  0  2.374476  0
O  O108  1  0.77853019  0.66922274  0.30774469  1  -1.255962  0  -0.226067  -0.575665  0  2.395558  0
O  O109  1  0.21613586  0.32226901  0.68058800  1  -1.260787  0  -0.235003  -0.597789  0  2.370746  0
O  O110  1  0.71617396  0.32083706  0.82019768  1  -1.258041  0  -0.235969  -0.599327  0  2.37476  0
O  O111  1  0.27803521  0.67062630  0.19073867  1  -1.257287  0  -0.22572  -0.573756  0  2.401003  0
O  O112  1  0.61464152  0.67817732  0.17381873  1  -1.261004  0  -0.238098  -0.597381  0  2.343962  0
O  O113  1  0.37479673  0.32823658  0.82013460  1  -1.267081  0  -0.242706  -0.613805  0  2.352203  0
O  O114  1  0.87443306  0.32861119  0.68031406  1  -1.268076  0  -0.242309  -0.612881  0  2.351688  0
O  O115  1  0.11483184  0.67772791  0.32499696  1  -1.261435  0  -0.23805  -0.597354  0  2.34637  0
O  O116  1  0.12519945  0.82824023  0.32012872  1  -1.26723  0  -0.242679  -0.613765  0  2.352531  0
O  O117  1  0.88535745  0.17816541  0.67381963  1  -1.26107  0  -0.238019  -0.597176  0  2.34465  0
O  O118  1  0.38514484  0.17772367  0.82499394  1  -1.261189  0  -0.238092  -0.597381  0  2.345561  0
O  O119  1  0.62555714  0.82861704  0.18031655  1  -1.267726  0  -0.242417  -0.61327  0  2.351616  0
O  O120  1  0.45570292  0.75079406  0.29615294  1  -1.42484  0  -0.448879  -0.988722  0  2.208284  0
O  O121  1  0.54439141  0.25161718  0.70344623  1  -1.441017  0  -0.448337  -0.987964  0  2.206451  0
O  O122  1  0.04429400  0.25079085  0.79615440  1  -1.424845  0  -0.448875  -0.988509  0  2.208146  0
O  O123  1  0.95559963  0.75161984  0.20344533  1  -1.440874  0  -0.448295  -0.98793  0  2.206359  0
