# generated using pymatgen
data_Tb2H20C28N2O17
_symmetry_space_group_name_H-M   'P 1'
_cell_length_a   10.24089668
_cell_length_b   12.11381024
_cell_length_c   13.00250000
_cell_angle_alpha   74.64663264
_cell_angle_beta   76.01676217
_cell_angle_gamma   71.15120196
_symmetry_Int_Tables_number   1
_chemical_formula_structural   Tb2H20C28N2O17
_chemical_formula_sum   'Tb4 H40 C56 N4 O34'
_cell_volume   1450.36702660
_cell_formula_units_Z   2
loop_
 _symmetry_equiv_pos_site_id
 _symmetry_equiv_pos_as_xyz
  1  'x, y, z'
loop_
 _atom_site_type_symbol
 _atom_site_label
 _atom_site_symmetry_multiplicity
 _atom_site_fract_x
 _atom_site_fract_y
 _atom_site_fract_z
 _atom_site_occupancy
 _atom_site_hle17_bader_spin_density
 _atom_site_hle17_ddec_charge
 _atom_site_hle17_ddec_spin_density
 _atom_site_hle17_ddec_sum_bond_order
 _atom_site_hle17_magmom
 _atom_site_hse06_10hf_bader_spin_density
 _atom_site_hse06_10hf_ddec_charge
 _atom_site_hse06_10hf_ddec_spin_density
 _atom_site_hse06_10hf_ddec_sum_bond_order
 _atom_site_hse06_10hf_magmom
 _atom_site_hse06_bader_spin_density
 _atom_site_hse06_ddec_charge
 _atom_site_hse06_ddec_spin_density
 _atom_site_hse06_ddec_sum_bond_order
 _atom_site_hse06_magmom
 _atom_site_pbe_bader_charge
 _atom_site_pbe_bader_spin_density
 _atom_site_pbe_cm5_charge
 _atom_site_pbe_ddec_charge
 _atom_site_pbe_ddec_spin_density
 _atom_site_pbe_ddec_sum_bond_order
 _atom_site_pbe_magmom
Tb  Tb0  1  0.69399728  0.21875289  0.55118903  1  0  2.254685  0  1.620432  0  0  2.108739  0  2.092281  0  0  2.231048  0  1.910846  0  2.182776  0  1.4955  2.073897  0  2.123746  0
Tb  Tb1  1  0.30600317  0.78124747  0.44881079  1  0  2.254649  0  1.620467  0  0  2.108701  0  2.092322  0  0  2.231017  0  1.910879  0  2.182776  0  1.495487  2.073852  0  2.123801  0
Tb  Tb2  1  0.29511299  0.28154618  0.39512539  1  0  2.237342  0  1.645861  0  0  2.089343  0  2.118553  0  0  2.211311  0  1.938497  0  2.180182  0  1.489771  2.051205  0  2.153257  0
Tb  Tb3  1  0.70488675  0.71845329  0.60487479  1  0  2.237332  0  1.645853  0  0  2.089333  0  2.118556  0  0  2.211308  0  1.938491  0  2.180174  0  1.489777  2.051217  0  2.153227  0
H  H4  1  0.61236860  0.07551338  0.42818057  1  0  0.450233  0  0.844977  0  0  0.417359  0  0.911538  0  0  0.427954  0  0.896363  0  0.66083  0  0.307182  0.410076  0  0.92215  0
H  H5  1  0.38763214  0.92448609  0.57182018  1  0  0.450237  0  0.844968  0  0  0.417366  0  0.911524  0  0  0.42796  0  0.89635  0  0.660879  0  0.307182  0.410084  0  0.922135  0
H  H6  1  0.76860446  0.00990667  0.43934355  1  0  0.455903  0  0.799953  0  0  0.433885  0  0.858776  0  0  0.443038  0  0.845558  0  0.63787  0  0.327506  0.427699  0  0.866179  0
H  H7  1  0.23139628  0.99009281  0.56065721  1  0  0.455892  0  0.799952  0  0  0.433872  0  0.858795  0  0  0.443023  0  0.845579  0  0.637875  0  0.327482  0.427684  0  0.866187  0
H  H8  1  0.80854722  0.96478626  0.64340868  1  0  0.440281  0  0.860107  0  0  0.409368  0  0.923196  0  0  0.42121  0  0.906219  0  0.650888  0  0.299826  0.401224  0  0.935003  0
H  H9  1  0.19145352  0.03521321  0.35659131  1  0  0.44027  0  0.86013  0  0  0.409358  0  0.923215  0  0  0.421199  0  0.906239  0  0.650889  0  0.299818  0.401214  0  0.935022  0
H  H10  1  0.81629764  0.03651479  0.73010966  1  0  0.435518  0  0.867912  0  0  0.403461  0  0.933156  0  0  0.415532  0  0.915906  0  0.646125  0  0.292031  0.394934  0  0.945521  0
H  H11  1  0.18370209  0.96348468  0.26989052  1  0  0.435519  0  0.867915  0  0  0.403462  0  0.933159  0  0  0.415533  0  0.915909  0  0.646126  0  0.292033  0.394935  0  0.945524  0
H  H12  1  0.21759594  0.51281248  0.46744854  1  0  0.447209  0  0.843218  0  0  0.41988  0  0.900119  0  0  0.430959  0  0.884216  0  0.641979  0  0.310397  0.412254  0  0.911248  0
H  H13  1  0.78240480  0.48718700  0.53255145  1  0  0.447204  0  0.84322  0  0  0.419873  0  0.900124  0  0  0.430954  0  0.884218  0  0.641976  0  0.310385  0.412247  0  0.911254  0
H  H14  1  0.37595204  0.46198113  0.46561886  1  0  0.448987  0  0.827984  0  0  0.421498  0  0.893404  0  0  0.431216  0  0.87948  0  0.641903  0  0.317314  0.414716  0  0.903322  0
H  H15  1  0.62404870  0.53801835  0.53438113  1  0  0.448995  0  0.827985  0  0  0.421504  0  0.893398  0  0  0.431222  0  0.879474  0  0.641908  0  0.317317  0.414722  0  0.903317  0
H  H16  1  0.52469532  0.24753835  0.91342451  1  0  0.105088  0  0.957208  0  0  0.115804  0  1.017806  0  0  0.11924  0  1.015388  0  0.118616  0  0.107298  0.113404  0  1.019395  0
H  H17  1  0.47530643  0.75246112  0.08657529  1  0  0.105056  0  0.957208  0  0  0.115787  0  1.017793  0  0  0.119223  0  1.015376  0  0.118627  0  0.107293  0.113388  0  1.019382  0
H  H18  1  0.36153911  0.32145882  0.07633418  1  0  0.118322  0  0.969304  0  0  0.125739  0  1.031436  0  0  0.130195  0  1.028149  0  0.137472  0  0.108331  0.122561  0  1.033871  0
H  H19  1  0.63846234  0.67854154  0.92366546  1  0  0.118314  0  0.969274  0  0  0.125732  0  1.031406  0  0  0.130188  0  1.028119  0  0.137464  0  0.108336  0.122554  0  1.033842  0
H  H20  1  0.20244555  0.52847071  0.04850133  1  0  0.107233  0  0.963217  0  0  0.115402  0  1.027637  0  0  0.118304  0  1.026398  0  0.092607  0  0.10555  0.113289  0  1.028563  0
H  H21  1  0.79755490  0.47152965  0.95149772  1  0  0.10722  0  0.963233  0  0  0.115393  0  1.027645  0  0  0.118296  0  1.026404  0  0.092593  0  0.105546  0.113282  0  1.028568  0
H  H22  1  0.16858958  0.96748209  0.86545876  1  0  0.109967  0  1.007991  0  0  0.117564  0  1.074298  0  0  0.119411  0  1.077138  0  0.09524  0  0.101677  0.116235  0  1.072524  0
H  H23  1  0.83141044  0.03251649  0.13454235  1  0  0.109974  0  1.007964  0  0  0.117572  0  1.074264  0  0  0.119419  0  1.077105  0  0.09523  0  0.101658  0.116241  0  1.07249  0
H  H24  1  0.33115716  0.76203994  0.88884234  1  0  0.100386  0  0.927706  0  0  0.112025  0  0.986993  0  0  0.114353  0  0.984958  0  0.128667  0  0.129028  0.110364  0  0.988348  0
H  H25  1  0.66884287  0.23795864  0.11115801  1  0  0.100351  0  0.927715  0  0  0.11201  0  0.986994  0  0  0.114338  0  0.984959  0  0.128624  0  0.12902  0.110349  0  0.98835  0
H  H26  1  0.03600816  0.62073633  0.84031464  1  0  0.089331  0  0.952947  0  0  0.099867  0  1.016282  0  0  0.102098  0  1.014559  0  0.123096  0  0.123316  0.098161  0  1.017642  0
H  H27  1  0.96399157  0.37926314  0.15968554  1  0  0.08934  0  0.952881  0  0  0.099877  0  1.01622  0  0  0.102107  0  1.014498  0  0.123114  0  0.123317  0.098171  0  1.017579  0
H  H28  1  0.86246967  0.81939526  0.80986049  1  0  0.144079  0  0.938238  0  0  0.154068  0  0.99449  0  0  0.158294  0  0.993015  0  0.129642  0  0.120195  0.15125  0  0.995354  0
H  H29  1  0.13753007  0.18060421  0.19014046  1  0  0.144055  0  0.938269  0  0  0.154024  0  0.99454  0  0  0.158249  0  0.993068  0  0.129664  0  0.120184  0.151206  0  0.995403  0
H  H30  1  0.50786003  0.86824617  0.93070722  1  0  0.096867  0  0.974141  0  0  0.107376  0  1.03824  0  0  0.110166  0  1.036629  0  0.087798  0  0.107004  0.105459  0  1.039264  0
H  H31  1  0.49213942  0.13175420  0.06929280  1  0  0.096854  0  0.974147  0  0  0.107364  0  1.038246  0  0  0.110154  0  1.036635  0  0.087784  0  0.107008  0.105448  0  1.039272  0
H  H32  1  0.32677068  0.98763930  0.05802439  1  0  0.115698  0  0.933916  0  0  0.12539  0  0.98957  0  0  0.128944  0  0.987774  0  0.107679  0  0.113418  0.122871  0  0.990932  0
H  H33  1  0.67322776  0.01236106  0.94197582  1  0  0.115687  0  0.93391  0  0  0.125376  0  0.98957  0  0  0.12893  0  0.987773  0  0.107674  0  0.113412  0.122857  0  0.990932  0
H  H34  1  0.15913212  0.17522503  0.98017060  1  0  0.096648  0  0.978897  0  0  0.105151  0  1.044627  0  0  0.107376  0  1.044901  0  0.117557  0  0.103414  0.103524  0  1.044598  0
H  H35  1  0.84086632  0.82477533  0.01983038  1  0  0.096632  0  0.978884  0  0  0.105138  0  1.044611  0  0  0.107362  0  1.044886  0  0.117574  0  0.103409  0.103511  0  1.044582  0
H  H36  1  0.79365668  0.34836450  0.79459368  1  0  0.140995  0  0.934432  0  0  0.151236  0  0.989974  0  0  0.15495  0  0.988986  0  0.095726  0  0.118492  0.148874  0  0.990309  0
H  H37  1  0.20634176  0.65163586  0.20540653  1  0  0.140999  0  0.934421  0  0  0.151237  0  0.98996  0  0  0.154949  0  0.988971  0  0.095741  0  0.118492  0.148875  0  0.990295  0
H  H38  1  0.99293408  0.16939329  0.82702287  1  0  0.109408  0  0.959381  0  0  0.113993  0  1.027003  0  0  0.118544  0  1.022053  0  0.192795  0  0.124162  0.110601  0  1.03052  0
H  H39  1  0.00706637  0.83060708  0.17297695  1  0  0.109349  0  0.959453  0  0  0.11398  0  1.027023  0  0  0.118528  0  1.022077  0  0.192796  0  0.124164  0.110589  0  1.030541  0
H  H40  1  0.28046841  0.37185185  0.71441582  1  0  0.105113  0  0.943465  0  0  0.113093  0  1.00764  0  0  0.115589  0  1.005129  0  0.126012  0  0.131115  0.111416  0  1.009034  0
H  H41  1  0.71952974  0.62814940  0.28558345  1  0  0.105118  0  0.943391  0  0  0.113108  0  1.007552  0  0  0.115603  0  1.005047  0  0.126006  0  0.131123  0.111429  0  1.008952  0
H  H42  1  0.09444570  0.55764726  0.67711543  1  0  0.132888  0  0.95368  0  0  0.140636  0  1.01639  0  0  0.144664  0  1.014415  0  0.117014  0  0.116689  0.137674  0  1.01785  0
H  H43  1  0.90555345  0.44235399  0.32288212  1  0  0.132911  0  0.95369  0  0  0.140683  0  1.016354  0  0  0.144711  0  1.014378  0  0.117015  0  0.116696  0.137718  0  1.01782  0
C  C44  1  0.55426370  0.35610898  0.71062905  1  0  0.626254  0  3.946389  0  0  0.578547  0  4.24304  0  0  0.611132  0  4.242867  0  1.550375  0  0.192552  0.556047  0  4.247064  0
C  C45  1  0.44573574  0.64389138  0.28937097  1  0  0.626244  0  3.946328  0  0  0.578532  0  4.242984  0  0  0.611123  0  4.242801  0  1.550484  0  0.192562  0.556032  0  4.247006  0
C  C46  1  0.39637638  0.62115950  0.68404693  1  0  0.746097  0  3.865944  0  0  0.692543  0  4.171249  0  0  0.729833  0  4.160244  0  1.637117  0  0.237669  0.667491  0  4.181041  0
C  C47  1  0.60362307  0.37884086  0.31595309  1  0  0.746145  0  3.865822  0  0  0.692542  0  4.171227  0  0  0.729841  0  4.160207  0  1.637118  0  0.237699  0.66749  0  4.18102  0
C  C48  1  0.38043006  0.53102221  0.78889954  1  0  -0.093438  0  3.644762  0  0  -0.08845  0  3.883954  0  0  -0.089369  0  3.898235  0  0.050907  0  0.009383  -0.087529  0  3.873145  0
C  C49  1  0.61957039  0.46897815  0.21109952  1  0  -0.0934  0  3.644742  0  0  -0.088427  0  3.883979  0  0  -0.08935  0  3.898257  0  0.050702  0  0.009407  -0.087506  0  3.87317  0
C  C50  1  0.46486578  0.41228388  0.80344954  1  0  -0.070236  0  3.725143  0  0  -0.054409  0  3.96009  0  0  -0.060783  0  3.979735  0  -0.056263  0  -0.010371  -0.049733  0  3.945409  0
C  C51  1  0.53513496  0.58771560  0.19655045  1  0  -0.070268  0  3.72523  0  0  -0.054421  0  3.96019  0  0  -0.060796  0  3.979833  0  -0.056265  0  -0.010382  -0.049746  0  3.945509  0
C  C52  1  0.45715575  0.33852109  0.90673007  1  0  -0.065542  0  3.72522  0  0  -0.094872  0  3.979123  0  0  -0.094093  0  3.998395  0  -0.058093  0  -0.080086  -0.095088  0  3.965582  0
C  C53  1  0.54284499  0.66147838  0.09326991  1  0  -0.065533  0  3.725195  0  0  -0.094882  0  3.979107  0  0  -0.094104  0  3.998379  0  -0.058086  0  -0.080101  -0.095098  0  3.965566  0
C  C54  1  0.36583265  0.37887917  0.99596777  1  0  -0.064683  0  3.744398  0  0  -0.077326  0  3.996915  0  0  -0.080224  0  4.015815  0  -0.043273  0  -0.088633  -0.075563  0  3.984254  0
C  C55  1  0.63416881  0.62112119  0.00403186  1  0  -0.064668  0  3.744328  0  0  -0.077316  0  3.996866  0  0  -0.080214  0  4.015767  0  -0.043275  0  -0.088665  -0.075554  0  3.984208  0
C  C56  1  0.27696625  0.49447000  0.98099319  1  0  -0.114439  0  3.730992  0  0  -0.138156  0  3.984309  0  0  -0.137924  0  4.002053  0  -0.030845  0  -0.081042  -0.13815  0  3.97242  0
C  C57  1  0.72303521  0.50553036  0.01900644  1  0  -0.114428  0  3.730963  0  0  -0.138144  0  3.984283  0  0  -0.137912  0  4.002026  0  -0.030899  0  -0.081016  -0.138139  0  3.972393  0
C  C58  1  0.28463194  0.56815260  0.87851534  1  0  0.124394  0  3.770546  0  0  0.109907  0  4.027413  0  0  0.112174  0  4.050633  0  0.2531  0  0.087608  0.108255  0  4.01159  0
C  C59  1  0.71536909  0.43184598  0.12148405  1  0  0.124371  0  3.770534  0  0  0.10989  0  4.027412  0  0  0.112158  0  4.050633  0  0.253368  0  0.087606  0.108239  0  4.01159  0
C  C60  1  0.13599418  0.89353578  0.85802903  1  0  -0.241602  0  3.6997  0  0  -0.259987  0  3.955041  0  0  -0.27309  0  3.974432  0  0.014615  0  -0.102157  -0.251522  0  3.941888  0
C  C61  1  0.86400555  0.10646369  0.14197192  1  0  -0.241704  0  3.699648  0  0  -0.260073  0  3.955005  0  0  -0.273175  0  3.974395  0  0.014102  0  -0.102142  -0.251602  0  3.941845  0
C  C62  1  0.22600161  0.78179448  0.87198223  1  0  0.105065  0  3.67387  0  0  0.061297  0  3.927215  0  0  0.07314  0  3.941569  0  0.316157  0  0.047674  0.053602  0  3.917485  0
C  C63  1  0.77399783  0.21820589  0.12801779  1  0  0.105164  0  3.673777  0  0  0.061349  0  3.927167  0  0  0.073192  0  3.941521  0  0.316732  0  0.047675  0.053654  0  3.917437  0
C  C64  1  0.05814757  0.70161908  0.84358105  1  0  0.10238  0  3.680072  0  0  0.057486  0  3.935999  0  0  0.069929  0  3.948978  0  0.297313  0  0.046248  0.049631  0  3.926833  0
C  C65  1  0.94185246  0.29837950  0.15641930  1  0  0.102325  0  3.680116  0  0  0.057414  0  3.936044  0  0  0.069861  0  3.949018  0  0.297207  0  0.046201  0.049559  0  3.926877  0
C  C66  1  0.96442514  0.81155634  0.82722519  1  0  -0.248813  0  3.679608  0  0  -0.2649  0  3.935095  0  0  -0.277388  0  3.951163  0  0.020798  0  -0.098692  -0.256748  0  3.923741  0
C  C67  1  0.03557129  0.18844402  0.17277617  1  0  -0.248763  0  3.679781  0  0  -0.264805  0  3.935251  0  0  -0.277294  0  3.951318  0  0.020807  0  -0.098645  -0.256654  0  3.923895  0
C  C68  1  0.99991569  0.91611977  0.83154511  1  0  0.433899  0  3.871827  0  0  0.418428  0  4.133566  0  0  0.443141  0  4.138179  0  0.852176  0  0.116637  0.402136  0  4.129416  0
C  C69  1  0.00008505  0.08387970  0.16845565  1  0  0.433954  0  3.871815  0  0  0.418469  0  4.133551  0  0  0.443183  0  4.138163  0  0.852173  0  0.116644  0.402178  0  4.129401  0
C  C70  1  0.97566919  0.30078756  0.50526020  1  0  0.557612  0  3.935206  0  0  0.512812  0  4.232865  0  0  0.54243  0  4.2306  0  1.60367  0  0.219333  0.492415  0  4.23926  0
C  C71  1  0.02433054  0.69921191  0.49473998  1  0  0.557582  0  3.935233  0  0  0.512732  0  4.232991  0  0  0.542348  0  4.230729  0  1.603418  0  0.219329  0.492335  0  4.239385  0
C  C72  1  0.01750940  0.19084585  0.45304552  1  0  0.556511  0  3.92134  0  0  0.511214  0  4.218988  0  0  0.541107  0  4.216231  0  1.591409  0  0.220864  0.490627  0  4.225855  0
C  C73  1  0.98249134  0.80915362  0.54695524  1  0  0.556592  0  3.921293  0  0  0.51129  0  4.218983  0  0  0.541185  0  4.216223  0  1.591787  0  0.220881  0.490703  0  4.22585  0
C  C74  1  0.36878884  0.15193903  0.62436232  1  0  0.724801  0  3.88207  0  0  0.671097  0  4.186643  0  0  0.707554  0  4.178974  0  1.642505  0  0.230681  0.646488  0  4.195396  0
C  C75  1  0.63121061  0.84806134  0.37563846  1  0  0.724853  0  3.882015  0  0  0.671144  0  4.186591  0  0  0.707602  0  4.178921  0  1.642513  0  0.230697  0.646532  0  4.195351  0
C  C76  1  0.54129210  0.90153506  0.72032528  1  0  0.653615  0  3.902283  0  0  0.602781  0  4.198536  0  0  0.635967  0  4.197366  0  1.567173  0  0.205298  0.579744  0  4.203163  0
C  C77  1  0.45870835  0.09846530  0.27967531  1  0  0.653587  0  3.902238  0  0  0.602743  0  4.19852  0  0  0.635929  0  4.197351  0  1.567186  0  0.205272  0.579704  0  4.203143  0
C  C78  1  0.35558620  0.09798868  0.74367099  1  0  -0.092594  0  3.634807  0  0  -0.087908  0  3.873407  0  0  -0.08915  0  3.887398  0  -0.022024  0  0.012502  -0.086816  0  3.863044  0
C  C79  1  0.64441296  0.90201257  0.25632963  1  0  -0.092599  0  3.634883  0  0  -0.087874  0  3.87346  0  0  -0.089115  0  3.887452  0  -0.022011  0  0.012566  -0.08678  0  3.863094  0
C  C80  1  0.44538011  0.98887229  0.78779294  1  0  -0.051056  0  3.69156  0  0  -0.035704  0  3.924725  0  0  -0.041188  0  3.943735  0  0.007415  0  -0.000407  -0.031913  0  3.911316  0
C  C81  1  0.55462006  0.01112896  0.21220749  1  0  -0.051046  0  3.691638  0  0  -0.035703  0  3.924806  0  0  -0.041186  0  3.943816  0  0.0074  0  -0.000441  -0.031909  0  3.911396  0
C  C82  1  0.43534372  0.95208578  0.90022399  1  0  -0.064456  0  3.725312  0  0  -0.09135  0  3.974472  0  0  -0.090954  0  3.993628  0  -0.016201  0  -0.073871  -0.091585  0  3.961257  0
C  C83  1  0.56465543  0.04791548  0.09977663  1  0  -0.064395  0  3.725298  0  0  -0.091285  0  3.974455  0  0  -0.090889  0  3.993611  0  -0.016188  0  -0.07384  -0.091525  0  3.961244  0
C  C84  1  0.33535936  0.01834693  0.97062852  1  0  -0.052543  0  3.744629  0  0  -0.064787  0  3.997945  0  0  -0.06697  0  4.017264  0  0.010007  0  -0.0815  -0.063327  0  3.984875  0
C  C85  1  0.66463950  0.98165521  0.02937117  1  0  -0.052589  0  3.744618  0  0  -0.064829  0  3.997936  0  0  -0.067014  0  4.01726  0  0.010126  0  -0.081525  -0.063367  0  3.984866  0
C  C86  1  0.24140139  0.12276960  0.92763165  1  0  -0.118791  0  3.737961  0  0  -0.144773  0  3.994065  0  0  -0.145555  0  4.01272  0  -0.066771  0  -0.080301  -0.144202  0  3.981498  0
C  C87  1  0.75859776  0.87723166  0.07236820  1  0  -0.118745  0  3.737872  0  0  -0.144723  0  3.993998  0  0  -0.145504  0  4.012654  0  -0.066892  0  -0.080292  -0.144151  0  3.98143  0
C  C88  1  0.25101142  0.16095569  0.81563714  1  0  0.132022  0  3.735218  0  0  0.119497  0  3.987447  0  0  0.122941  0  4.009048  0  0.247525  0  0.095061  0.117238  0  3.972411  0
C  C89  1  0.74898932  0.83904378  0.18436361  1  0  0.132002  0  3.735174  0  0  0.119431  0  3.987475  0  0  0.122871  0  4.009079  0  0.247696  0  0.095055  0.117173  0  3.972436  0
C  C90  1  0.89889297  0.35831749  0.78006879  1  0  -0.231276  0  3.660064  0  0  -0.249832  0  3.918308  0  0  -0.261659  0  3.93365  0  0.041289  0  -0.091529  -0.242253  0  3.907079  0
C  C91  1  0.10110676  0.64168198  0.21993139  1  0  -0.2313  0  3.660073  0  0  -0.249839  0  3.918316  0  0  -0.261665  0  3.933658  0  0.041327  0  -0.091515  -0.24226  0  3.907086  0
C  C92  1  0.00803490  0.25850250  0.79868707  1  0  0.104263  0  3.6251  0  0  0.061142  0  3.880591  0  0  0.07287  0  3.892506  0  0.319741  0  0.051412  0.053952  0  3.872383  0
C  C93  1  0.99196484  0.74149698  0.20131234  1  0  0.104264  0  3.625088  0  0  0.061098  0  3.880593  0  0  0.072837  0  3.892491  0  0.31973  0  0.051341  0.053908  0  3.872387  0
C  C94  1  0.17082817  0.37284163  0.73332758  1  0  0.12564  0  3.635595  0  0  0.081296  0  3.892462  0  0  0.093559  0  3.906711  0  0.351913  0  0.058606  0.073585  0  3.882182  0
C  C95  1  0.82917228  0.62715873  0.26667148  1  0  0.125663  0  3.635497  0  0  0.081321  0  3.892378  0  0  0.093581  0  3.906631  0  0.351921  0  0.058623  0.07361  0  3.882097  0
C  C96  1  0.06533124  0.47529722  0.71350497  1  0  -0.243633  0  3.672935  0  0  -0.263278  0  3.935048  0  0  -0.275966  0  3.950765  0  0.01835  0  -0.094473  -0.254953  0  3.923812  0
C  C97  1  0.93466821  0.52470315  0.28649427  1  0  -0.243699  0  3.67299  0  0  -0.263356  0  3.935132  0  0  -0.276047  0  3.950851  0  0.018353  0  -0.094499  -0.255029  0  3.923893  0
C  C98  1  0.92174287  0.47378093  0.73873133  1  0  0.468084  0  3.853117  0  0  0.452684  0  4.115619  0  0  0.478046  0  4.122336  0  0.795229  0  0.126319  0.43629  0  4.111678  0
C  C99  1  0.07825657  0.52621944  0.26126792  1  0  0.468124  0  3.853191  0  0  0.452709  0  4.115714  0  0  0.478072  0  4.122433  0  0.795154  0  0.126328  0.436315  0  4.111772  0
N  N100  1  0.18846542  0.68604192  0.86441156  1  0  -0.097363  0  3.60971  0  0  -0.006591  0  3.821423  0  0  -0.024272  0  3.847865  0  -1.255382  0  -0.225924  0.005168  0  3.803031  0
N  N101  1  0.81153431  0.31395755  0.13558785  1  0  -0.09738  0  3.60972  0  0  -0.006594  0  3.821443  0  0  -0.024277  0  3.847885  0  -1.255341  0  -0.225946  0.005163  0  3.803052  0
N  N102  1  0.14320146  0.26570086  0.77792569  1  0  -0.08275  0  3.57844  0  0  0.007159  0  3.788434  0  0  -0.009797  0  3.814009  0  -1.248593  0  -0.216967  0.018172  0  3.770725  0
N  N103  1  0.85679669  0.73430039  0.22207435  1  0  -0.082689  0  3.578361  0  0  0.007231  0  3.788383  0  0  -0.009723  0  3.813957  0  -1.248801  0  -0.216938  0.018243  0  3.770677  0
O  O104  1  0.63617017  0.25177006  0.73285560  1  0  -0.672744  0  1.975226  0  0  -0.625446  0  2.214605  0  0  -0.658041  0  2.205944  0  -1.168586  0  -0.379123  -0.608413  0  2.219491  0
O  O105  1  0.36383157  0.74822941  0.26714420  1  0  -0.672747  0  1.975206  0  0  -0.625438  0  2.214573  0  0  -0.658035  0  2.20591  0  -1.168689  0  -0.379135  -0.608406  0  2.21946  0
O  O106  1  0.54086435  0.40842544  0.61273700  1  0  -0.685004  0  1.974409  0  0  -0.62986  0  2.208913  0  0  -0.660393  0  2.198777  0  -1.176306  0  -0.34933  -0.613579  0  2.215032  0
O  O107  1  0.45913769  0.59157314  0.38726220  1  0  -0.68495  0  1.974346  0  0  -0.629839  0  2.208909  0  0  -0.660375  0  2.198772  0  -1.176317  0  -0.349325  -0.613555  0  2.215028  0
O  O108  1  0.49469179  0.66816538  0.67169188  1  0  -0.761412  0  2.059464  0  0  -0.711253  0  2.327471  0  0  -0.750126  0  2.313398  0  -1.200626  0  -0.393832  -0.692268  0  2.335464  0
O  O109  1  0.50530896  0.33183409  0.32830811  1  0  -0.76143  0  2.059412  0  0  -0.711233  0  2.327414  0  0  -0.750109  0  2.313337  0  -1.200628  0  -0.39383  -0.692244  0  2.33541  0
O  O110  1  0.31021104  0.64719835  0.62042664  1  0  -0.700742  0  1.981707  0  0  -0.655994  0  2.238863  0  0  -0.69135  0  2.224657  0  -1.173979  0  -0.373406  -0.638445  0  2.245837  0
O  O111  1  0.68978870  0.35280112  0.37957277  1  0  -0.700772  0  1.981696  0  0  -0.656  0  2.238863  0  0  -0.691358  0  2.224653  0  -1.17398  0  -0.373425  -0.638452  0  2.245838  0
O  O112  1  0.91734541  0.02090645  0.81435271  1  0  -0.561445  0  1.92985  0  0  -0.508296  0  2.130745  0  0  -0.530828  0  2.122762  0  -1.157297  0  -0.306613  -0.49231  0  2.135461  0
O  O113  1  0.08265432  0.97909302  0.18564747  1  0  -0.561439  0  1.929793  0  0  -0.508306  0  2.130699  0  0  -0.530841  0  2.122719  0  -1.157314  0  -0.306599  -0.492321  0  2.135413  0
O  O114  1  0.84886185  0.33025722  0.55308527  1  0  -0.687835  0  2.111656  0  0  -0.631512  0  2.352211  0  0  -0.666255  0  2.343053  0  -1.190121  0  -0.362729  -0.613894  0  2.356866  0
O  O115  1  0.15113990  0.66974225  0.44691453  1  0  -0.687812  0  2.11158  0  0  -0.631457  0  2.35215  0  0  -0.666203  0  2.342997  0  -1.190131  0  -0.362713  -0.613839  0  2.356804  0
O  O116  1  0.06605713  0.35420605  0.49442636  1  0  -0.61006  0  2.072804  0  0  -0.565406  0  2.321036  0  0  -0.596364  0  2.313476  0  -1.152403  0  -0.355363  -0.549252  0  2.324665  0
O  O117  1  0.93394432  0.64579431  0.50557327  1  0  -0.61004  0  2.072859  0  0  -0.565384  0  2.32114  0  0  -0.596339  0  2.31358  0  -1.152376  0  -0.355384  -0.549234  0  2.324767  0
O  O118  1  0.92550418  0.13962607  0.46179360  1  0  -0.621356  0  2.061225  0  0  -0.575072  0  2.305384  0  0  -0.606274  0  2.29487  0  -1.162053  0  -0.358921  -0.559513  0  2.310683  0
O  O119  1  0.07449656  0.86037340  0.53820639  1  0  -0.621414  0  2.061237  0  0  -0.575114  0  2.305394  0  0  -0.606315  0  2.294879  0  -1.162013  0  -0.358924  -0.559554  0  2.310694  0
O  O120  1  0.14325064  0.16257711  0.40280140  1  0  -0.681078  0  2.14278  0  0  -0.623354  0  2.385241  0  0  -0.657317  0  2.375279  0  -1.189056  0  -0.355995  -0.605454  0  2.390436  0
O  O121  1  0.85675110  0.83742236  0.59719840  1  0  -0.681082  0  2.142781  0  0  -0.623358  0  2.385257  0  0  -0.657324  0  2.375296  0  -1.18915  0  -0.356003  -0.605462  0  2.390449  0
O  O122  1  0.27373792  0.15803626  0.57501303  1  0  -0.687988  0  2.026472  0  0  -0.642152  0  2.274441  0  0  -0.674715  0  2.262613  0  -1.171743  0  -0.361848  -0.62462  0  2.280764  0
O  O123  1  0.72626283  0.84196321  0.42498695  1  0  -0.688009  0  2.026436  0  0  -0.642172  0  2.274399  0  0  -0.674743  0  2.262586  0  -1.17175  0  -0.361853  -0.624642  0  2.280725  0
O  O124  1  0.46933305  0.19826516  0.58128740  1  0  -0.761521  0  2.063577  0  0  -0.70926  0  2.335942  0  0  -0.751789  0  2.324791  0  -1.206104  0  -0.392151  -0.690081  0  2.34295  0
O  O125  1  0.53066668  0.80173431  0.41871355  1  0  -0.76155  0  2.063556  0  0  -0.709291  0  2.335934  0  0  -0.751816  0  2.32477  0  -1.206117  0  -0.392177  -0.690111  0  2.342945  0
O  O126  1  0.53362320  0.91788996  0.62023844  1  0  -0.686247  0  2.025614  0  0  -0.624496  0  2.25732  0  0  -0.655725  0  2.247671  0  -1.185754  0  -0.342834  -0.607269  0  2.263335  0
O  O127  1  0.46637725  0.08211040  0.37976293  1  0  -0.686262  0  2.02564  0  0  -0.624503  0  2.257333  0  0  -0.655732  0  2.247683  0  -1.185786  0  -0.342826  -0.607266  0  2.263343  0
O  O128  1  0.62414630  0.80770860  0.76575484  1  0  -0.682939  0  1.977381  0  0  -0.637605  0  2.223573  0  0  -0.669493  0  2.213441  0  -1.185175  0  -0.367786  -0.620583  0  2.229259  0
O  O129  1  0.37585315  0.19229176  0.23424518  1  0  -0.682905  0  1.977319  0  0  -0.637574  0  2.22352  0  0  -0.669461  0  2.213388  0  -1.185171  0  -0.367771  -0.620557  0  2.229228  0
O  O130  1  0.81925283  0.56890273  0.72644508  1  0  -0.720816  0  2.026035  0  0  -0.668539  0  2.279649  0  0  -0.704926  0  2.265557  0  -1.185599  0  -0.430916  -0.650759  0  2.28453  0
O  O131  1  0.18074590  0.43109674  0.27355529  1  0  -0.720811  0  2.026064  0  0  -0.668532  0  2.279686  0  0  -0.704917  0  2.265591  0  -1.185511  0  -0.430908  -0.650746  0  2.284567  0
O  O132  1  0.69821180  0.08610246  0.44218557  1  0  -0.902146  0  1.861541  0  0  -0.856027  0  2.069611  0  0  -0.883692  0  2.034236  0  -1.261619  0  -0.638085  -0.843042  0  2.088087  0
O  O133  1  0.30178794  0.91389701  0.55781538  1  0  -0.902133  0  1.86153  0  0  -0.85601  0  2.069606  0  0  -0.883676  0  2.034233  0  -1.261684  0  -0.638059  -0.843023  0  2.088069  0
O  O134  1  0.76627998  0.04087925  0.67004465  1  0  -0.945905  0  1.877204  0  0  -0.895998  0  2.085315  0  0  -0.928044  0  2.045427  0  -1.28696  0  -0.672882  -0.881227  0  2.108993  0
O  O135  1  0.23372047  0.95912111  0.32995518  1  0  -0.945895  0  1.877244  0  0  -0.89599  0  2.08536  0  0  -0.928037  0  2.045472  0  -1.286971  0  -0.67288  -0.881217  0  2.109039  0
O  O136  1  0.29102232  0.43567145  0.47867109  1  0  -0.900364  0  1.88217  0  0  -0.856176  0  2.087596  0  0  -0.884508  0  2.052447  0  -1.250452  0  -0.639283  -0.842448  0  2.108448  0
O  O137  1  0.70897813  0.56432892  0.52132873  1  0  -0.900369  0  1.882169  0  0  -0.856172  0  2.08759  0  0  -0.884505  0  2.052441  0  -1.250446  0  -0.639277  -0.842448  0  2.10844  0
