# generated using pymatgen
data_Eu2H63C63NO14
_symmetry_space_group_name_H-M   'P 1'
_cell_length_a   14.57337719
_cell_length_b   15.45773706
_cell_length_c   17.37694314
_cell_angle_alpha   98.07617031
_cell_angle_beta   105.48726749
_cell_angle_gamma   98.77635773
_symmetry_Int_Tables_number   1
_chemical_formula_structural   Eu2H63C63NO14
_chemical_formula_sum   'Eu4 H126 C126 N2 O28'
_cell_volume   3660.10137093
_cell_formula_units_Z   2
loop_
 _symmetry_equiv_pos_site_id
 _symmetry_equiv_pos_as_xyz
  1  'x, y, z'
loop_
 _atom_site_type_symbol
 _atom_site_label
 _atom_site_symmetry_multiplicity
 _atom_site_fract_x
 _atom_site_fract_y
 _atom_site_fract_z
 _atom_site_occupancy
 _atom_site_pbe_bader_charge
 _atom_site_pbe_bader_spin_density
 _atom_site_pbe_cm5_charge
 _atom_site_pbe_ddec_charge
 _atom_site_pbe_ddec_spin_density
 _atom_site_pbe_ddec_sum_bond_order
 _atom_site_pbe_magmom
Eu  Eu0  1  0.10688244  0.91980610  0.50748538  1  2.202517  0  1.5029  2.107211  0  2.152999  0
Eu  Eu1  1  0.89311834  0.08019369  0.49251494  1  2.202561  0  1.5029  2.107181  0  2.15307  0
Eu  Eu2  1  0.38979134  0.94437738  0.54158403  1  2.187768  0  1.494673  2.091249  0  2.152167  0
Eu  Eu3  1  0.61020887  0.05562307  0.45841625  1  2.187834  0  1.494724  2.09132  0  2.152045  0
H  H4  1  0.51696033  0.83761602  0.60326810  1  0.633291  0  0.317568  0.398376  0  0.898752  0
H  H5  1  0.48304075  0.16238510  0.39673418  1  0.633272  0  0.31754  0.398326  0  0.898798  0
H  H6  1  0.59104619  0.91696040  0.59126693  1  0.642621  0  0.292638  0.384699  0  0.961277  0
H  H7  1  0.40895402  0.08304005  0.40873277  1  0.642631  0  0.292635  0.384716  0  0.961258  0
H  H8  1  0.27120821  0.52570839  0.96833860  1  0.029471  0  0.08802  0.121691  0  1.025409  0
H  H9  1  0.72879257  0.47429140  0.03166172  1  0.029493  0  0.08802  0.121707  0  1.025376  0
H  H10  1  0.16090487  0.54437166  0.90545567  1  0.0453  0  0.093533  0.131441  0  1.005074  0
H  H11  1  0.83909564  0.45562680  0.09454442  1  0.045286  0  0.09355  0.131457  0  1.00501  0
H  H12  1  0.15970567  0.45246050  0.95540287  1  0.008036  0  0.09077  0.125753  0  1.004815  0
H  H13  1  0.84029513  0.54753929  0.04459803  1  0.008028  0  0.090767  0.125743  0  1.00482  0
H  H14  1  0.30839318  0.68586798  0.22870902  1  0.063508  0  0.096512  0.094247  0  1.051477  0
H  H15  1  0.69160717  0.31413314  0.77129079  1  0.063481  0  0.096493  0.094238  0  1.051478  0
H  H16  1  0.32978430  0.59613049  0.10875913  1  0.051525  0  0.092757  0.093213  0  1.042907  0
H  H17  1  0.67021677  0.40387063  0.89124142  1  0.051466  0  0.09276  0.093214  0  1.042901  0
H  H18  1  0.02858528  0.57690727  0.97937729  1  0.063852  0  0.098062  0.099884  0  1.029833  0
H  H19  1  0.97141550  0.42309252  0.02062245  1  0.063831  0  0.098062  0.099895  0  1.029833  0
H  H20  1  0.00677657  0.66656489  0.10060806  1  0.051715  0  0.097679  0.089866  0  1.021625  0
H  H21  1  0.99322293  0.33343556  0.89939206  1  0.051714  0  0.097678  0.089872  0  1.021671  0
H  H22  1  0.06338039  0.74075032  0.23723559  1  0.073011  0  0.104813  0.096887  0  1.031551  0
H  H23  1  0.93661982  0.25925013  0.76276411  1  0.073006  0  0.104815  0.096885  0  1.031548  0
H  H24  1  0.28177084  0.77318779  0.32813268  1  0.098938  0  0.105825  0.128095  0  1.027335  0
H  H25  1  0.71822951  0.22681333  0.67186714  1  0.09894  0  0.105834  0.128085  0  1.027337  0
H  H26  1  0.97084696  0.25308016  0.07650499  1  0.02999  0  0.086898  0.124402  0  1.011229  0
H  H27  1  0.02915156  0.74691895  0.92349532  1  0.029968  0  0.086908  0.124402  0  1.011214  0
H  H28  1  0.03777125  0.18509888  0.13465755  1  0.051732  0  0.087479  0.124481  0  1.033238  0
H  H29  1  0.96222712  0.81489956  0.86534264  1  0.051709  0  0.087484  0.124504  0  1.033204  0
H  H30  1  0.91086641  0.14969344  0.08791417  1  0.020641  0  0.091612  0.1285  0  0.996432  0
H  H31  1  0.08913209  0.85030567  0.91208499  1  0.020678  0  0.091597  0.128506  0  0.996428  0
H  H32  1  0.89616914  0.09177867  0.79796123  1  0.064852  0  0.102057  0.105134  0  1.008636  0
H  H33  1  0.10383051  0.90822245  0.20203843  1  0.064864  0  0.102063  0.10514  0  1.008647  0
H  H34  1  0.86819308  0.16556680  0.92269110  1  0.065776  0  0.098873  0.105731  0  1.001263  0
H  H35  1  0.13180713  0.83443365  0.07730860  1  0.065787  0  0.098865  0.105712  0  1.00118  0
H  H36  1  0.12662938  0.09807721  0.06811277  1  0.063511  0  0.101677  0.106779  0  0.990116  0
H  H37  1  0.87336970  0.90192123  0.93188700  1  0.063516  0  0.101667  0.106774  0  0.990077  0
H  H38  1  0.15551084  0.02437093  0.94307739  1  0.053162  0  0.101945  0.09888  0  0.993627  0
H  H39  1  0.84448781  0.97562884  0.05692246  1  0.053138  0  0.101961  0.098904  0  0.993646  0
H  H40  1  0.09926214  0.96730737  0.79496338  1  0.065599  0  0.107501  0.106746  0  0.990095  0
H  H41  1  0.90073807  0.03269308  0.20503690  1  0.065587  0  0.107491  0.106723  0  0.990113  0
H  H42  1  0.97686082  0.08786042  0.70319100  1  0.100722  0  0.109168  0.131989  0  1.042537  0
H  H43  1  0.02313839  0.91213870  0.29680774  1  0.100842  0  0.109184  0.132002  0  1.042558  0
H  H44  1  0.99383989  0.46197823  0.17248461  1  0.041774  0  0.087701  0.11969  0  1.027487  0
H  H45  1  0.00616104  0.53802223  0.82751525  1  0.041751  0  0.087693  0.11968  0  1.027489  0
H  H46  1  0.10772606  0.47384385  0.15077637  1  0.043883  0  0.08661  0.122198  0  1.027687  0
H  H47  1  0.89227487  0.52615661  0.84922406  1  0.043883  0  0.086628  0.122221  0  1.027689  0
H  H48  1  0.09981854  0.52761214  0.24450341  1  0.070333  0  0.093355  0.135278  0  1.000276  0
H  H49  1  0.90018154  0.47238764  0.75549675  1  0.070336  0  0.093331  0.135243  0  1.000325  0
H  H50  1  0.27715284  0.27500309  0.29528410  1  0.042661  0  0.09874  0.097594  0  1.007596  0
H  H51  1  0.72284723  0.72499670  0.70471549  1  0.042658  0  0.098741  0.09758  0  1.007598  0
H  H52  1  0.24041474  0.40354163  0.23067437  1  0.046626  0  0.097218  0.09966  0  1.012449  0
H  H53  1  0.75958520  0.59645749  0.76932568  1  0.04654  0  0.097201  0.099642  0  1.012459  0
H  H54  1  0.94864578  0.34874061  0.24704687  1  0.051698  0  0.099231  0.102126  0  1.012784  0
H  H55  1  0.05135515  0.65125985  0.75295357  1  0.05169  0  0.099227  0.102134  0  1.012775  0
H  H56  1  0.98538862  0.22020792  0.31349819  1  0.097734  0  0.112764  0.124324  0  0.995594  0
H  H57  1  0.01461160  0.77979253  0.68650209  1  0.097721  0  0.11278  0.124346  0  0.995623  0
H  H58  1  0.09080418  0.13430475  0.37055418  1  0.141686  0  0.111027  0.111501  0  1.032165  0
H  H59  1  0.90919590  0.86569503  0.62944598  1  0.141678  0  0.111019  0.111488  0  1.032174  0
H  H60  1  0.30333106  0.16919479  0.36756798  1  0.052098  0  0.098117  0.112246  0  1.032818  0
H  H61  1  0.69666886  0.83080433  0.63243092  1  0.052092  0  0.098113  0.112245  0  1.032837  0
H  H62  1  0.18001411  0.28357848  0.73939414  1  0.03407  0  0.086873  0.121389  0  1.018569  0
H  H63  1  0.81998597  0.71642131  0.26060544  1  0.034098  0  0.086857  0.121368  0  1.018628  0
H  H64  1  0.05089319  0.26336038  0.69514451  1  0.109511  0  0.097901  0.153248  0  1.037681  0
H  H65  1  0.94910688  0.73663940  0.30485508  1  0.109514  0  0.097898  0.15324  0  1.037687  0
H  H66  1  0.10639577  0.32335008  0.79641639  1  0.013378  0  0.086713  0.119355  0  1.012232  0
H  H67  1  0.89360430  0.67664971  0.20358320  1  0.013365  0  0.086697  0.11933  0  1.01223  0
H  H68  1  0.30360982  0.57613582  0.71669223  1  0.03382  0  0.095279  0.090778  0  1.030678  0
H  H69  1  0.69639025  0.42386397  0.28330793  1  0.033824  0  0.095283  0.090795  0  1.030665  0
H  H70  1  0.28021688  0.43390776  0.76438362  1  0.074067  0  0.092556  0.094233  0  1.042662  0
H  H71  1  0.71978247  0.56609202  0.23561524  1  0.074041  0  0.092557  0.094268  0  1.042627  0
H  H72  1  0.97533733  0.38180956  0.63590072  1  0.072431  0  0.108255  0.116951  0  0.986345  0
H  H73  1  0.02466218  0.61819089  0.36409940  1  0.072439  0  0.108247  0.11694  0  0.986367  0
H  H74  1  0.99770749  0.52620606  0.58879660  1  0.052516  0  0.102232  0.103225  0  1.002787  0
H  H75  1  0.00229259  0.47379372  0.41120414  1  0.052492  0  0.102223  0.103194  0  1.002815  0
H  H76  1  0.09722035  0.66499234  0.58595962  1  0.077771  0  0.108838  0.111821  0  1.002888  0
H  H77  1  0.90277986  0.33500811  0.41404066  1  0.077765  0  0.10884  0.111813  0  1.00288  0
H  H78  1  0.31873264  0.68599753  0.65611777  1  0.06204  0  0.097903  0.112653  0  1.010852  0
H  H79  1  0.68126687  0.31400292  0.34388235  1  0.06206  0  0.09793  0.112689  0  1.010894  0
H  H80  1  0.30934482  0.38895185  0.09018829  1  0.066248  0  0.08958  0.125952  0  1.008861  0
H  H81  1  0.69065611  0.61104860  0.90981214  1  0.066251  0  0.089595  0.125978  0  1.008911  0
H  H82  1  0.33473914  0.30247932  0.14463691  1  0.026075  0  0.090936  0.12453  0  1.003736  0
H  H83  1  0.66526093  0.69752047  0.85536326  1  0.02608  0  0.090938  0.124514  0  1.003748  0
H  H84  1  0.21388314  0.30072587  0.08617000  1  0.029849  0  0.094569  0.135632  0  1.002189  0
H  H85  1  0.78611707  0.69927458  0.91383028  1  0.02983  0  0.094569  0.135646  0  1.002192  0
H  H86  1  0.47500215  0.15770632  0.95821948  1  0.063615  0  0.10381  0.103  0  0.992653  0
H  H87  1  0.52499806  0.84229413  0.04178080  1  0.063624  0  0.10382  0.103015  0  0.992636  0
H  H88  1  0.44886165  0.24390387  0.07920009  1  0.060127  0  0.100153  0.102345  0  0.998488  0
H  H89  1  0.55113842  0.75609592  0.92079950  1  0.060126  0  0.10016  0.102368  0  0.998453  0
H  H90  1  0.16794491  0.26815815  0.93338388  1  0.054489  0  0.098227  0.096347  0  1.012577  0
H  H91  1  0.83205530  0.73184230  0.06661582  1  0.054468  0  0.09821  0.096317  0  1.012589  0
H  H92  1  0.19233915  0.18057279  0.81373579  1  0.099303  0  0.101708  0.09953  0  1.036993  0
H  H93  1  0.80766178  0.81942766  0.18626464  1  0.099281  0  0.101702  0.099521  0  1.036996  0
H  H94  1  0.42485854  0.09260967  0.81778326  1  0.091301  0  0.109508  0.10951  0  0.988697  0
H  H95  1  0.57514167  0.90739078  0.18221645  1  0.0913  0  0.109495  0.109507  0  0.988731  0
H  H96  1  0.21850670  0.09610341  0.71432100  1  0.088882  0  0.105237  0.12171  0  1.029445  0
H  H97  1  0.78149338  0.90389637  0.28567916  1  0.088882  0  0.105249  0.12171  0  1.029428  0
H  H98  1  0.48226813  0.42349708  0.04784087  1  0.05293  0  0.091041  0.128416  0  1.01833  0
H  H99  1  0.51773180  0.57650203  0.95215918  1  0.052934  0  0.091049  0.12843  0  1.018287  0
H  H100  1  0.58369557  0.40509493  0.12140707  1  0.045341  0  0.094494  0.131151  0  0.993972  0
H  H101  1  0.41630437  0.59490419  0.87859298  1  0.045356  0  0.094505  0.131161  0  0.993967  0
H  H102  1  0.59832397  0.49127964  0.06510023  1  0.022124  0  0.090589  0.125031  0  1.02019  0
H  H103  1  0.40167611  0.50872015  0.93490051  1  0.02212  0  0.090586  0.125012  0  1.020201  0
H  H104  1  0.53437328  0.74452597  0.21212268  1  0.06202  0  0.102019  0.101811  0  1.030927  0
H  H105  1  0.46562679  0.25547381  0.78787691  1  0.062024  0  0.102014  0.101791  0  1.030897  0
H  H106  1  0.56806239  0.63882372  0.10875235  1  0.05499  0  0.097076  0.09847  0  1.031495  0
H  H107  1  0.43193754  0.36117540  0.89124770  1  0.054994  0  0.097064  0.09845  0  1.031482  0
H  H108  1  0.48988301  0.42260859  0.22559707  1  0.04615  0  0.100448  0.100588  0  1.001917  0
H  H109  1  0.51011650  0.57739186  0.77440305  1  0.046155  0  0.100454  0.100591  0  1.001882  0
H  H110  1  0.45505083  0.52899937  0.32940446  1  0.068275  0  0.104004  0.103314  0  0.992523  0
H  H111  1  0.54494795  0.47100107  0.67059435  1  0.06826  0  0.104001  0.103301  0  0.992448  0
H  H112  1  0.44387141  0.67255505  0.38597139  1  0.078219  0  0.105758  0.104904  0  0.992717  0
H  H113  1  0.55612809  0.32744540  0.61402873  1  0.078209  0  0.105764  0.104902  0  0.992744  0
H  H114  1  0.51337389  0.83504434  0.31632631  1  0.111721  0  0.110058  0.136352  0  1.027439  0
H  H115  1  0.48662547  0.16495544  0.68367312  1  0.111753  0  0.110045  0.136321  0  1.027455  0
H  H116  1  0.84640527  0.84553663  0.42523149  1  0.101856  0  0.131497  0.05148  0  1.0185  0
H  H117  1  0.15359494  0.15446382  0.57476879  1  0.101845  0  0.131547  0.051643  0  1.018532  0
H  H118  1  0.67101629  0.71277845  0.46089889  1  0.044293  0  0.100829  0.114419  0  0.989054  0
H  H119  1  0.32898464  0.28722200  0.53910212  1  0.044309  0  0.100809  0.114389  0  0.989112  0
H  H120  1  0.68312100  0.65364698  0.36906592  1  0.044766  0  0.098245  0.109831  0  1.024735  0
H  H121  1  0.31687864  0.34635413  0.63093432  1  0.044755  0  0.098258  0.109848  0  1.024714  0
H  H122  1  0.69951956  0.77252399  0.38711929  1  0.064302  0  0.109385  0.122905  0  1.004623  0
H  H123  1  0.30048066  0.22747646  0.61288156  1  0.064301  0  0.109389  0.122917  0  1.004675  0
H  H124  1  0.92356801  0.66426490  0.51735766  1  0.08191  0  0.114755  0.132787  0  1.009323  0
H  H125  1  0.07643207  0.33573488  0.48264309  1  0.08192  0  0.114767  0.132801  0  1.009323  0
H  H126  1  0.81962793  0.58692419  0.44915584  1  0.066053  0  0.099018  0.111644  0  1.030107  0
H  H127  1  0.18037285  0.41307560  0.55084448  1  0.06605  0  0.099006  0.111648  0  1.030144  0
H  H128  1  0.81291175  0.64408214  0.54409956  1  0.06604  0  0.101059  0.114438  0  1.004157  0
H  H129  1  0.18708833  0.35591764  0.45590118  1  0.066057  0  0.101064  0.114436  0  1.004121  0
C  C130  1  0.19390747  0.52292803  0.96243893  1  -0.029462  0  -0.235759  -0.405362  0  3.960163  0
C  C131  1  0.80609345  0.47707242  0.03756093  1  -0.029461  0  -0.235755  -0.405352  0  3.960094  0
C  C132  1  0.24646554  0.66203695  0.17442156  1  -0.038192  0  -0.086812  -0.10668  0  3.954471  0
C  C133  1  0.75353468  0.33796350  0.82557815  1  -0.038197  0  -0.086793  -0.106692  0  3.954483  0
C  C134  1  0.25840307  0.61116410  0.10646871  1  -0.076934  0  -0.10013  -0.158681  0  3.994437  0
C  C135  1  0.74159799  0.38883702  0.89353126  1  -0.076812  0  -0.100141  -0.158657  0  3.99442  0
C  C136  1  0.18062450  0.57924686  0.03505570  1  0.001221  0  -0.007338  0.170554  0  3.976545  0
C  C137  1  0.81937643  0.42075359  0.96494474  1  0.001218  0  -0.007335  0.17052  0  3.976519  0
C  C138  1  0.09009901  0.60054100  0.03412659  1  -0.029444  0  -0.099615  -0.159793  0  3.992088  0
C  C139  1  0.90990177  0.39945878  0.96587315  1  -0.029448  0  -0.099631  -0.159828  0  3.992093  0
C  C140  1  0.07772122  0.65068912  0.10234333  1  -0.035372  0  -0.084686  -0.116065  0  3.988049  0
C  C141  1  0.92227899  0.34931133  0.89765637  1  -0.035383  0  -0.084694  -0.116091  0  3.98816  0
C  C142  1  0.15554092  0.68259332  0.17406703  1  -0.089366  0  -0.015184  0.08288  0  4.048346  0
C  C143  1  0.84445930  0.31740713  0.82593268  1  -0.089383  0  -0.015163  0.082913  0  4.048356  0
C  C144  1  0.13856434  0.73404745  0.24404568  1  -0.055178  0  -0.071365  -0.068441  0  3.980723  0
C  C145  1  0.86143516  0.26595300  0.75595329  1  -0.055159  0  -0.071344  -0.06841  0  3.980766  0
C  C146  1  0.20474275  0.77464095  0.31550983  1  -0.015038  0  -0.096457  -0.233612  0  3.866877  0
C  C147  1  0.79525746  0.22535950  0.68448987  1  -0.01504  0  -0.09647  -0.233571  0  3.866949  0
C  C148  1  0.17692248  0.82585418  0.38092747  1  1.513105  0  0.214749  0.669041  0  4.171202  0
C  C149  1  0.82307773  0.17414627  0.61907165  1  1.51313  0  0.214718  0.668932  0  4.171367  0
C  C150  1  0.97869736  0.18391860  0.07982041  1  -0.054455  0  -0.242869  -0.420035  0  3.986878  0
C  C151  1  0.02130030  0.81607984  0.92017905  1  -0.054428  0  -0.242879  -0.420057  0  3.98676  0
C  C152  1  0.94782093  0.09422334  0.85702849  1  -0.037987  0  -0.088367  -0.118583  0  3.972621  0
C  C153  1  0.05217929  0.90577711  0.14297121  1  -0.037984  0  -0.088425  -0.118684  0  3.972653  0
C  C154  1  0.93192803  0.13534592  0.92732534  1  -0.075673  0  -0.098639  -0.157377  0  4.000262  0
C  C155  1  0.06807075  0.86465452  0.07267405  1  -0.075664  0  -0.098649  -0.157331  0  4.000277  0
C  C156  1  0.99663394  0.13884372  0.00448423  1  -0.000153  0  -0.008161  0.169293  0  3.981599  0
C  C157  1  0.00336400  0.86115606  0.99551662  1  -0.000186  0  -0.008096  0.169335  0  3.981595  0
C  C158  1  0.07667917  0.09779078  0.00874763  1  -0.059584  0  -0.09389  -0.147789  0  3.987039  0
C  C159  1  0.92332076  0.90220834  0.99125300  1  -0.059581  0  -0.093911  -0.147837  0  3.986952  0
C  C160  1  0.09229715  0.05543160  0.93851193  1  -0.070559  0  -0.085259  -0.113294  0  3.988966  0
C  C161  1  0.90770150  0.94456818  0.06148792  1  -0.070552  0  -0.085214  -0.113241  0  3.988929  0
C  C162  1  0.02938638  0.05433274  0.86118007  1  0.029097  0  -0.018956  0.08001  0  4.049264  0
C  C163  1  0.97061311  0.94566771  0.13881947  1  0.029093  0  -0.01897  0.080017  0  4.049247  0
C  C164  1  0.05107476  0.01536922  0.78839833  1  -0.041752  0  -0.066948  -0.054702  0  3.955998  0
C  C165  1  0.94892474  0.98463122  0.21160180  1  -0.041747  0  -0.066931  -0.054659  0  3.956033  0
C  C166  1  0.02028262  0.03688763  0.71435493  1  -0.070116  0  -0.101888  -0.253793  0  3.91127  0
C  C167  1  0.97971759  0.96311282  0.28564535  1  -0.070225  0  -0.101917  -0.253845  0  3.911368  0
C  C168  1  0.04868299  0.99648528  0.64469003  1  1.512442  0  0.191144  0.622981  0  4.238249  0
C  C169  1  0.95131708  0.00351451  0.35530956  1  1.512398  0  0.19114  0.622975  0  4.23824  0
C  C170  1  0.07208502  0.46582217  0.19838466  1  -0.100247  0  -0.241303  -0.420881  0  3.978087  0
C  C171  1  0.92791577  0.53417762  0.80161566  1  -0.100217  0  -0.241296  -0.420853  0  3.978121  0
C  C172  1  0.20504234  0.29121989  0.28528369  1  -0.074431  0  -0.09205  -0.131248  0  4.004899  0
C  C173  1  0.79495703  0.70877989  0.71471631  1  -0.074439  0  -0.092023  -0.131172  0  4.004857  0
C  C174  1  0.18441406  0.36331161  0.24892148  1  -0.085292  0  -0.099211  -0.15706  0  4.007779  0
C  C175  1  0.81558587  0.63668751  0.75107799  1  -0.0852  0  -0.099205  -0.157078  0  4.007789  0
C  C176  1  0.09226030  0.38598696  0.23520645  1  0.04488  0  -0.00693  0.173083  0  3.972608  0
C  C177  1  0.90774064  0.61401349  0.76479456  1  0.04488  0  -0.006913  0.173109  0  3.972609  0
C  C178  1  0.02087875  0.33282887  0.25802585  1  -0.055106  0  -0.093671  -0.147011  0  3.983515  0
C  C179  1  0.97912161  0.66717225  0.74197512  1  -0.055104  0  -0.093684  -0.147066  0  3.983528  0
C  C180  1  0.04102744  0.26076959  0.29496113  1  -0.040466  0  -0.077422  -0.112124  0  3.937332  0
C  C181  1  0.95897349  0.73923087  0.70503931  1  -0.040114  0  -0.077451  -0.112132  0  3.937372  0
C  C182  1  0.13394941  0.23919935  0.31010669  1  0.00681  0  -0.018501  0.079188  0  4.055848  0
C  C183  1  0.86605066  0.76080043  0.68989289  1  0.006477  0  -0.018492  0.079179  0  4.055814  0
C  C184  1  0.15259405  0.16751632  0.35427254  1  -0.206835  0  -0.069844  -0.051097  0  3.968241  0
C  C185  1  0.84740616  0.83248413  0.64572716  1  -0.206845  0  -0.069858  -0.051095  0  3.968243  0
C  C186  1  0.23731971  0.14031022  0.38061556  1  0.033195  0  -0.11376  -0.27623  0  3.916638  0
C  C187  1  0.76268023  0.85968889  0.61938449  1  0.033202  0  -0.113786  -0.276278  0  3.916633  0
C  C188  1  0.24492899  0.07086070  0.43124945  1  1.539967  0  0.226462  0.686946  0  4.129524  0
C  C189  1  0.75507051  0.92913975  0.56874952  1  1.539994  0  0.226499  0.686966  0  4.129449  0
C  C190  1  0.11465588  0.31218955  0.73469502  1  -0.098142  0  -0.244197  -0.427128  0  3.948918  0
C  C191  1  0.88534419  0.68781023  0.26530456  1  -0.098157  0  -0.244161  -0.427063  0  3.948919  0
C  C192  1  0.23108293  0.53440232  0.69915945  1  -0.064941  0  -0.096182  -0.134545  0  4.007015  0
C  C193  1  0.76891729  0.46559813  0.30084083  1  -0.064959  0  -0.096197  -0.134588  0  4.007066  0
C  C194  1  0.21792716  0.45447564  0.72625814  1  -0.061993  0  -0.100271  -0.156664  0  4.006747  0
C  C195  1  0.78207220  0.54552414  0.27374186  1  -0.061973  0  -0.100264  -0.156683  0  4.006679  0
C  C196  1  0.12595723  0.39829250  0.70456211  1  -0.013473  0  -0.008506  0.176849  0  3.966069  0
C  C197  1  0.87404284  0.60170728  0.29543806  1  -0.013467  0  -0.008497  0.176869  0  3.966028  0
C  C198  1  0.04699941  0.42531663  0.65465278  1  -0.063854  0  -0.087449  -0.137073  0  3.953476  0
C  C199  1  0.95299995  0.57468315  0.34534723  1  -0.063858  0  -0.08748  -0.137135  0  3.953592  0
C  C200  1  0.05980094  0.50595429  0.62772547  1  0.028391  0  -0.087139  -0.130254  0  3.98917  0
C  C201  1  0.94019786  0.49404616  0.37227507  1  0.028403  0  -0.087103  -0.130172  0  3.989224  0
C  C202  1  0.15208977  0.56202295  0.64888394  1  -0.079527  0  -0.019153  0.079137  0  4.075301  0
C  C203  1  0.84790973  0.43797750  0.35111560  1  -0.07953  0  -0.019129  0.079156  0  4.0753  0
C  C204  1  0.16355032  0.64496825  0.61853324  1  -0.067029  0  -0.078171  -0.076514  0  3.984253  0
C  C205  1  0.83644976  0.35503153  0.38146750  1  -0.06701  0  -0.07817  -0.076485  0  3.984165  0
C  C206  1  0.24806051  0.69983679  0.62602020  1  -0.053749  0  -0.102569  -0.241126  0  3.902887  0
C  C207  1  0.75193900  0.30016365  0.37398049  1  -0.053783  0  -0.10262  -0.241194  0  3.902959  0
C  C208  1  0.25096550  0.78312238  0.59294675  1  1.587677  0  0.225693  0.693555  0  4.159939  0
C  C209  1  0.74903472  0.21687807  0.40705296  1  1.587682  0  0.225667  0.693512  0  4.159839  0
C  C210  1  0.29049981  0.31655339  0.08764800  1  -0.062618  0  -0.238196  -0.419024  0  3.979788  0
C  C211  1  0.70950098  0.68344640  0.91235175  1  -0.06262  0  -0.238235  -0.419065  0  3.979788  0
C  C212  1  0.40780333  0.18272882  0.95262507  1  -0.07719  0  -0.087287  -0.123435  0  3.991315  0
C  C213  1  0.59219746  0.81727096  0.04737467  1  -0.076893  0  -0.087271  -0.123403  0  3.991296  0
C  C214  1  0.39321517  0.23167755  0.02050645  1  -0.049511  0  -0.099695  -0.159617  0  4.009377  0
C  C215  1  0.60678490  0.76832223  0.97949372  1  -0.049511  0  -0.099708  -0.159648  0  4.009379  0
C  C216  1  0.30741200  0.26426696  0.01485852  1  -0.000388  0  -0.006562  0.170854  0  3.980428  0
C  C217  1  0.69258822  0.73573349  0.98514176  1  -0.000412  0  -0.006576  0.170813  0  3.980369  0
C  C218  1  0.23644238  0.24567490  0.93875073  1  -0.053447  0  -0.092241  -0.144984  0  3.993926  0
C  C219  1  0.76355783  0.75432555  0.06124955  1  -0.05341  0  -0.092249  -0.144978  0  3.993984  0
C  C220  1  0.25007065  0.19614252  0.87115855  1  -0.044828  0  -0.083087  -0.112446  0  3.971166  0
C  C221  1  0.74992942  0.80385727  0.12884161  1  -0.044816  0  -0.083039  -0.112379  0  3.971229  0
C  C222  1  0.33622487  0.16350946  0.87652830  1  -0.04875  0  -0.0193  0.080467  0  4.056821  0
C  C223  1  0.66377605  0.83649099  0.12347214  1  -0.049042  0  -0.019292  0.080453  0  4.056862  0
C  C224  1  0.35366335  0.11138310  0.80729822  1  -0.062053  0  -0.070356  -0.065807  0  3.979294  0
C  C225  1  0.64633685  0.88861735  0.19270091  1  -0.06206  0  -0.070355  -0.065818  0  3.979323  0
C  C226  1  0.29206227  0.08334237  0.73135240  1  -0.048732  0  -0.096968  -0.238176  0  3.895032  0
C  C227  1  0.70793795  0.91665808  0.26864788  1  -0.048712  0  -0.096964  -0.238145  0  3.895004  0
C  C228  1  0.32229665  0.03283004  0.66728228  1  1.505593  0  0.202412  0.649484  0  4.196418  0
C  C229  1  0.67770213  0.96717041  0.33271653  1  1.505602  0  0.20238  0.64942  0  4.196477  0
C  C230  1  0.55000281  0.45741923  0.09518222  1  -0.066123  0  -0.235152  -0.415824  0  3.965493  0
C  C231  1  0.44999712  0.54257989  0.90481783  1  -0.066127  0  -0.235159  -0.415812  0  3.965461  0
C  C232  1  0.52357004  0.67390884  0.21516688  1  -0.052745  0  -0.082643  -0.107958  0  3.951091  0
C  C233  1  0.47643017  0.32609162  0.78483282  1  -0.052751  0  -0.082653  -0.107914  0  3.951038  0
C  C234  1  0.54243761  0.61389849  0.15661843  1  -0.042683  0  -0.093126  -0.153082  0  3.980383  0
C  C235  1  0.45756261  0.38610196  0.84338128  1  -0.042697  0  -0.093108  -0.153054  0  3.980376  0
C  C236  1  0.53028878  0.52232818  0.15873496  1  -0.034479  0  -0.008467  0.163508  0  3.985904  0
C  C237  1  0.46971129  0.47767160  0.84126463  1  -0.034485  0  -0.00844  0.163501  0  3.985957  0
C  C238  1  0.49873141  0.49317070  0.22199174  1  -0.066142  0  -0.095703  -0.152805  0  4.006255  0
C  C239  1  0.50126781  0.50682842  0.77800815  1  -0.06615  0  -0.095744  -0.152812  0  4.006313  0
C  C240  1  0.47928795  0.55290646  0.28046594  1  -0.031869  0  -0.085258  -0.123797  0  3.98777  0
C  C241  1  0.52071141  0.44709332  0.71953464  1  -0.031838  0  -0.085287  -0.123838  0  3.987774  0
C  C242  1  0.49163071  0.64467558  0.27856954  1  0.008964  0  -0.015481  0.081481  0  4.058161  0
C  C243  1  0.50836865  0.35532420  0.72143047  1  0.008962  0  -0.015466  0.081467  0  4.058098  0
C  C244  1  0.47227391  0.70437858  0.34231399  1  -0.098684  0  -0.069181  -0.065994  0  3.978421  0
C  C245  1  0.52772615  0.29562121  0.65768502  1  -0.098551  0  -0.069182  -0.065972  0  3.978344  0
C  C246  1  0.48531675  0.79415953  0.35450110  1  -0.030603  0  -0.093127  -0.239822  0  3.873279  0
C  C247  1  0.51468204  0.20584092  0.64549771  1  -0.030693  0  -0.093106  -0.239771  0  3.87325  0
C  C248  1  0.46011870  0.84297002  0.42287651  1  1.494722  0  0.199983  0.634966  0  4.222724  0
C  C249  1  0.53988165  0.15703109  0.57712331  1  1.494635  0  0.200004  0.634921  0  4.222658  0
C  C250  1  0.87805446  0.79543713  0.45722364  1  1.385499  0  0.191773  0.334787  0  4.079178  0
C  C251  1  0.12195146  0.20456335  0.54277905  1  1.385466  0  0.191675  0.334434  0  4.079374  0
C  C252  1  0.71140536  0.71471382  0.41571795  1  0.301311  0  -0.13167  -0.277375  0  3.940452  0
C  C253  1  0.28859543  0.28528597  0.58428295  1  0.301286  0  -0.131687  -0.277405  0  3.940517  0
C  C254  1  0.84425775  0.64977948  0.49365660  1  0.252337  0  -0.136166  -0.272014  0  3.886182  0
C  C255  1  0.15574232  0.35022030  0.50634357  1  0.252344  0  -0.136138  -0.272013  0  3.886263  0
N  N256  1  0.81423038  0.72226994  0.45450395  1  -1.202833  0  -0.280851  0.027604  0  3.724212  0
N  N257  1  0.18576827  0.27772984  0.54549590  1  -1.202855  0  -0.28084  0.027726  0  3.724326  0
O  O258  1  0.08785073  0.82359606  0.37684095  1  -1.171839  0  -0.371774  -0.638476  0  2.238252  0
O  O259  1  0.91214921  0.17640305  0.62315910  1  -1.171831  0  -0.371791  -0.638463  0  2.238299  0
O  O260  1  0.24424926  0.87398544  0.44219306  1  -1.209313  0  -0.43012  -0.741694  0  2.437209  0
O  O261  1  0.75575010  0.12601434  0.55780638  1  -1.209327  0  -0.430108  -0.741648  0  2.437253  0
O  O262  1  0.03597211  0.03388760  0.58088500  1  -1.215988  0  -0.430392  -0.761716  0  2.354635  0
O  O263  1  0.96402796  0.96611219  0.41911516  1  -1.215941  0  -0.430393  -0.761707  0  2.354614  0
O  O264  1  0.08682099  0.92810973  0.64598326  1  -1.176361  0  -0.359582  -0.603912  0  2.188131  0
O  O265  1  0.91317922  0.07189072  0.35401702  1  -1.176337  0  -0.359569  -0.603897  0  2.188096  0
O  O266  1  0.16872798  0.03420110  0.44550543  1  -1.197101  0  -0.385059  -0.657581  0  2.314963  0
O  O267  1  0.83127209  0.96579868  0.55449473  1  -1.197108  0  -0.38504  -0.657546  0  2.314924  0
O  O268  1  0.33022834  0.05333476  0.45918672  1  -1.187683  0  -0.367994  -0.659985  0  2.261841  0
O  O269  1  0.66977174  0.94666503  0.54081402  1  -1.187723  0  -0.368014  -0.659992  0  2.26186  0
O  O270  1  0.17066220  0.80300473  0.55805514  1  -1.188994  0  -0.405515  -0.668466  0  2.305506  0
O  O271  1  0.82933873  0.19699573  0.44194588  1  -1.189061  0  -0.405483  -0.668425  0  2.305384  0
O  O272  1  0.33535834  0.82916318  0.60237665  1  -1.182857  0  -0.411334  -0.67116  0  2.230079  0
O  O273  1  0.66464116  0.17083727  0.39762290  1  -1.18282  0  -0.411338  -0.671164  0  2.230071  0
O  O274  1  0.25930539  0.00139982  0.59674996  1  -1.220932  0  -0.443471  -0.769882  0  2.419436  0
O  O275  1  0.74069411  0.99860063  0.40324959  1  -1.220924  0  -0.443461  -0.769843  0  2.419446  0
O  O276  1  0.40962132  0.02305373  0.67930379  1  -1.160258  0  -0.368369  -0.608904  0  2.168548  0
O  O277  1  0.59037832  0.97694739  0.32069472  1  -1.160294  0  -0.368365  -0.608897  0  2.168542  0
O  O278  1  0.47530468  0.92948702  0.43432846  1  -1.184474  0  -0.441089  -0.743354  0  2.336569  0
O  O279  1  0.52469453  0.07051209  0.56567028  1  -1.18451  0  -0.441114  -0.743353  0  2.336491  0
O  O280  1  0.42193010  0.80208950  0.46841354  1  -1.176968  0  -0.359317  -0.620128  0  2.182132  0
O  O281  1  0.57806954  0.19791162  0.53158612  1  -1.176979  0  -0.359331  -0.620121  0  2.18214  0
O  O282  1  0.96696526  0.80769770  0.49291846  1  -1.170635  0  -0.362374  -0.537881  0  2.380704  0
O  O283  1  0.03303097  0.19230073  0.50708069  1  -1.170554  0  -0.362346  -0.537779  0  2.380521  0
O  O284  1  0.53949620  0.90208828  0.61883346  1  -1.260305  0  -0.624939  -0.80785  0  2.014772  0
O  O285  1  0.46050443  0.09791417  0.38116659  1  -1.260287  0  -0.624904  -0.807825  0  2.01478  0
