# generated using pymatgen
data_Al4H36C61O26
_symmetry_space_group_name_H-M   'P 1'
_cell_length_a   6.62128228
_cell_length_b   20.05392717
_cell_length_c   23.11138701
_cell_angle_alpha   107.89114295
_cell_angle_beta   92.54576882
_cell_angle_gamma   93.57734790
_symmetry_Int_Tables_number   1
_chemical_formula_structural   Al4H36C61O26
_chemical_formula_sum   'Al4 H36 C61 O26'
_cell_volume   2908.16207190
_cell_formula_units_Z   1
loop_
 _symmetry_equiv_pos_site_id
 _symmetry_equiv_pos_as_xyz
  1  'x, y, z'
loop_
 _atom_site_type_symbol
 _atom_site_label
 _atom_site_symmetry_multiplicity
 _atom_site_fract_x
 _atom_site_fract_y
 _atom_site_fract_z
 _atom_site_occupancy
 _atom_site_pbe_bader_charge
 _atom_site_pbe_bader_spin_density
 _atom_site_pbe_cm5_charge
 _atom_site_pbe_ddec_charge
 _atom_site_pbe_ddec_spin_density
 _atom_site_pbe_ddec_sum_bond_order
 _atom_site_pbe_magmom
Al  Al0  1  0.14157005  0.49937636  0.50240806  1  2.501151  0  0.396774  1.63699  0  2.588618  0
Al  Al1  1  0.64151688  0.50371097  0.50391678  1  2.50086  0  0.397017  1.640187  0  2.586977  0
Al  Al2  1  0.66101627  0.00208512  0.00241510  1  2.502649  0  0.396683  1.637495  0  2.584894  0
Al  Al3  1  0.16027789  0.00265849  0.00377633  1  2.500229  0  0.396365  1.638068  0  2.583159  0
H  H4  1  0.20898284  0.85315292  0.21925224  1  0.079948  0  0.106223  0.111848  0  0.989389  0
H  H5  1  0.20402409  0.92279503  0.14645226  1  0.107677  0  0.111536  0.114866  0  0.999895  0
H  H6  1  0.59478770  0.77105241  0.15506826  1  0.051984  0  0.100161  0.105126  0  1.0081  0
H  H7  1  0.17412570  0.56926015  0.35168464  1  0.137251  0  0.115597  0.127239  0  0.995791  0
H  H8  1  0.61932773  0.65910410  0.41362123  1  0.115789  0  0.110221  0.114057  0  0.989658  0
H  H9  1  0.66985095  0.69018011  0.64218855  1  0.114124  0  0.113369  0.122001  0  0.991719  0
H  H10  1  0.24792808  0.62325447  0.68345637  1  0.12303  0  0.112268  0.119402  0  0.988049  0
H  H11  1  0.55074620  0.80112176  0.71156784  1  0.095829  0  0.111347  0.117294  0  0.988422  0
H  H12  1  0.28181252  0.71744259  0.78436615  1  0.062604  0  0.105957  0.107746  0  0.991564  0
H  H13  1  0.13712927  0.81775114  0.85943880  1  0.099207  0  0.111999  0.115166  0  0.993962  0
H  H14  1  0.64155305  0.31889182  0.35988024  1  0.079683  0  0.107794  0.111272  0  1.003106  0
H  H15  1  0.04398604  0.37321989  0.32067039  1  0.085688  0  0.108207  0.113813  0  0.995466  0
H  H16  1  0.79337704  0.22018218  0.28509408  1  0.074565  0  0.103247  0.103841  0  1.00596  0
H  H17  1  0.02045156  0.28029044  0.21954789  1  0.088407  0  0.103507  0.104489  0  1.00355  0
H  H18  1  0.76858713  0.12679121  0.18399261  1  0.100101  0  0.110951  0.118667  0  0.992848  0
H  H19  1  0.16931826  0.17993409  0.14561425  1  0.096061  0  0.112099  0.121006  0  0.995741  0
H  H20  1  0.71747697  0.15644946  0.91682697  1  0.097507  0  0.109692  0.111299  0  1.010145  0
H  H21  1  0.10903835  0.07309838  0.85047820  1  0.121098  0  0.11561  0.12609  0  0.983705  0
H  H22  1  0.11731395  0.13885877  0.77443212  1  0.125388  0  0.114717  0.128169  0  0.981936  0
H  H23  1  0.71295035  0.34286719  0.71260307  1  0.087875  0  0.110975  0.117555  0  0.987332  0
H  H24  1  0.71061579  0.41727755  0.64293244  1  0.111038  0  0.113293  0.119489  0  0.991036  0
H  H25  1  0.08231745  0.35037159  0.58954823  1  0.112024  0  0.112186  0.117719  0  0.992032  0
H  H26  1  0.08361371  0.27385302  0.65742475  1  0.082425  0  0.110994  0.116605  0  0.984757  0
H  H27  1  0.56294255  0.01377762  0.81777974  1  0.594251  0  0.320721  0.356366  0  0.915201  0
H  H28  1  0.78868748  0.27072421  0.92844245  1  0.612729  0  0.334617  0.367462  0  0.884671  0
H  H29  1  0.42246288  0.79581037  0.07969802  1  0.025886  0  0.08597  0.117231  0  1.010768  0
H  H30  1  0.46284035  0.88380877  0.07730848  1  0.110959  0  0.102883  0.153798  0  1.001394  0
H  H31  1  0.56578259  0.81596785  0.02265967  1  0.056439  0  0.097378  0.140185  0  0.982401  0
H  H32  1  0.34181439  0.63400115  0.19475301  1  0.642873  0  0.344819  0.379194  0  0.855542  0
H  H33  1  0.66247274  0.79951517  0.36047437  1  0.035163  0  0.097666  0.13833  0  0.980222  0
H  H34  1  0.52757164  0.73750672  0.29747846  1  0.038989  0  0.089562  0.124709  0  1.025493  0
H  H35  1  0.47289395  0.73932158  0.37284171  1  0.03381  0  0.093573  0.131008  0  0.995836  0
H  H36  1  0.39648488  0.58140623  0.48858409  1  0.622069  0  0.351388  0.427589  0  0.860913  0
H  H37  1  0.85957662  0.41216138  0.46348854  1  0.617867  0  0.35238  0.428975  0  0.858285  0
H  H38  1  0.38297962  0.91679273  0.95572463  1  0.626991  0  0.352082  0.427619  0  0.858247  0
H  H39  1  0.92457539  0.08578237  0.99365152  1  0.62042  0  0.350553  0.427313  0  0.860008  0
C  C40  1  0.35600935  0.40603949  0.40674633  1  1.574902  0  0.266378  0.644331  0  4.092011  0
C  C41  1  0.39768915  0.43115946  0.57028529  1  1.555829  0  0.26847  0.63536  0  4.105418  0
C  C42  1  0.93457614  0.59470159  0.59803944  1  1.584304  0  0.269838  0.637824  0  4.100806  0
C  C43  1  0.88998998  0.57239545  0.43400479  1  1.568109  0  0.267113  0.644157  0  4.098926  0
C  C44  1  0.07446390  0.85053514  0.18947034  1  -0.045803  0  -0.087399  -0.141274  0  3.965417  0
C  C45  1  0.07144060  0.88908170  0.14896862  1  0.005864  0  -0.079028  -0.079023  0  4.012061  0
C  C46  1  0.89978968  0.88604219  0.10989002  1  -0.004274  0  -0.014709  -0.115313  0  3.913135  0
C  C47  1  0.72289327  0.84307367  0.11175987  1  0.012379  0  0.008501  0.180516  0  3.926921  0
C  C48  1  0.72837443  0.80484363  0.15316881  1  -0.039406  0  -0.08873  -0.202744  0  3.907799  0
C  C49  1  0.90102429  0.80707233  0.19178324  1  0.044639  0  0.001469  0.148603  0  4.138318  0
C  C50  1  0.90190373  0.76523076  0.23119291  1  0.061058  0  -0.033114  -0.093088  0  4.061705  0
C  C51  1  0.91271633  0.72699621  0.26321613  1  -0.40294  0  -0.037592  -0.073885  0  4.119418  0
C  C52  1  0.06127326  0.63875640  0.30568795  1  -0.020144  0  -0.011384  -0.084406  0  3.938154  0
C  C53  1  0.05544466  0.60384816  0.34957555  1  -0.01997  0  -0.070565  -0.10567  0  3.949827  0
C  C54  1  0.89744295  0.61119439  0.38837629  1  0.007514  0  -0.012184  -0.032212  0  4.000342  0
C  C55  1  0.74458444  0.65487458  0.38390885  1  -0.093829  0  -0.069215  -0.126118  0  3.916368  0
C  C56  1  0.75137135  0.69408782  0.34358362  1  0.022382  0  0.006246  0.138519  0  3.915696  0
C  C57  1  0.91126197  0.68600095  0.30326442  1  0.147417  0  0.012869  0.067203  0  4.015476  0
C  C58  1  0.95494671  0.65154263  0.65778868  1  -0.034651  0  -0.012534  -0.040012  0  3.988635  0
C  C59  1  0.86580877  0.86197761  0.84125407  1  0.000947  0  -0.008915  -0.060439  0  3.939914  0
C  C60  1  0.67817903  0.80400080  0.74409652  1  -0.031689  0  -0.075156  -0.146781  0  3.943778  0
C  C61  1  0.70133691  0.85869320  0.79802329  1  -0.018279  0  -0.00699  -0.040104  0  3.963344  0
C  C62  1  0.01035550  0.81376853  0.82657111  1  -0.012439  0  -0.063169  -0.099866  0  3.917026  0
C  C63  1  0.99635319  0.75948610  0.77017689  1  -0.013185  0  0.001225  0.07882  0  3.992606  0
C  C64  1  0.82253494  0.75293704  0.72891216  1  0.009831  0  -0.001018  0.081355  0  4.007911  0
C  C65  1  0.80343342  0.69716505  0.67345211  1  -0.031211  0  -0.070846  -0.12959  0  3.915243  0
C  C66  1  0.13041951  0.65948933  0.69769226  1  -0.038081  0  -0.080883  -0.094772  0  3.979978  0
C  C67  1  0.14858406  0.71158996  0.75314546  1  -0.052389  0  -0.082146  -0.12467  0  3.983612  0
C  C68  1  0.34490744  0.35071585  0.34611864  1  -0.017436  0  -0.015038  -0.040465  0  3.987212  0
C  C69  1  0.46627273  0.14867868  0.15939683  1  -0.030958  0  -0.01515  -0.044875  0  4.001167  0
C  C70  1  0.65759561  0.21171178  0.25435732  1  -0.063138  0  -0.08708  -0.131493  0  3.99289  0
C  C71  1  0.64467801  0.16004079  0.19872254  1  -0.041059  0  -0.085488  -0.100708  0  3.994343  0
C  C72  1  0.30540269  0.18988841  0.17632183  1  -0.025281  0  -0.073809  -0.132816  0  3.922733  0
C  C73  1  0.31645063  0.24443693  0.23248616  1  -0.056322  0  -0.003834  0.077589  0  3.998963  0
C  C74  1  0.49595271  0.25546675  0.27261717  1  0.015722  0  -0.002661  0.078489  0  3.997254  0
C  C75  1  0.50590778  0.30965259  0.32906081  1  -0.049059  0  -0.074468  -0.13133  0  3.928182  0
C  C76  1  0.16775014  0.33978832  0.30629815  1  -0.021669  0  -0.084733  -0.097044  0  3.990397  0
C  C77  1  0.15522369  0.28837632  0.25058241  1  -0.020702  0  -0.085285  -0.128617  0  3.989991  0
C  C78  1  0.59307954  0.19118014  0.84371238  1  -0.035416  0  -0.014987  -0.113359  0  3.96894  0
C  C79  1  0.58590601  0.15429811  0.88598840  1  -0.095153  0  -0.084221  -0.134732  0  4.01126  0
C  C80  1  0.41190276  0.11250815  0.88926406  1  -0.005513  0  -0.021816  -0.062457  0  4.010481  0
C  C81  1  0.24302793  0.10655775  0.84841081  1  -0.030184  0  -0.07214  -0.078698  0  3.960093  0
C  C82  1  0.24840602  0.14229628  0.80568571  1  -0.029562  0  -0.070075  -0.107651  0  3.900113  0
C  C83  1  0.42145290  0.18583539  0.80270377  1  0.087402  0  0.022198  0.151982  0  4.053346  0
C  C84  1  0.41635285  0.22501072  0.76155494  1  0.048657  0  -0.037984  -0.101896  0  4.103221  0
C  C85  1  0.40335057  0.26064912  0.72742846  1  -0.298083  0  -0.020018  -0.059927  0  4.059716  0
C  C86  1  0.57613197  0.34448990  0.68519133  1  0.036287  0  -0.077034  -0.121962  0  3.934311  0
C  C87  1  0.57468053  0.38579940  0.64681624  1  -0.079633  0  -0.077297  -0.088279  0  3.984578  0
C  C88  1  0.39664280  0.38772550  0.61221141  1  0.001678  0  -0.011948  -0.0437  0  3.971961  0
C  C89  1  0.21917781  0.34792438  0.61657771  1  -0.019571  0  -0.078149  -0.087513  0  3.980562  0
C  C90  1  0.21983180  0.30567247  0.65423863  1  -0.046899  0  -0.077344  -0.124179  0  3.936968  0
C  C91  1  0.39880720  0.30335835  0.68900189  1  0.044413  0  0.007775  0.138993  0  4.106767  0
C  C92  1  0.40600579  0.07533856  0.93607984  1  1.558798  0  0.260709  0.632427  0  4.119577  0
C  C93  1  0.45128493  0.09276207  0.09928932  1  1.567575  0  0.268791  0.639523  0  4.102839  0
C  C94  1  0.91345496  0.92893331  0.06759702  1  1.536157  0  0.269985  0.644806  0  4.086337  0
C  C95  1  0.87564666  0.91306435  0.90381511  1  1.595786  0  0.267765  0.647167  0  4.091156  0
C  C96  1  0.56032218  0.91585755  0.80635883  1  1.478701  0  0.231733  0.587134  0  4.126348  0
C  C97  1  0.78285922  0.23437335  0.84078747  1  1.512398  0  0.230876  0.577117  0  4.115723  0
C  C98  1  0.53291377  0.83416491  0.07095528  1  -0.089691  0  -0.238596  -0.415287  0  3.956875  0
C  C99  1  0.22833405  0.62095257  0.26374669  1  1.483768  0  0.227422  0.569348  0  4.129789  0
C  C100  1  0.59450904  0.74499399  0.34358679  1  -0.007989  0  -0.237946  -0.412951  0  3.980999  0
O  O101  1  0.56835175  0.45907648  0.56261729  1  -1.255299  0  -0.231192  -0.580484  0  2.344584  0
O  O102  1  0.19012904  0.43167877  0.42508552  1  -1.260369  0  -0.23891  -0.599839  0  2.341314  0
O  O103  1  0.05924152  0.56147923  0.45661115  1  -1.25839  0  -0.238937  -0.602538  0  2.341116  0
O  O104  1  0.22869262  0.43677231  0.54424257  1  -1.268673  0  -0.234236  -0.589641  0  2.350316  0
O  O105  1  0.09317239  0.56425516  0.57947027  1  -1.258724  0  -0.229576  -0.574835  0  2.336081  0
O  O106  1  0.52897081  0.42315574  0.43611488  1  -1.269748  0  -0.241304  -0.610093  0  2.347964  0
O  O107  1  0.39819352  0.54508992  0.50823784  1  -1.425406  0  -0.448307  -0.985742  0  2.195842  0
O  O108  1  0.76073814  0.58136884  0.56929857  1  -1.265917  0  -0.234198  -0.589262  0  2.35294  0
O  O109  1  0.71474570  0.55368408  0.44707119  1  -1.248628  0  -0.238076  -0.596871  0  2.330902  0
O  O110  1  0.87954389  0.45804399  0.49399659  1  -1.422002  0  -0.448618  -0.988395  0  2.200764  0
O  O111  1  0.27917555  0.07918676  0.06949672  1  -1.269976  0  -0.235883  -0.595559  0  2.368912  0
O  O112  1  0.57506326  0.06951719  0.96232152  1  -1.259609  0  -0.243733  -0.60729  0  2.336133  0
O  O113  1  0.71016258  0.93875634  0.92269134  1  -1.258046  0  -0.236474  -0.604049  0  2.370694  0
O  O114  1  0.61124601  0.06287339  0.08116087  1  -1.258091  0  -0.231831  -0.577934  0  2.331544  0
O  O115  1  0.75000104  0.93689670  0.04020144  1  -1.266632  0  -0.228005  -0.585386  0  2.402073  0
O  O116  1  0.23169867  0.05289494  0.94642721  1  -1.243112  0  -0.235428  -0.589106  0  2.351033  0
O  O117  1  0.40050368  0.95816564  0.99146208  1  -1.429932  0  -0.445764  -0.98041  0  2.188782  0
O  O118  1  0.08825812  0.95521210  0.06084812  1  -1.252604  0  -0.234458  -0.586607  0  2.327498  0
O  O119  1  0.04530638  0.92536610  0.93494048  1  -1.265815  0  -0.237213  -0.602509  0  2.355093  0
O  O120  1  0.91938073  0.04666670  0.00998107  1  -1.425154  0  -0.448784  -0.985392  0  2.198064  0
O  O121  1  0.37553563  0.90770438  0.80415483  1  -1.094748  0  -0.286629  -0.48225  0  2.092534  0
O  O122  1  0.66362479  0.97866098  0.81190069  1  -1.098518  0  -0.339677  -0.47655  0  2.229098  0
O  O123  1  0.85784001  0.23554419  0.79402357  1  -1.112124  0  -0.267999  -0.44626  0  2.09302  0
O  O124  1  0.87616211  0.27327693  0.89610145  1  -1.099376  0  -0.345018  -0.479766  0  2.182722  0
O  O125  1  0.35828542  0.58156187  0.26817106  1  -1.12713  0  -0.297118  -0.491777  0  2.076866  0
O  O126  1  0.22627344  0.65147246  0.21850569  1  -1.139521  0  -0.331701  -0.480085  0  2.265352  0
