# generated using pymatgen
data_TmH19C30N5O7
_symmetry_space_group_name_H-M   'P 1'
_cell_length_a   10.39808546
_cell_length_b   11.19469770
_cell_length_c   13.33674978
_cell_angle_alpha   109.86749703
_cell_angle_beta   101.51238572
_cell_angle_gamma   107.87326763
_symmetry_Int_Tables_number   1
_chemical_formula_structural   TmH19C30N5O7
_chemical_formula_sum   'Tm2 H38 C60 N10 O14'
_cell_volume   1307.04633945
_cell_formula_units_Z   2
loop_
 _symmetry_equiv_pos_site_id
 _symmetry_equiv_pos_as_xyz
  1  'x, y, z'
loop_
 _atom_site_type_symbol
 _atom_site_label
 _atom_site_symmetry_multiplicity
 _atom_site_fract_x
 _atom_site_fract_y
 _atom_site_fract_z
 _atom_site_occupancy
 _atom_site_hle17_bader_spin_density
 _atom_site_hle17_ddec_charge
 _atom_site_hle17_ddec_spin_density
 _atom_site_hle17_ddec_sum_bond_order
 _atom_site_hle17_magmom
 _atom_site_hse06_10hf_bader_spin_density
 _atom_site_hse06_10hf_ddec_charge
 _atom_site_hse06_10hf_ddec_spin_density
 _atom_site_hse06_10hf_ddec_sum_bond_order
 _atom_site_hse06_10hf_magmom
 _atom_site_hse06_bader_spin_density
 _atom_site_hse06_ddec_charge
 _atom_site_hse06_ddec_spin_density
 _atom_site_hse06_ddec_sum_bond_order
 _atom_site_hse06_magmom
 _atom_site_pbe_bader_spin_density
 _atom_site_pbe_cm5_charge
 _atom_site_pbe_ddec_charge
 _atom_site_pbe_ddec_spin_density
 _atom_site_pbe_ddec_sum_bond_order
 _atom_site_pbe_magmom
Tm  Tm0  1  0.49944342  0.91519368  0.62424956  1  0  2.217097  0  1.686042  0  0  2.052584  0  2.189755  0  0  2.200633  0  1.966233  0  0  1.547484  2.013768  0  2.221665  0
Tm  Tm1  1  0.50055631  0.08480679  0.37575087  1  0  2.217085  0  1.686067  0  0  2.052582  0  2.18978  0  0  2.200627  0  1.966271  0  0  1.547494  2.013767  0  2.221691  0
H  H2  1  0.58832498  0.43910650  0.01352527  1  0  0.095904  0  0.974052  0  0  0.104498  0  1.037452  0  0  0.106989  0  1.038639  0  0  0.100456  0.102703  0  1.036872  0
H  H3  1  0.41167389  0.56089189  0.98647443  1  0  0.095914  0  0.974016  0  0  0.104511  0  1.037412  0  0  0.107002  0  1.038597  0  0  0.100462  0.102714  0  1.036832  0
H  H4  1  0.73190432  0.68007892  0.04091593  1  0  0.055568  0  0.958616  0  0  0.063275  0  1.026532  0  0  0.06529  0  1.025538  0  0  0.102863  0.061841  0  1.027309  0
H  H5  1  0.26809411  0.31991843  0.95908415  1  0  0.055545  0  0.958619  0  0  0.06323  0  1.026556  0  0  0.065243  0  1.025566  0  0  0.10284  0.061797  0  1.027334  0
H  H6  1  0.03759445  0.54650757  0.61175440  1  0  0.066704  0  0.951827  0  0  0.073906  0  1.02057  0  0  0.076856  0  1.017811  0  0  0.105775  0.071857  0  1.022442  0
H  H7  1  0.96240627  0.45349290  0.38824544  1  0  0.066744  0  0.951777  0  0  0.073927  0  1.020531  0  0  0.076877  0  1.017774  0  0  0.10579  0.071879  0  1.022404  0
H  H8  1  0.96972779  0.69193271  0.52201393  1  0  0.099437  0  0.962531  0  0  0.109112  0  1.024666  0  0  0.111383  0  1.025805  0  0  0.103162  0.107177  0  1.02468  0
H  H9  1  0.03027195  0.30806776  0.47798574  1  0  0.099447  0  0.962543  0  0  0.109125  0  1.024672  0  0  0.111397  0  1.02581  0  0  0.103171  0.10719  0  1.024686  0
H  H10  1  0.76011450  0.75187381  0.55049165  1  0  0.120742  0  0.939043  0  0  0.127658  0  1.002018  0  0  0.13121  0  0.999299  0  0  0.116829  0.125069  0  1.003934  0
H  H11  1  0.23988425  0.24812666  0.44950787  1  0  0.120734  0  0.939087  0  0  0.127661  0  1.002056  0  0  0.131211  0  0.999339  0  0  0.116844  0.125071  0  1.003973  0
H  H12  1  0.92537310  0.30880851  0.70901473  1  0  0.107033  0  0.939456  0  0  0.113229  0  1.004896  0  0  0.117426  0  1.001407  0  0  0.106953  0.10984  0  1.007948  0
H  H13  1  0.07462762  0.69119196  0.29098510  1  0  0.107032  0  0.939429  0  0  0.113232  0  1.004864  0  0  0.11743  0  1.001374  0  0  0.106945  0.109842  0  1.007917  0
H  H14  1  0.19322406  0.43876134  0.78987976  1  0  0.097324  0  0.95754  0  0  0.109385  0  1.014328  0  0  0.112651  0  1.013573  0  0  0.103478  0.107055  0  1.014922  0
H  H15  1  0.80677568  0.56123913  0.21012067  1  0  0.09734  0  0.957528  0  0  0.109399  0  1.014315  0  0  0.112665  0  1.013561  0  0  0.103484  0.107068  0  1.014911  0
H  H16  1  0.34342978  0.32433696  0.70544015  1  0  0.074728  0  0.959215  0  0  0.083942  0  1.021069  0  0  0.086639  0  1.019055  0  0  0.109581  0.081902  0  1.022797  0
H  H17  1  0.65656996  0.67566351  0.29456028  1  0  0.074689  0  0.959257  0  0  0.083946  0  1.021069  0  0  0.08664  0  1.019058  0  0  0.109582  0.081905  0  1.022798  0
H  H18  1  0.84932958  0.05417976  0.77061323  1  0  0.084213  0  0.948992  0  0  0.089906  0  1.015605  0  0  0.092988  0  1.012819  0  0  0.119956  0.087609  0  1.017921  0
H  H19  1  0.15067114  0.94582071  0.22938660  1  0  0.084219  0  0.948971  0  0  0.089928  0  1.015572  0  0  0.09301  0  1.012785  0  0  0.119966  0.087629  0  1.017886  0
H  H20  1  0.03558210  0.21376217  0.96582261  1  0  0.100498  0  0.989217  0  0  0.106273  0  1.057163  0  0  0.109254  0  1.056463  0  0  0.102342  0.1043  0  1.057359  0
H  H21  1  0.96441862  0.78623830  0.03417722  1  0  0.10051  0  0.989215  0  0  0.106285  0  1.05716  0  0  0.109266  0  1.05646  0  0  0.102347  0.104312  0  1.057355  0
H  H22  1  0.95488808  0.31343685  0.12639897  1  0  0.105786  0  0.960613  0  0  0.112169  0  1.027174  0  0  0.11511  0  1.025408  0  0  0.1061  0.109996  0  1.0285  0
H  H23  1  0.04511264  0.68656362  0.87360161  1  0  0.105789  0  0.960634  0  0  0.112176  0  1.027192  0  0  0.115116  0  1.025425  0  0  0.106097  0.110004  0  1.028517  0
H  H24  1  0.74711676  0.31982774  0.19702638  1  0  0.106063  0  0.942783  0  0  0.118876  0  1.001389  0  0  0.121637  0  1.000226  0  0  0.109317  0.116978  0  1.002007  0
H  H25  1  0.25288353  0.68017169  0.80297383  1  0  0.10605  0  0.94279  0  0  0.118863  0  1.001397  0  0  0.121624  0  1.000234  0  0  0.109315  0.116965  0  1.002016  0
H  H26  1  0.48665544  0.25120811  0.15614497  1  0  0.116744  0  0.960103  0  0  0.124407  0  1.023825  0  0  0.127772  0  1.022543  0  0  0.110125  0.122057  0  1.024746  0
H  H27  1  0.51334485  0.74879132  0.84385450  1  0  0.116711  0  0.96015  0  0  0.124406  0  1.023837  0  0  0.127769  0  1.022556  0  0  0.110124  0.122054  0  1.024759  0
H  H28  1  0.23558145  0.11771712  0.01572939  1  0  0.108241  0  0.932909  0  0  0.116833  0  0.995982  0  0  0.120452  0  0.992867  0  0  0.112538  0.114261  0  0.998196  0
H  H29  1  0.76441927  0.88228335  0.98427045  1  0  0.108244  0  0.932911  0  0  0.116836  0  0.995989  0  0  0.120452  0  0.992875  0  0  0.112522  0.114263  0  0.998204  0
H  H30  1  0.07334264  0.96086829  0.81233158  1  0  0.108036  0  0.937405  0  0  0.122791  0  0.986838  0  0  0.125294  0  0.987593  0  0  0.110741  0.121046  0  0.986299  0
H  H31  1  0.92665666  0.03913114  0.18766773  1  0  0.108036  0  0.937396  0  0  0.122792  0  0.986832  0  0  0.125295  0  0.987587  0  0  0.110742  0.121046  0  0.986292  0
H  H32  1  0.18566333  0.89009892  0.66489056  1  0  0.086468  0  0.953932  0  0  0.091347  0  1.02281  0  0  0.094177  0  1.02012  0  0  0.120727  0.08912  0  1.025203  0
H  H33  1  0.81433598  0.10990051  0.33510876  1  0  0.086441  0  0.953966  0  0  0.091348  0  1.022811  0  0  0.09418  0  1.020118  0  0  0.120716  0.08912  0  1.025206  0
H  H34  1  0.50991466  0.24286149  0.81933624  1  0  0.095522  0  0.994133  0  0  0.104197  0  1.057401  0  0  0.106863  0  1.056117  0  0  0.109271  0.102464  0  1.05799  0
H  H35  1  0.49008420  0.75713690  0.18066271  1  0  0.095553  0  0.994093  0  0  0.10422  0  1.057361  0  0  0.106885  0  1.056076  0  0  0.109282  0.102485  0  1.057951  0
H  H36  1  0.36151178  0.64829078  0.62680553  1  0  0.418547  0  0.890691  0  0  0.387123  0  0.956167  0  0  0.399171  0  0.939151  0  0  0.288368  0.378664  0  0.968277  0
H  H37  1  0.63848851  0.35170865  0.37319394  1  0  0.418577  0  0.890647  0  0  0.387154  0  0.956122  0  0  0.399202  0  0.939104  0  0  0.288384  0.378696  0  0.96823  0
H  H38  1  0.25588676  0.65859994  0.52983602  1  0  0.421791  0  0.847012  0  0  0.398537  0  0.912581  0  0  0.406404  0  0.905682  0  0  0.309016  0.39292  0  0.918788  0
H  H39  1  0.74411341  0.34140157  0.47016477  1  0  0.421763  0  0.847041  0  0  0.398509  0  0.912611  0  0  0.406375  0  0.90572  0  0  0.309001  0.392892  0  0.918817  0
C  C40  1  0.57272848  0.25106980  0.64059807  1  0  0.736117  0  3.845162  0  0  0.689484  0  4.132429  0  0  0.726637  0  4.126299  0  0  0.233245  0.664637  0  4.140417  0
C  C41  1  0.42727180  0.74892963  0.35940214  1  0  0.736132  0  3.845156  0  0  0.689516  0  4.132407  0  0  0.72667  0  4.126276  0  0  0.233254  0.664668  0  4.140394  0
C  C42  1  0.61962044  0.37408318  0.75236386  1  0  -0.12638  0  3.66013  0  0  -0.108239  0  3.891413  0  0  -0.118407  0  3.90795  0  0  -0.003244  -0.102007  0  3.880144  0
C  C43  1  0.38037996  0.62591418  0.24763578  1  0  -0.126352  0  3.660221  0  0  -0.108231  0  3.891508  0  0  -0.118406  0  3.908049  0  0  -0.003229  -0.101997  0  3.880235  0
C  C44  1  0.61841311  0.45733654  0.94467514  1  0  -0.139468  0  3.777324  0  0  -0.149122  0  4.025205  0  0  -0.156678  0  4.046607  0  0  -0.094937  -0.14445  0  4.010769  0
C  C45  1  0.38158532  0.54266081  0.05532420  1  0  -0.139467  0  3.777349  0  0  -0.149131  0  4.025212  0  0  -0.156685  0  4.046614  0  0  -0.094935  -0.144456  0  4.010775  0
C  C46  1  0.69829185  0.59088051  0.95940814  1  0  0.119504  0  3.766034  0  0  0.095677  0  4.022987  0  0  0.102672  0  4.039423  0  0  0.039283  0.09142  0  4.011663  0
C  C47  1  0.30170745  0.40911892  0.04059192  1  0  0.119552  0  3.766071  0  0  0.095748  0  4.023015  0  0  0.102741  0  4.039454  0  0  0.039297  0.091489  0  4.011692  0
C  C48  1  0.70111021  0.51251871  0.77588684  1  0  0.201992  0  3.71253  0  0  0.191089  0  3.963335  0  0  0.200079  0  3.978795  0  0  0.137957  0.18547  0  3.952307  0
C  C49  1  0.29889008  0.48748072  0.22411338  1  0  0.201973  0  3.712564  0  0  0.191059  0  3.963432  0  0  0.200052  0  3.978892  0  0  0.13794  0.18544  0  3.952407  0
C  C50  1  0.76292814  0.55433934  0.69493259  1  0  0.182741  0  3.74119  0  0  0.171838  0  3.995887  0  0  0.180509  0  4.010604  0  0  0.129809  0.166488  0  3.984975  0
C  C51  1  0.23707259  0.44566113  0.30506799  1  0  0.182784  0  3.741178  0  0  0.171847  0  3.995905  0  0  0.180525  0  4.010624  0  0  0.129795  0.166496  0  3.984992  0
C  C52  1  0.94600812  0.57253084  0.62022615  1  0  0.100393  0  3.770728  0  0  0.077196  0  4.031617  0  0  0.083604  0  4.047432  0  0  0.033193  0.073226  0  4.020568  0
C  C53  1  0.05399162  0.42746963  0.37977503  1  0  0.100331  0  3.770663  0  0  0.077152  0  4.03155  0  0  0.083558  0  4.047362  0  0  0.03315  0.07318  0  4.020501  0
C  C54  1  0.90875018  0.65435715  0.57080964  1  0  -0.135857  0  3.75931  0  0  -0.147404  0  4.010758  0  0  -0.154788  0  4.032832  0  0  -0.091186  -0.142823  0  3.996169  0
C  C55  1  0.09125054  0.34564332  0.42919094  1  0  -0.135881  0  3.759292  0  0  -0.147428  0  4.010747  0  0  -0.154812  0  4.032818  0  0  -0.091187  -0.142847  0  3.996156  0
C  C56  1  0.79281655  0.68679809  0.58573754  1  0  0.002308  0  3.662732  0  0  -0.025258  0  3.908137  0  0  -0.019688  0  3.923123  0  0  -0.057202  -0.028576  0  3.897835  0
C  C57  1  0.20718275  0.31320134  0.41426177  1  0  0.002408  0  3.662642  0  0  -0.025185  0  3.908052  0  0  -0.019607  0  3.923045  0  0  -0.057181  -0.028504  0  3.897752  0
C  C58  1  0.71685855  0.63508842  0.64805866  1  0  -0.113362  0  3.662497  0  0  -0.097407  0  3.897206  0  0  -0.106574  0  3.914263  0  0  -0.001478  -0.091697  0  3.88563  0
C  C59  1  0.28314217  0.36491205  0.35194118  1  0  -0.113408  0  3.662465  0  0  -0.097401  0  3.897143  0  0  -0.106594  0  3.914228  0  0  -0.001469  -0.091695  0  3.885571  0
C  C60  1  0.59126063  0.66972975  0.66299355  1  0  0.703573  0  3.871396  0  0  0.652902  0  4.169092  0  0  0.688814  0  4.160366  0  0  0.22236  0.628516  0  4.176509  0
C  C61  1  0.40873966  0.33026968  0.33700667  1  0  0.703529  0  3.871394  0  0  0.652837  0  4.169109  0  0  0.688757  0  4.160382  0  0  0.222309  0.628453  0  4.176524  0
C  C62  1  0.77144019  0.05961518  0.54306201  1  0  0.747037  0  3.872121  0  0  0.691229  0  4.179842  0  0  0.730623  0  4.167593  0  0  0.237683  0.665049  0  4.190439  0
C  C63  1  0.22855912  0.94038425  0.45693805  1  0  0.74709  0  3.872058  0  0  0.691265  0  4.179807  0  0  0.730671  0  4.167544  0  0  0.23768  0.665084  0  4.190405  0
C  C64  1  0.93345219  0.12632664  0.58887656  1  0  -0.113859  0  3.667577  0  0  -0.094954  0  3.902332  0  0  -0.102157  0  3.918686  0  0  -0.000119  -0.090162  0  3.890093  0
C  C65  1  0.06654712  0.87367279  0.41112275  1  0  -0.113886  0  3.667617  0  0  -0.094961  0  3.902378  0  0  -0.102167  0  3.91873  0  0  -0.000131  -0.090166  0  3.890137  0
C  C66  1  0.99464048  0.26034526  0.67780078  1  0  -0.043663  0  3.727274  0  0  -0.069788  0  3.977059  0  0  -0.067414  0  3.994003  0  0  -0.073373  -0.070779  0  3.965199  0
C  C67  1  0.00535926  0.73965520  0.32219890  1  0  -0.043668  0  3.727283  0  0  -0.069802  0  3.977059  0  0  -0.067429  0  3.994006  0  0  -0.073372  -0.070792  0  3.965196  0
C  C68  1  0.14321032  0.33337010  0.72222545  1  0  -0.123117  0  3.761042  0  0  -0.13337  0  4.00987  0  0  -0.1387  0  4.029734  0  0  -0.088987  -0.129903  0  3.996182  0
C  C69  1  0.85679040  0.66663037  0.27777438  1  0  -0.123126  0  3.76099  0  0  -0.133378  0  4.00983  0  0  -0.138709  0  4.029694  0  0  -0.088981  -0.129911  0  3.996144  0
C  C70  1  0.22689828  0.26923621  0.67583438  1  0  0.118148  0  3.736304  0  0  0.090154  0  3.997831  0  0  0.09684  0  4.012803  0  0  0.041666  0.08581  0  3.987503  0
C  C71  1  0.77310342  0.73076426  0.32416635  1  0  0.11821  0  3.73624  0  0  0.090184  0  3.997762  0  0  0.096871  0  4.012734  0  0  0.041688  0.085839  0  3.987435  0
C  C72  1  0.02680208  0.06974235  0.54780212  1  0  0.150144  0  3.751437  0  0  0.141417  0  3.999114  0  0  0.147309  0  4.018049  0  0  0.119388  0.13761  0  3.985713  0
C  C73  1  0.97319820  0.93025708  0.45219810  1  0  0.15023  0  3.751414  0  0  0.141448  0  3.999133  0  0  0.147337  0  4.018069  0  0  0.119387  0.137638  0  3.985732  0
C  C74  1  0.81906688  0.09901134  0.84381065  1  0  0.162886  0  3.687211  0  0  0.134312  0  3.94098  0  0  0.142204  0  3.959708  0  0  0.060296  0.128807  0  3.931078  0
C  C75  1  0.18093341  0.90098809  0.15618882  1  0  0.162902  0  3.687173  0  0  0.13431  0  3.940949  0  0  0.142203  0  3.959674  0  0  0.060275  0.128808  0  3.931043  0
C  C76  1  0.92187369  0.18774936  0.95223343  1  0  -0.125923  0  3.740333  0  0  -0.135579  0  3.986109  0  0  -0.142324  0  4.006914  0  0  -0.087105  -0.130936  0  3.971138  0
C  C77  1  0.07812703  0.81225111  0.04776715  1  0  -0.125937  0  3.740342  0  0  -0.135588  0  3.986118  0  0  -0.142333  0  4.006921  0  0  -0.087114  -0.130945  0  3.971146  0
C  C78  1  0.87727281  0.24250715  0.04163516  1  0  -0.042744  0  3.676926  0  0  -0.064718  0  3.918804  0  0  -0.062688  0  3.936934  0  0  -0.063158  -0.065316  0  3.905813  0
C  C79  1  0.12272747  0.75749228  0.95836431  1  0  -0.042772  0  3.676923  0  0  -0.064748  0  3.918813  0  0  -0.062717  0  3.936945  0  0  -0.06315  -0.065347  0  3.905822  0
C  C80  1  0.72896061  0.20523196  0.02254388  1  0  0.020279  0  3.799364  0  0  0.036611  0  4.029186  0  0  0.034049  0  4.054182  0  0  -0.003712  0.038305  0  4.011788  0
C  C81  1  0.27104011  0.79476851  0.97745595  1  0  0.020318  0  3.799342  0  0  0.036626  0  4.029185  0  0  0.034061  0  4.054192  0  0  -0.00371  0.038324  0  4.011783  0
C  C82  1  0.63302791  0.11464491  0.91009782  1  0  0.134018  0  3.769229  0  0  0.130341  0  4.00751  0  0  0.133828  0  4.032273  0  0  0.120642  0.127517  0  3.993894  0
C  C83  1  0.36697281  0.88535556  0.08990126  1  0  0.134011  0  3.76924  0  0  0.13036  0  4.007499  0  0  0.133848  0  4.032261  0  0  0.120664  0.127535  0  3.993882  0
C  C84  1  0.67257679  0.25328882  0.11058100  1  0  -0.095786  0  3.726345  0  0  -0.118948  0  3.981995  0  0  -0.122035  0  4.003839  0  0  -0.081659  -0.116407  0  3.966488  0
C  C85  1  0.32742295  0.74671165  0.88941868  1  0  -0.095754  0  3.726322  0  0  -0.118917  0  3.981996  0  0  -0.122  0  4.003837  0  0  -0.081649  -0.116378  0  3.966489  0
C  C86  1  0.52806641  0.21423876  0.08817835  1  0  -0.089521  0  3.702028  0  0  -0.114593  0  3.962418  0  0  -0.116806  0  3.983339  0  0  -0.080879  -0.112976  0  3.947768  0
C  C87  1  0.47193431  0.78576171  0.91182148  1  0  -0.089426  0  3.701909  0  0  -0.114534  0  3.96229  0  0  -0.116746  0  3.98321  0  0  -0.080838  -0.112916  0  3.94764  0
C  C88  1  0.42858459  0.12411527  0.97556187  1  0  0.021596  0  3.774317  0  0  0.036251  0  4.008303  0  0  0.033444  0  4.031947  0  0  -0.002958  0.03838  0  3.991552  0
C  C89  1  0.57141711  0.87588520  0.02443737  1  0  0.021525  0  3.774213  0  0  0.036216  0  4.008168  0  0  0.033408  0  4.031815  0  0  -0.002967  0.038345  0  3.991417  0
C  C90  1  0.48062487  0.07396490  0.88609987  1  0  0.127984  0  3.781409  0  0  0.126426  0  4.017505  0  0  0.130821  0  4.042138  0  0  0.119763  0.123466  0  4.003712  0
C  C91  1  0.51937487  0.92603557  0.11389981  1  0  0.127952  0  3.781293  0  0  0.12638  0  4.01739  0  0  0.130776  0  4.042022  0  0  0.119722  0.123419  0  4.0036  0
C  C92  1  0.27838472  0.08175681  0.94823144  1  0  -0.045378  0  3.690058  0  0  -0.070195  0  3.942426  0  0  -0.067209  0  3.95958  0  0  -0.061965  -0.071771  0  3.930106  0
C  C93  1  0.72161600  0.91824366  0.05176839  1  0  -0.045406  0  3.690163  0  0  -0.070243  0  3.94253  0  0  -0.067256  0  3.959687  0  0  -0.061949  -0.071818  0  3.930209  0
C  C94  1  0.18980367  0.99700235  0.83692661  1  0  -0.12817  0  3.728105  0  0  -0.140499  0  3.979083  0  0  -0.147924  0  4.000296  0  0  -0.083606  -0.135711  0  3.964149  0
C  C95  1  0.81019564  0.00299708  0.16307270  1  0  -0.128119  0  3.728058  0  0  -0.140457  0  3.979045  0  0  -0.147882  0  4.000255  0  0  -0.083612  -0.135669  0  3.964108  0
C  C96  1  0.25142668  0.95507960  0.75366124  1  0  0.176202  0  3.679778  0  0  0.144841  0  3.940807  0  0  0.153732  0  3.959898  0  0  0.064847  0.139001  0  3.930781  0
C  C97  1  0.74857208  0.04492086  0.24633829  1  0  0.176153  0  3.679803  0  0  0.144791  0  3.940808  0  0  0.153681  0  3.959894  0  0  0.064837  0.13895  0  3.930782  0
C  C98  1  0.57710743  0.34891370  0.83872878  1  0  -0.014206  0  3.723491  0  0  -0.043811  0  3.971617  0  0  -0.038521  0  3.987705  0  0  -0.069094  -0.046615  0  3.959934  0
C  C99  1  0.42289143  0.65108469  0.16127092  1  0  -0.014275  0  3.723548  0  0  -0.043857  0  3.971657  0  0  -0.038564  0  3.987748  0  0  -0.069107  -0.046659  0  3.959971  0
N  N100  1  0.73794764  0.61896693  0.87739586  1  0  -0.350552  0  3.063323  0  0  -0.318866  0  3.33434  0  0  -0.331398  0  3.348235  0  0  -0.315666  -0.310582  0  3.324704  0
N  N101  1  0.26205167  0.38103250  0.12260421  1  0  -0.350594  0  3.063341  0  0  -0.318903  0  3.334348  0  0  -0.331434  0  3.348243  0  0  -0.315683  -0.310618  0  3.324713  0
N  N102  1  0.87560394  0.52338551  0.68165179  1  0  -0.362079  0  3.075348  0  0  -0.330624  0  3.34672  0  0  -0.342184  0  3.358737  0  0  -0.323552  -0.322729  0  3.338104  0
N  N103  1  0.12439678  0.47661496  0.31834804  1  0  -0.362099  0  3.075339  0  0  -0.33063  0  3.346703  0  0  -0.342189  0  3.358717  0  0  -0.323543  -0.322734  0  3.338086  0
N  N104  1  0.17045477  0.14100799  0.59217046  1  0  -0.306737  0  3.091708  0  0  -0.270226  0  3.357911  0  0  -0.281796  0  3.373336  0  0  -0.301256  -0.261866  0  3.346802  0
N  N105  1  0.82954595  0.85899248  0.40783087  1  0  -0.306788  0  3.091629  0  0  -0.270267  0  3.357869  0  0  -0.281835  0  3.373293  0  0  -0.301275  -0.261906  0  3.346762  0
N  N106  1  0.67874365  0.06495887  0.82260174  1  0  -0.411884  0  3.249895  0  0  -0.363116  0  3.516638  0  0  -0.387931  0  3.53669  0  0  -0.372039  -0.353457  0  3.505505  0
N  N107  1  0.32125707  0.93504160  0.17739809  1  0  -0.411933  0  3.249833  0  0  -0.363166  0  3.516576  0  0  -0.387979  0  3.536624  0  0  -0.372056  -0.353507  0  3.505441  0
N  N108  1  0.39240245  0.99159422  0.77687023  1  0  -0.427491  0  3.233888  0  0  -0.378643  0  3.503456  0  0  -0.405502  0  3.523433  0  0  -0.372386  -0.368514  0  3.492003  0
N  N109  1  0.60759784  0.00840521  0.22312924  1  0  -0.42742  0  3.233867  0  0  -0.37857  0  3.50341  0  0  -0.405425  0  3.523385  0  0  -0.372351  -0.368442  0  3.491958  0
O  O110  1  0.54338060  0.13353792  0.64314858  1  0  -0.77656  0  2.154259  0  0  -0.723587  0  2.421405  0  0  -0.768216  0  2.411482  0  0  -0.402151  -0.704284  0  2.427766  0
O  O111  1  0.45661870  0.86646151  0.35685148  1  0  -0.776537  0  2.154251  0  0  -0.723563  0  2.421383  0  0  -0.768189  0  2.411461  0  0  -0.402133  -0.704258  0  2.427738  0
O  O112  1  0.56334189  0.26950976  0.55119337  1  0  -0.701639  0  2.031209  0  0  -0.650499  0  2.277939  0  0  -0.688566  0  2.265683  0  0  -0.377433  -0.631778  0  2.283279  0
O  O113  1  0.43665840  0.73048967  0.44880609  1  0  -0.701665  0  2.031225  0  0  -0.650536  0  2.277947  0  0  -0.688605  0  2.265688  0  0  -0.37745  -0.631815  0  2.283287  0
O  O114  1  0.47834868  0.57939378  0.65741840  1  0  -0.60523  0  1.887436  0  0  -0.556081  0  2.096748  0  0  -0.580623  0  2.088163  0  0  -0.310629  -0.538476  0  2.101811  0
O  O115  1  0.52165160  0.42060565  0.34258257  1  0  -0.605223  0  1.887361  0  0  -0.556069  0  2.096688  0  0  -0.580606  0  2.088096  0  0  -0.310621  -0.538463  0  2.101752  0
O  O116  1  0.60993855  0.79452844  0.68012076  1  0  -0.772491  0  2.101872  0  0  -0.716804  0  2.367396  0  0  -0.758477  0  2.352777  0  0  -0.431165  -0.696791  0  2.373796  0
O  O117  1  0.39006076  0.20547099  0.31988006  1  0  -0.77245  0  2.101917  0  0  -0.71676  0  2.367459  0  0  -0.758434  0  2.352844  0  0  -0.431141  -0.696753  0  2.373872  0
O  O118  1  0.71495618  0.10083989  0.47532814  1  0  -0.733103  0  2.094902  0  0  -0.681422  0  2.364565  0  0  -0.721828  0  2.349767  0  0  -0.396851  -0.661975  0  2.371742  0
O  O119  1  0.28504312  0.89915954  0.52467118  1  0  -0.733161  0  2.09497  0  0  -0.681422  0  2.364544  0  0  -0.721815  0  2.349701  0  0  -0.396853  -0.661976  0  2.371722  0
O  O120  1  0.70758030  0.98453842  0.58557614  1  0  -0.723401  0  2.095712  0  0  -0.679143  0  2.369645  0  0  -0.718718  0  2.353727  0  0  -0.388483  -0.660662  0  2.377656  0
O  O121  1  0.29242096  0.01546101  0.41442348  1  0  -0.723391  0  2.095622  0  0  -0.67916  0  2.369624  0  0  -0.718746  0  2.353718  0  0  -0.388472  -0.660677  0  2.377634  0
O  O122  1  0.31002170  0.70676850  0.61091526  1  0  -0.882773  0  1.885264  0  0  -0.836939  0  2.082004  0  0  -0.866236  0  2.051801  0  0  -0.618945  -0.8231  0  2.100177  0
O  O123  1  0.68997956  0.29323093  0.38908511  1  0  -0.88278  0  1.885256  0  0  -0.836944  0  2.081997  0  0  -0.866239  0  2.051806  0  0  -0.618941  -0.823104  0  2.100167  0
