# generated using pymatgen
data_CoH24C18(N2O)4
_symmetry_space_group_name_H-M   'P 1'
_cell_length_a   7.88175350
_cell_length_b   8.05307937
_cell_length_c   9.30354805
_cell_angle_alpha   95.81240458
_cell_angle_beta   112.34122222
_cell_angle_gamma   107.93239663
_symmetry_Int_Tables_number   1
_chemical_formula_structural   CoH24C18(N2O)4
_chemical_formula_sum   'Co1 H24 C18 N8 O4'
_cell_volume   503.41382335
_cell_formula_units_Z   1
loop_
 _symmetry_equiv_pos_site_id
 _symmetry_equiv_pos_as_xyz
  1  'x, y, z'
loop_
 _atom_site_type_symbol
 _atom_site_label
 _atom_site_symmetry_multiplicity
 _atom_site_fract_x
 _atom_site_fract_y
 _atom_site_fract_z
 _atom_site_occupancy
 _atom_site_hle17_ddec_charge
 _atom_site_hle17_ddec_spin_density
 _atom_site_hle17_ddec_sum_bond_order
 _atom_site_hle17_magmom
 _atom_site_hse06_10hf_ddec_charge
 _atom_site_hse06_10hf_ddec_spin_density
 _atom_site_hse06_10hf_ddec_sum_bond_order
 _atom_site_hse06_10hf_magmom
 _atom_site_hse06_ddec_charge
 _atom_site_hse06_ddec_spin_density
 _atom_site_hse06_ddec_sum_bond_order
 _atom_site_hse06_magmom
 _atom_site_pbe_cm5_charge
 _atom_site_pbe_ddec_charge
 _atom_site_pbe_ddec_spin_density
 _atom_site_pbe_ddec_sum_bond_order
 _atom_site_pbe_magmom
Co  Co0  1  0.00000137  0.99999999  0.00000044  1  0.644824  -1.082272  2.531941  -1.0  0.617023  -1.027036  2.962778  -0.967  0.6806  -1.02843  2.894686  -0.976  0.672711  0.577665  -1.01941  3.007445  -0.95
H  H1  1  0.22911657  0.56946417  0.51301306  1  0.090936  -0.000211  0.94481  0.0  0.105199  -0.00028  1.008715  0.0  0.107515  -0.000198  1.007371  0.0  0.088975  0.103646  -0.000424  1.009627  0.0
H  H2  1  0.77088197  0.43053635  0.48698270  1  0.090868  -0.00021  0.944781  0.0  0.105183  -0.00028  1.00866  0.0  0.107491  -0.000198  1.007324  0.0  0.088971  0.103638  -0.000424  1.00956  0.0
H  H3  1  0.20195508  0.61707186  0.32693704  1  0.095276  0.000323  0.955007  0.0  0.10952  0.000158  1.019212  0.0  0.111123  0.000124  1.019927  0.0  0.094663  0.108674  0.00021  1.018505  0.0
H  H4  1  0.79804381  0.38293271  0.67305933  1  0.095243  0.000326  0.955117  0.0  0.109521  0.000158  1.019268  0.0  0.111126  0.000124  1.019982  0.0  0.094648  0.108672  0.00021  1.018562  0.0
H  H5  1  0.55500026  0.70122046  0.50351961  1  0.061924  4.7e-05  0.93397  0.0  0.081788  5.1e-05  0.992369  0.0  0.082903  4.2e-05  0.992369  0.0  0.085698  0.080867  6.2e-05  0.992704  0.0
H  H6  1  0.44500272  0.29878407  0.49647808  1  0.061936  4.5e-05  0.933954  0.0  0.081802  5.1e-05  0.992372  0.0  0.082918  4.2e-05  0.992369  0.0  0.085722  0.080882  6.2e-05  0.992705  0.0
H  H7  1  0.47670695  0.52700993  0.33370718  1  0.050919  -3e-06  0.954059  0.0  0.068702  2.4e-05  1.0228  0.0  0.069533  2.4e-05  1.022849  0.0  0.081594  0.068032  1.3e-05  1.023029  0.0
H  H8  1  0.52329869  0.47299440  0.66629457  1  0.050899  -4e-06  0.95411  0.0  0.068721  2.4e-05  1.022811  0.0  0.069553  2.4e-05  1.022857  0.0  0.081622  0.068054  1.3e-05  1.023042  0.0
H  H9  1  0.27247470  0.88591097  0.74394783  1  0.312861  3.8e-05  0.93482  0.0  0.288939  3.4e-05  1.002176  0.0  0.298365  3.2e-05  0.994348  0.0  0.303155  0.282189  3.4e-05  1.007786  0.0
H  H10  1  0.72752982  0.11408424  0.25604601  1  0.31282  3.8e-05  0.934839  0.0  0.288919  3.4e-05  1.002154  0.0  0.298347  3.2e-05  0.994323  0.0  0.303137  0.282168  3.4e-05  1.007762  0.0
H  H11  1  0.03664299  0.27969609  0.54836170  1  0.30636  5.7e-05  0.950078  0.0  0.284045  5e-05  1.01461  0.0  0.292835  4e-05  1.008317  0.0  0.30132  0.277088  4.2e-05  1.020043  0.0
H  H12  1  0.96334913  0.72030552  0.45163857  1  0.306349  5.7e-05  0.950062  0.0  0.284054  5e-05  1.014561  0.0  0.292842  4e-05  1.008268  0.0  0.30133  0.277096  4.2e-05  1.019993  0.0
H  H13  1  0.54152740  0.75038460  0.82105341  1  0.08029  3.9e-05  0.964852  0.0  0.08922  0.000125  1.034372  0.0  0.091411  7.7e-05  1.030506  0.0  0.131639  0.087287  0.000152  1.037852  0.0
H  H14  1  0.45847595  0.24961434  0.17894695  1  0.080313  3.8e-05  0.964785  0.0  0.089259  0.000125  1.034302  0.0  0.091453  7.7e-05  1.030432  0.0  0.131629  0.087326  0.000151  1.03778  0.0
H  H15  1  0.43235161  0.23288151  0.81337793  1  0.095455  0.000164  1.000134  0.0  0.101847  7e-05  1.069456  0.0  0.103265  6.2e-05  1.070725  0.0  0.112587  0.100884  7.6e-05  1.068548  0.0
H  H16  1  0.56764327  0.76710715  0.18660986  1  0.095475  0.000163  0.999976  0.0  0.101866  7e-05  1.069294  0.0  0.103287  6.3e-05  1.070553  0.0  0.112642  0.100903  7.6e-05  1.068382  0.0
H  H17  1  0.83946153  0.31373734  0.95801681  1  0.10405  4.8e-05  0.963392  0.0  0.112146  8.7e-05  1.026636  0.0  0.113825  6.6e-05  1.02679  0.0  0.11606  0.110847  0.000108  1.026742  0.0
H  H18  1  0.16053234  0.68626188  0.04197729  1  0.104043  4.8e-05  0.963335  0.0  0.112145  8.7e-05  1.026572  0.0  0.113825  6.6e-05  1.026727  0.0  0.116071  0.110849  0.000108  1.026678  0.0
H  H19  1  0.91493359  0.99059376  0.63730486  1  0.096597  3.6e-05  0.944933  0.0  0.103461  0.000104  1.010287  0.0  0.106384  7.6e-05  1.005958  0.0  0.135375  0.10102  0.00013  1.01385  0.0
H  H20  1  0.08506877  0.00941579  0.36270076  1  0.096635  3.6e-05  0.944909  0.0  0.103484  0.000104  1.010292  0.0  0.106395  7.6e-05  1.005975  0.0  0.135373  0.101039  0.00013  1.013855  0.0
H  H21  1  0.25940284  0.54923164  0.79476254  1  0.105181  0.000141  0.97929  0.0  0.111854  6.7e-05  1.046769  0.0  0.11412  5.1e-05  1.046274  0.0  0.117462  0.110104  2.6e-05  1.047347  0.0
H  H22  1  0.74059308  0.45077246  0.20524249  1  0.105166  0.000141  0.979341  0.0  0.111833  6.7e-05  1.046821  0.0  0.1141  5.1e-05  1.046323  0.0  0.11741  0.110081  2.6e-05  1.047399  0.0
H  H23  1  0.26736675  0.40811266  0.05876049  1  0.109691  5.3e-05  0.98261  0.0  0.117289  0.00011  1.044558  0.0  0.120118  9.3e-05  1.042628  0.0  0.116807  0.114456  0.000122  1.047126  0.0
H  H24  1  0.73262981  0.59188327  0.94124484  1  0.109672  5.3e-05  0.982551  0.0  0.117274  0.00011  1.044509  0.0  0.120104  9.3e-05  1.042578  0.0  0.116806  0.114439  0.000122  1.04708  0.0
C  C25  1  0.56819827  0.89254335  0.83934195  1  0.204392  0.011493  3.651802  0.008  0.147223  0.004881  3.925287  0.003  0.163577  0.003822  3.936667  0.003  0.136829  0.135926  0.005869  3.918497  0.004
C  C26  1  0.43180397  0.10744332  0.16065874  1  0.20429  0.011496  3.652121  0.008  0.147096  0.004879  3.925617  0.003  0.163447  0.003821  3.937004  0.003  0.136844  0.135802  0.005866  3.91882  0.004
C  C27  1  0.51610277  0.14632734  0.83531646  1  -0.018215  -0.001031  3.709353  -0.002  -0.05314  1e-05  3.968191  0.0  -0.051957  -7.9e-05  3.988291  0.0  -0.006822  -0.053856  1.1e-05  3.954771  0.0
C  C28  1  0.48389561  0.85367285  0.16468568  1  -0.018176  -0.00103  3.709305  -0.002  -0.053097  1e-05  3.968129  0.0  -0.051912  -7.8e-05  3.988235  0.0  -0.006859  -0.053812  1.1e-05  3.954713  0.0
C  C29  1  0.71659714  0.18490437  0.90697833  1  -0.020208  0.005241  3.718462  0.004  -0.051848  0.002442  3.986905  0.002  -0.048958  0.002047  4.007048  0.001  -0.009842  -0.053963  0.00279  3.973708  0.002
C  C30  1  0.28340583  0.81509047  0.09302249  1  -0.020296  0.005241  3.71844  0.004  -0.051932  0.002444  3.986893  0.002  -0.049045  0.002046  4.007039  0.001  -0.009895  -0.054051  0.00279  3.973704  0.002
C  C31  1  0.01152126  0.12226272  0.71711594  1  0.205339  0.009683  3.626778  0.006  0.147493  0.004395  3.902429  0.003  0.164505  0.0035  3.910779  0.002  0.139212  0.135864  0.005221  3.89749  0.003
C  C32  1  0.98847119  0.87774288  0.28288599  1  0.205303  0.009687  3.626525  0.006  0.147466  0.004394  3.902177  0.003  0.164487  0.003499  3.910535  0.002  0.139227  0.13584  0.005221  3.897235  0.003
C  C33  1  0.19659546  0.41278765  0.80288123  1  -0.032032  -0.000619  3.73383  -0.001  -0.069034  9.4e-05  4.000254  0.0  -0.068179  -2.2e-05  4.019865  0.0  -0.007409  -0.069849  0.000125  3.987605  0.0
C  C34  1  0.80341551  0.58720986  0.19712143  1  -0.032125  -0.00062  3.73383  -0.001  -0.069128  9.4e-05  4.000254  0.0  -0.068274  -2.1e-05  4.019869  0.0  -0.007386  -0.069941  0.000125  3.9876  0.0
C  C35  1  0.19836842  0.34293775  0.93218768  1  -0.04033  0.004338  3.739775  0.003  -0.069943  0.002131  4.007999  0.002  -0.067375  0.001811  4.027165  0.001  -0.009799  -0.071705  0.00237  3.996319  0.002
C  C36  1  0.80164782  0.65706895  0.06782209  1  -0.040225  0.004341  3.739741  0.003  -0.069819  0.002132  4.007942  0.002  -0.06726  0.001809  4.027115  0.001  -0.009798  -0.07158  0.00237  3.996264  0.002
C  C37  1  0.10205041  0.33681732  0.31381691  1  0.688076  0.002227  3.839707  0.001  0.644451  -0.000132  4.145345  -0.002  0.677166  9.1e-05  4.138278  -0.001  0.207641  0.622245  -0.000185  4.148374  -0.002
C  C38  1  0.89794729  0.66317796  0.68617473  1  0.687994  0.002234  3.839582  0.001  0.64431  -0.000134  4.145344  -0.002  0.677024  9.1e-05  4.138283  -0.001  0.207601  0.622102  -0.000185  4.14837  -0.002
C  C39  1  0.24725148  0.52952491  0.40482547  1  -0.271722  -0.002389  3.691562  -0.004  -0.30945  -0.001805  3.941822  -0.003  -0.315204  -0.001292  3.950491  -0.002  -0.174687  -0.305034  -0.002412  3.934713  -0.003
C  C40  1  0.75274299  0.47047571  0.59516792  1  -0.271652  -0.002397  3.691601  -0.004  -0.309404  -0.001804  3.941933  -0.003  -0.315155  -0.001293  3.950606  -0.002  -0.174677  -0.304988  -0.002412  3.934808  -0.003
C  C41  1  0.46211395  0.55779063  0.44549473  1  -0.086686  0.000354  3.722503  0.0  -0.12807  0.000151  3.984028  0.0  -0.128584  0.000143  3.998441  0.0  -0.172661  -0.127603  0.000159  3.973756  0.0
C  C42  1  0.53787939  0.44221383  0.55450306  1  -0.086704  0.000371  3.722517  0.0  -0.128167  0.000151  3.984114  0.0  -0.128678  0.000143  3.998525  0.0  -0.172753  -0.127704  0.000158  3.973845  0.0
N  N43  1  0.74716639  0.02459627  0.90956541  1  -0.30236  0.01357  3.393385  0.009  -0.262057  0.008496  3.699075  0.006  -0.288149  0.008522  3.715011  0.007  -0.362836  -0.245344  0.007545  3.688627  0.005
N  N44  1  0.25283669  0.97540527  0.09043733  1  -0.3023  0.013566  3.393333  0.009  -0.262025  0.008495  3.69907  0.006  -0.288115  0.008522  3.715001  0.007  -0.362835  -0.245311  0.007544  3.688624  0.005
N  N45  1  0.42497929  0.96151344  0.79344378  1  -0.284589  0.001393  3.449509  0.001  -0.215209  0.001074  3.681492  0.001  -0.231565  0.000748  3.695926  0.0  -0.380086  -0.204401  0.001308  3.672303  0.001
N  N46  1  0.57501617  0.03848305  0.20655051  1  -0.284544  0.00139  3.449735  0.001  -0.215138  0.001075  3.681639  0.001  -0.231496  0.000747  3.696082  0.0  -0.380068  -0.204329  0.001307  3.672447  0.001
N  N47  1  0.08198418  0.16077913  0.87700159  1  -0.2963  0.012699  3.375431  0.008  -0.252474  0.00792  3.676338  0.006  -0.278005  0.007923  3.691739  0.006  -0.359864  -0.236248  0.006992  3.666445  0.005
N  N48  1  0.91801669  0.83922368  0.12300274  1  -0.296298  0.012694  3.375292  0.008  -0.252527  0.007919  3.676275  0.006  -0.278041  0.007922  3.691659  0.006  -0.359855  -0.236302  0.006991  3.666386  0.005
N  N49  1  0.07901238  0.27167013  0.66871201  1  -0.293377  0.001222  3.472124  0.001  -0.224609  0.001001  3.708175  0.001  -0.241136  0.000685  3.723173  0.0  -0.382903  -0.213489  0.001239  3.699102  0.001
N  N50  1  0.92099389  0.72833250  0.33129620  1  -0.293336  0.00122  3.471744  0.001  -0.224555  0.001002  3.707766  0.001  -0.241081  0.000684  3.722759  0.0  -0.382912  -0.213425  0.001239  3.698681  0.001
O  O51  1  0.12787463  0.25883183  0.20412139  1  -0.608431  -0.019062  2.039453  -0.034  -0.562652  -0.018506  2.297445  -0.031  -0.590385  -0.015037  2.287468  -0.025  -0.300062  -0.54169  -0.02265  2.303445  -0.037
O  O52  1  0.87212025  0.74116980  0.79587871  1  -0.608246  -0.019067  2.039103  -0.034  -0.562568  -0.018509  2.297169  -0.031  -0.590305  -0.015038  2.2872  -0.025  -0.30002  -0.541605  -0.022653  2.303168  -0.037
O  O53  1  0.96189521  0.26757710  0.35527584  1  -0.675474  0.001283  1.997339  0.001  -0.623144  0.000767  2.232301  0.0  -0.647391  0.000868  2.222373  0.001  -0.338351  -0.604725  0.000777  2.238283  0.0
O  O54  1  0.03810846  0.73242584  0.64472618  1  -0.675553  0.001281  1.997367  0.001  -0.623147  0.000768  2.23238  0.0  -0.647392  0.000867  2.222454  0.001  -0.338382  -0.604731  0.000777  2.238365  0.0
