# generated using pymatgen
data_AgH9C6N3ClO4
_symmetry_space_group_name_H-M   'P 1'
_cell_length_a   8.33798144
_cell_length_b   9.97171269
_cell_length_c   12.42527780
_cell_angle_alpha   89.99999991
_cell_angle_beta   90.00006129
_cell_angle_gamma   98.41551814
_symmetry_Int_Tables_number   1
_chemical_formula_structural   AgH9C6N3ClO4
_chemical_formula_sum   'Ag4 H36 C24 N12 Cl4 O16'
_cell_volume   1021.96321930
_cell_formula_units_Z   4
loop_
 _symmetry_equiv_pos_site_id
 _symmetry_equiv_pos_as_xyz
  1  'x, y, z'
loop_
 _atom_site_type_symbol
 _atom_site_label
 _atom_site_symmetry_multiplicity
 _atom_site_fract_x
 _atom_site_fract_y
 _atom_site_fract_z
 _atom_site_occupancy
 _atom_site_hle17_bader_spin_density
 _atom_site_hle17_ddec_charge
 _atom_site_hle17_ddec_spin_density
 _atom_site_hle17_ddec_sum_bond_order
 _atom_site_hle17_magmom
 _atom_site_hse06_10hf_bader_spin_density
 _atom_site_hse06_10hf_ddec_charge
 _atom_site_hse06_10hf_ddec_spin_density
 _atom_site_hse06_10hf_ddec_sum_bond_order
 _atom_site_hse06_10hf_magmom
 _atom_site_hse06_bader_spin_density
 _atom_site_hse06_ddec_charge
 _atom_site_hse06_ddec_spin_density
 _atom_site_hse06_ddec_sum_bond_order
 _atom_site_hse06_magmom
 _atom_site_pbe_bader_spin_density
 _atom_site_pbe_cm5_charge
 _atom_site_pbe_ddec_charge
 _atom_site_pbe_ddec_spin_density
 _atom_site_pbe_ddec_sum_bond_order
 _atom_site_pbe_magmom
Ag  Ag0  1  0.77368799  0.78296756  0.89983287  1  0  0.621334  0  1.506437  0  0  0.501335  0  1.963385  0  0  0.521993  0  1.917808  0  0  0.533297  0.487603  0  1.994613  0
Ag  Ag1  1  0.27368732  0.28296669  0.60016696  1  0  0.621324  0  1.506443  0  0  0.501347  0  1.963378  0  0  0.522004  0  1.917804  0  0  0.533288  0.487615  0  1.994603  0
Ag  Ag2  1  0.22631646  0.21703012  0.10016605  1  0  0.621321  0  1.506535  0  0  0.501325  0  1.963483  0  0  0.521979  0  1.917908  0  0  0.533294  0.487596  0  1.994706  0
Ag  Ag3  1  0.72631274  0.71703310  0.39982713  1  0  0.621289  0  1.506459  0  0  0.501309  0  1.963383  0  0  0.521965  0  1.917806  0  0  0.533278  0.487573  0  1.994607  0
H  H4  1  0.75469742  0.17060936  0.77650202  1  0  0.06704  0  0.959924  0  0  0.080606  0  1.025335  0  0  0.080889  0  1.025951  0  0  0.097253  0.080228  0  1.025135  0
H  H5  1  0.25470234  0.67061007  0.72349940  1  0  0.066963  0  0.95996  0  0  0.080552  0  1.02534  0  0  0.080833  0  1.025959  0  0  0.097217  0.080173  0  1.025145  0
H  H6  1  0.24529786  0.82939050  0.22350092  1  0  0.067011  0  0.959981  0  0  0.080583  0  1.025365  0  0  0.080865  0  1.025983  0  0  0.097243  0.080204  0  1.025167  0
H  H7  1  0.74529872  0.32938868  0.27649951  1  0  0.066975  0  0.959909  0  0  0.080559  0  1.025298  0  0  0.080841  0  1.025917  0  0  0.097218  0.08018  0  1.025106  0
H  H8  1  0.58160962  0.04641414  0.79384000  1  0  0.083934  0  0.956328  0  0  0.099365  0  1.017824  0  0  0.100104  0  1.018064  0  0  0.106812  0.098745  0  1.017743  0
H  H9  1  0.08161272  0.54641793  0.70616130  1  0  0.083904  0  0.956265  0  0  0.099349  0  1.017742  0  0  0.100086  0  1.017984  0  0  0.106808  0.098728  0  1.017658  0
H  H10  1  0.41838645  0.95358368  0.20616374  1  0  0.083926  0  0.956367  0  0  0.099369  0  1.017836  0  0  0.100107  0  1.018077  0  0  0.106805  0.098748  0  1.017755  0
H  H11  1  0.91838993  0.45358283  0.29383601  1  0  0.083885  0  0.956345  0  0  0.09934  0  1.017807  0  0  0.100079  0  1.018048  0  0  0.1068  0.098719  0  1.017728  0
H  H12  1  0.67681658  0.99746249  0.98057308  1  0  0.110256  0  0.93422  0  0  0.121565  0  1.005347  0  0  0.124659  0  1.001081  0  0  0.109262  0.119144  0  1.008688  0
H  H13  1  0.17681639  0.49746464  0.51942667  1  0  0.110228  0  0.934174  0  0  0.121553  0  1.005287  0  0  0.124643  0  1.001026  0  0  0.109252  0.119141  0  1.008628  0
H  H14  1  0.32318527  0.00253422  0.01942825  1  0  0.110247  0  0.934177  0  0  0.121574  0  1.005291  0  0  0.124669  0  1.001021  0  0  0.10925  0.119157  0  1.008635  0
H  H15  1  0.82318766  0.50253712  0.48057144  1  0  0.110236  0  0.934193  0  0  0.121557  0  1.005316  0  0  0.124648  0  1.001046  0  0  0.109255  0.119144  0  1.008657  0
H  H16  1  0.62842746  0.16306562  0.96062985  1  0  0.13458  0  0.915777  0  0  0.152339  0  0.967162  0  0  0.152978  0  0.967946  0  0  0.122583  0.151848  0  0.966766  0
H  H17  1  0.12842790  0.66306940  0.53936987  1  0  0.134533  0  0.915777  0  0  0.152305  0  0.967166  0  0  0.152938  0  0.967949  0  0  0.122575  0.151821  0  0.966773  0
H  H18  1  0.37157578  0.83693208  0.03937309  1  0  0.134503  0  0.915888  0  0  0.152305  0  0.967229  0  0  0.15294  0  0.968012  0  0  0.122576  0.151819  0  0.966834  0
H  H19  1  0.87157914  0.33693535  0.46062743  1  0  0.134515  0  0.915844  0  0  0.1523  0  0.967208  0  0  0.152933  0  0.967992  0  0  0.122572  0.151815  0  0.966816  0
H  H20  1  0.82356102  0.84266987  0.64540074  1  0  0.080853  0  0.933658  0  0  0.094573  0  1.001814  0  0  0.095639  0  1.000765  0  0  0.106239  0.093689  0  1.002743  0
H  H21  1  0.32356377  0.34267206  0.85460072  1  0  0.080861  0  0.933669  0  0  0.094588  0  1.001818  0  0  0.095655  0  1.000769  0  0  0.106233  0.093703  0  1.002752  0
H  H22  1  0.17643585  0.15733200  0.35459897  1  0  0.080946  0  0.933678  0  0  0.094661  0  1.001793  0  0  0.095727  0  1.000744  0  0  0.106272  0.093778  0  1.002714  0
H  H23  1  0.67643609  0.65732671  0.14539900  1  0  0.080877  0  0.933699  0  0  0.094603  0  1.001835  0  0  0.095668  0  1.000787  0  0  0.106236  0.093722  0  1.002766  0
H  H24  1  0.62053069  0.86506181  0.67464428  1  0  0.082546  0  0.917592  0  0  0.098127  0  0.980915  0  0  0.098589  0  0.981184  0  0  0.107809  0.097773  0  0.980716  0
H  H25  1  0.12053339  0.36506399  0.82535623  1  0  0.082598  0  0.91755  0  0  0.098158  0  0.980917  0  0  0.098622  0  0.981184  0  0  0.107831  0.097803  0  0.980715  0
H  H26  1  0.37946817  0.13493800  0.32535544  1  0  0.082645  0  0.91754  0  0  0.098213  0  0.980839  0  0  0.098674  0  0.981107  0  0  0.107846  0.097854  0  0.980642  0
H  H27  1  0.87946787  0.63493578  0.17464268  1  0  0.082584  0  0.917567  0  0  0.098152  0  0.980917  0  0  0.098614  0  0.981183  0  0  0.107822  0.097799  0  0.980716  0
H  H28  1  0.66233750  0.09830180  0.60451147  1  0  0.135606  0  0.919496  0  0  0.150661  0  0.973977  0  0  0.151703  0  0.974748  0  0  0.120393  0.149947  0  0.973495  0
H  H29  1  0.16233532  0.59830165  0.89548989  1  0  0.135643  0  0.919454  0  0  0.150676  0  0.973954  0  0  0.15172  0  0.974722  0  0  0.120379  0.149961  0  0.97347  0
H  H30  1  0.33766078  0.90170107  0.39548906  1  0  0.135611  0  0.919525  0  0  0.150642  0  0.974033  0  0  0.151681  0  0.974803  0  0  0.120397  0.14993  0  0.973553  0
H  H31  1  0.83766095  0.40169718  0.10450983  1  0  0.135592  0  0.919488  0  0  0.150641  0  0.973977  0  0  0.151683  0  0.974749  0  0  0.120402  0.149928  0  0.973496  0
H  H32  1  0.71403540  0.98397922  0.50611126  1  0  0.132791  0  0.945832  0  0  0.14281  0  1.013008  0  0  0.145115  0  1.011355  0  0  0.114404  0.141101  0  1.014358  0
H  H33  1  0.21403817  0.48398042  0.99388932  1  0  0.132796  0  0.945868  0  0  0.142776  0  1.013062  0  0  0.14508  0  1.011411  0  0  0.114332  0.141067  0  1.014409  0
H  H34  1  0.28595888  0.01602168  0.49388846  1  0  0.132791  0  0.945835  0  0  0.142784  0  1.013024  0  0  0.145084  0  1.011372  0  0  0.114357  0.141079  0  1.01437  0
H  H35  1  0.78596308  0.51601935  0.00610879  1  0  0.132741  0  0.945822  0  0  0.142746  0  1.013024  0  0  0.145051  0  1.01137  0  0  0.114348  0.141038  0  1.014376  0
H  H36  1  0.91938120  0.99706733  0.77951126  1  0  0.24695  0  0.946273  0  0  0.238896  0  1.003368  0  0  0.243176  0  1.001812  0  0  0.2826  0.235872  0  1.004442  0
H  H37  1  0.41938093  0.49706750  0.72048947  1  0  0.246945  0  0.946262  0  0  0.238894  0  1.00337  0  0  0.243175  0  1.001813  0  0  0.282607  0.235871  0  1.004444  0
H  H38  1  0.08061667  0.00293351  0.22048846  1  0  0.247006  0  0.94617  0  0  0.238939  0  1.003301  0  0  0.243219  0  1.001745  0  0  0.282613  0.235916  0  1.004376  0
H  H39  1  0.58061893  0.50293128  0.27951025  1  0  0.246932  0  0.946272  0  0  0.238878  0  1.00337  0  0  0.243158  0  1.001815  0  0  0.282605  0.235854  0  1.004445  0
C  C40  1  0.70918176  0.07398139  0.81608985  1  0  0.028687  0  3.638524  0  0  -0.024772  0  3.888735  0  0  -0.021686  0  3.902019  0  0  -0.076247  -0.026749  0  3.879718  0
C  C41  1  0.20918562  0.57398312  0.68391315  1  0  0.028794  0  3.638491  0  0  -0.024651  0  3.88868  0  0  -0.021569  0  3.901965  0  0  -0.076166  -0.026624  0  3.879686  0
C  C42  1  0.29081551  0.92601641  0.18391308  1  0  0.028702  0  3.638593  0  0  -0.024742  0  3.888785  0  0  -0.021663  0  3.90207  0  0  -0.076209  -0.026714  0  3.87978  0
C  C43  1  0.79081803  0.42601661  0.31608818  1  0  0.028825  0  3.638448  0  0  -0.024611  0  3.888584  0  0  -0.021535  0  3.901868  0  0  -0.076132  -0.026573  0  3.879564  0
C  C44  1  0.71443852  0.09416734  0.93809357  1  0  -0.196637  0  3.752296  0  0  -0.231521  0  3.993279  0  0  -0.233806  0  4.001662  0  0  -0.131073  -0.229941  0  3.988035  0
C  C45  1  0.21443999  0.59417010  0.56190944  1  0  -0.196548  0  3.752066  0  0  -0.231472  0  3.993102  0  0  -0.233733  0  4.001443  0  0  -0.131075  -0.229937  0  3.987907  0
C  C46  1  0.28556213  0.90582939  0.06191018  1  0  -0.196578  0  3.752105  0  0  -0.23152  0  3.99311  0  0  -0.233785  0  4.001459  0  0  -0.13109  -0.229967  0  3.987897  0
C  C47  1  0.78556525  0.40583164  0.43809189  1  0  -0.196555  0  3.752276  0  0  -0.231509  0  3.993335  0  0  -0.233765  0  4.001673  0  0  -0.131113  -0.22997  0  3.988138  0
C  C48  1  0.87240436  0.15118080  0.97863839  1  0  0.404559  0  3.627152  0  0  0.384028  0  3.905034  0  0  0.397986  0  3.920275  0  0  0.220917  0.374377  0  3.894982  0
C  C49  1  0.37240835  0.65118452  0.52136151  1  0  0.404544  0  3.627298  0  0  0.384013  0  3.905206  0  0  0.397962  0  3.920438  0  0  0.220905  0.374374  0  3.895165  0
C  C50  1  0.12759371  0.84881495  0.02136133  1  0  0.404624  0  3.627332  0  0  0.384094  0  3.905236  0  0  0.39804  0  3.920473  0  0  0.220936  0.374452  0  3.895191  0
C  C51  1  0.62760188  0.34881815  0.47863741  1  0  0.404566  0  3.627182  0  0  0.384047  0  3.905083  0  0  0.397997  0  3.920312  0  0  0.220955  0.374404  0  3.895043  0
C  C52  1  0.74601872  0.91647594  0.67076675  1  0  0.040676  0  3.625188  0  0  -0.02422  0  3.896414  0  0  -0.01956  0  3.907678  0  0  -0.067911  -0.027219  0  3.888545  0
C  C53  1  0.24602123  0.41647711  0.82923225  1  0  0.040624  0  3.625161  0  0  -0.024283  0  3.896402  0  0  -0.019621  0  3.907668  0  0  -0.06795  -0.027291  0  3.888551  0
C  C54  1  0.25397795  0.08352492  0.32923378  1  0  0.040361  0  3.62528  0  0  -0.024466  0  3.896415  0  0  -0.019805  0  3.907671  0  0  -0.067995  -0.027462  0  3.88856  0
C  C55  1  0.75398003  0.58352266  0.17076425  1  0  0.04061  0  3.625208  0  0  -0.024303  0  3.896449  0  0  -0.019639  0  3.907704  0  0  -0.067898  -0.027297  0  3.888568  0
C  C56  1  0.74996511  0.02951654  0.58483548  1  0  -0.227257  0  3.720271  0  0  -0.253843  0  3.951423  0  0  -0.25834  0  3.96197  0  0  -0.136346  -0.250795  0  3.944621  0
C  C57  1  0.24996855  0.52952037  0.91516514  1  0  -0.227327  0  3.720363  0  0  -0.253821  0  3.951449  0  0  -0.258328  0  3.962013  0  0  -0.136221  -0.250761  0  3.944631  0
C  C58  1  0.25003216  0.97048126  0.41516585  1  0  -0.227174  0  3.720242  0  0  -0.253716  0  3.95133  0  0  -0.258199  0  3.961863  0  0  -0.136285  -0.250677  0  3.944537  0
C  C59  1  0.75003351  0.47048345  0.08483458  1  0  -0.227097  0  3.720252  0  0  -0.253658  0  3.951388  0  0  -0.258158  0  3.961943  0  0  -0.136279  -0.25061  0  3.944593  0
C  C60  1  0.90802884  0.10948524  0.57390299  1  0  0.419286  0  3.635312  0  0  0.395969  0  3.915038  0  0  0.411274  0  3.929948  0  0  0.223207  0.385417  0  3.905212  0
C  C61  1  0.40802772  0.60949016  0.92609774  1  0  0.419303  0  3.635487  0  0  0.395964  0  3.915218  0  0  0.411271  0  3.930133  0  0  0.223207  0.385412  0  3.905393  0
C  C62  1  0.09197142  0.89051556  0.42609593  1  0  0.419273  0  3.635395  0  0  0.395954  0  3.915123  0  0  0.411256  0  3.930027  0  0  0.223185  0.385403  0  3.905302  0
C  C63  1  0.59197314  0.39051368  0.07390037  1  0  0.419138  0  3.635536  0  0  0.39581  0  3.915277  0  0  0.411114  0  3.93019  0  0  0.223152  0.385259  0  3.905454  0
N  N64  1  0.79668781  0.96382823  0.77953858  1  0  -0.419365  0  3.254837  0  0  -0.340672  0  3.517417  0  0  -0.359867  0  3.528766  0  0  -0.492722  -0.327016  0  3.50879  0
N  N65  1  0.29668794  0.46383043  0.72046126  1  0  -0.419346  0  3.254982  0  0  -0.340695  0  3.517595  0  0  -0.359895  0  3.528954  0  0  -0.492727  -0.327042  0  3.508958  0
N  N66  1  0.20331106  0.03617158  0.22046033  1  0  -0.419335  0  3.254851  0  0  -0.340676  0  3.517399  0  0  -0.359868  0  3.528744  0  0  -0.492703  -0.327021  0  3.508766  0
N  N67  1  0.70331232  0.53617038  0.27953685  1  0  -0.419373  0  3.254846  0  0  -0.340689  0  3.517422  0  0  -0.359886  0  3.528783  0  0  -0.492783  -0.327032  0  3.508797  0
N  N68  1  0.00004049  0.19788447  0.00955471  1  0  -0.449557  0  2.908553  0  0  -0.399596  0  3.210374  0  0  -0.414659  0  3.213622  0  0  -0.349879  -0.389829  0  3.208576  0
N  N69  1  0.50004011  0.69788539  0.49044474  1  0  -0.449586  0  2.908794  0  0  -0.399605  0  3.210581  0  0  -0.41467  0  3.213837  0  0  -0.349879  -0.389836  0  3.208772  0
N  N70  1  0.99996515  0.80211319  0.99044822  1  0  -0.449611  0  2.908914  0  0  -0.399637  0  3.210721  0  0  -0.414703  0  3.213981  0  0  -0.349873  -0.389867  0  3.208914  0
N  N71  1  0.49996493  0.30211533  0.50955337  1  0  -0.449573  0  2.908549  0  0  -0.399612  0  3.210346  0  0  -0.414679  0  3.213605  0  0  -0.349874  -0.389842  0  3.208538  0
N  N72  1  0.03562263  0.17425665  0.56850400  1  0  -0.467636  0  2.943208  0  0  -0.419563  0  3.262756  0  0  -0.434921  0  3.263486  0  0  -0.358978  -0.409533  0  3.262578  0
N  N73  1  0.53562235  0.67425857  0.93149566  1  0  -0.467647  0  2.943295  0  0  -0.419569  0  3.262866  0  0  -0.434926  0  3.263595  0  0  -0.358996  -0.409538  0  3.262693  0
N  N74  1  0.96437664  0.82574518  0.43149572  1  0  -0.467639  0  2.943243  0  0  -0.419564  0  3.262793  0  0  -0.434923  0  3.263526  0  0  -0.358967  -0.409534  0  3.262617  0
N  N75  1  0.46437831  0.32574426  0.06850084  1  0  -0.467551  0  2.943419  0  0  -0.419466  0  3.262954  0  0  -0.434823  0  3.263685  0  0  -0.358934  -0.409434  0  3.262775  0
Cl  Cl76  1  0.74751679  0.46843590  0.75603406  1  0  1.373949  0  6.200289  0  0  1.311944  0  6.765607  0  0  1.364305  0  6.742235  0  0  0.721089  1.275715  0  6.780292  0
Cl  Cl77  1  0.24751557  0.96843570  0.74396896  1  0  1.374052  0  6.200243  0  0  1.312039  0  6.765577  0  0  1.364399  0  6.742207  0  0  0.721165  1.27581  0  6.780263  0
Cl  Cl78  1  0.25248725  0.53155976  0.24396646  1  0  1.374151  0  6.199912  0  0  1.312173  0  6.765179  0  0  1.364533  0  6.741802  0  0  0.721181  1.275946  0  6.779872  0
Cl  Cl79  1  0.75247632  0.03156524  0.25603076  1  0  1.374221  0  6.199857  0  0  1.312285  0  6.765053  0  0  1.364641  0  6.741685  0  0  0.721275  1.276057  0  6.779744  0
O  O80  1  0.83604160  0.38407661  0.68853782  1  0  -0.542585  0  1.857493  0  0  -0.511238  0  2.099442  0  0  -0.528983  0  2.089355  0  0  -0.310014  -0.498711  0  2.10571  0
O  O81  1  0.33604069  0.88407743  0.81145802  1  0  -0.542545  0  1.857653  0  0  -0.511151  0  2.099555  0  0  -0.528893  0  2.089473  0  0  -0.30995  -0.498624  0  2.105826  0
O  O82  1  0.16395387  0.61591817  0.31145949  1  0  -0.542609  0  1.857414  0  0  -0.511278  0  2.099374  0  0  -0.529017  0  2.089286  0  0  -0.309993  -0.498737  0  2.105615  0
O  O83  1  0.66395100  0.11592249  0.18854169  1  0  -0.542687  0  1.857686  0  0  -0.511299  0  2.099571  0  0  -0.529038  0  2.089484  0  0  -0.310025  -0.498771  0  2.105843  0
O  O84  1  0.86322554  0.54827675  0.82950530  1  0  -0.568233  0  1.89436  0  0  -0.533404  0  2.156224  0  0  -0.549644  0  2.139905  0  0  -0.318825  -0.521878  0  2.166906  0
O  O85  1  0.36321663  0.04828213  0.67049620  1  0  -0.568286  0  1.894341  0  0  -0.5335  0  2.15625  0  0  -0.549741  0  2.139927  0  0  -0.318893  -0.521982  0  2.166947  0
O  O86  1  0.13678108  0.45170768  0.17049845  1  0  -0.568299  0  1.894171  0  0  -0.533517  0  2.156066  0  0  -0.549758  0  2.139744  0  0  -0.318897  -0.521996  0  2.166749  0
O  O87  1  0.63677746  0.95172386  0.32950754  1  0  -0.568244  0  1.894309  0  0  -0.533457  0  2.156185  0  0  -0.5497  0  2.139866  0  0  -0.318835  -0.521932  0  2.166866  0
O  O88  1  0.67005477  0.56097055  0.68856995  1  0  -0.552792  0  1.849419  0  0  -0.527868  0  2.098345  0  0  -0.544118  0  2.086016  0  0  -0.314906  -0.516549  0  2.106399  0
O  O89  1  0.17004069  0.06096079  0.81143141  1  0  -0.552852  0  1.849784  0  0  -0.527905  0  2.098688  0  0  -0.544157  0  2.086363  0  0  -0.314919  -0.516583  0  2.106742  0
O  O90  1  0.32995865  0.43903614  0.31143540  1  0  -0.552888  0  1.849501  0  0  -0.527954  0  2.098407  0  0  -0.544204  0  2.086076  0  0  -0.31498  -0.516639  0  2.106464  0
O  O91  1  0.82994442  0.93903619  0.18857072  1  0  -0.552906  0  1.849476  0  0  -0.528002  0  2.09841  0  0  -0.544251  0  2.086078  0  0  -0.314977  -0.516683  0  2.10647  0
O  O92  1  0.62447894  0.38315322  0.81894046  1  0  -0.53896  0  1.854826  0  0  -0.505518  0  2.093445  0  0  -0.522816  0  2.08303  0  0  -0.308975  -0.493233  0  2.100071  0
O  O93  1  0.12447302  0.88314800  0.68105443  1  0  -0.538996  0  1.854424  0  0  -0.50558  0  2.09306  0  0  -0.522877  0  2.082646  0  0  -0.309033  -0.493294  0  2.099686  0
O  O94  1  0.37551952  0.61684456  0.18105765  1  0  -0.53897  0  1.854721  0  0  -0.505513  0  2.093313  0  0  -0.522815  0  2.0829  0  0  -0.308938  -0.493232  0  2.09994  0
O  O95  1  0.87552126  0.11685290  0.31894127  1  0  -0.539016  0  1.854291  0  0  -0.505642  0  2.092925  0  0  -0.522941  0  2.082515  0  0  -0.309071  -0.493359  0  2.09955  0
