# generated using pymatgen
data_NaH7C9O7
_symmetry_space_group_name_H-M   'P 1'
_cell_length_a   6.98889130
_cell_length_b   7.03789602
_cell_length_c   10.59532898
_cell_angle_alpha   88.15109019
_cell_angle_beta   83.11446780
_cell_angle_gamma   66.71840639
_symmetry_Int_Tables_number   1
_chemical_formula_structural   NaH7C9O7
_chemical_formula_sum   'Na2 H14 C18 O14'
_cell_volume   475.19963690
_cell_formula_units_Z   2
loop_
 _symmetry_equiv_pos_site_id
 _symmetry_equiv_pos_as_xyz
  1  'x, y, z'
loop_
 _atom_site_type_symbol
 _atom_site_label
 _atom_site_symmetry_multiplicity
 _atom_site_fract_x
 _atom_site_fract_y
 _atom_site_fract_z
 _atom_site_occupancy
 _atom_site_hle17_bader_spin_density
 _atom_site_hle17_ddec_charge
 _atom_site_hle17_ddec_spin_density
 _atom_site_hle17_ddec_sum_bond_order
 _atom_site_hle17_magmom
 _atom_site_hse06_10hf_bader_spin_density
 _atom_site_hse06_10hf_ddec_charge
 _atom_site_hse06_10hf_ddec_spin_density
 _atom_site_hse06_10hf_ddec_sum_bond_order
 _atom_site_hse06_10hf_magmom
 _atom_site_hse06_bader_spin_density
 _atom_site_hse06_ddec_charge
 _atom_site_hse06_ddec_spin_density
 _atom_site_hse06_ddec_sum_bond_order
 _atom_site_hse06_magmom
 _atom_site_pbe_bader_spin_density
 _atom_site_pbe_cm5_charge
 _atom_site_pbe_ddec_charge
 _atom_site_pbe_ddec_spin_density
 _atom_site_pbe_ddec_sum_bond_order
 _atom_site_pbe_magmom
Na  Na0  1  0.78377259  0.17973211  0.08760846  1  0  0.896768  0  0.384134  0  0  0.846932  0  0.543739  0  0  0.859186  0  0.520009  0  0  0.676159  0.837447  0  0.56131  0
Na  Na1  1  0.21622523  0.82026940  0.91239094  1  0  0.896771  0  0.384115  0  0  0.846935  0  0.543726  0  0  0.859186  0  0.519997  0  0  0.676154  0.837452  0  0.561295  0
H  H2  1  0.69929700  0.23559093  0.64714397  1  0  0.107473  0  0.9454  0  0  0.117144  0  1.008247  0  0  0.120651  0  1.00576  0  0  0.111361  0.114493  0  1.010314  0
H  H3  1  0.30070411  0.76440594  0.35285529  1  0  0.10747  0  0.945385  0  0  0.117138  0  1.00824  0  0  0.120644  0  1.005754  0  0  0.111339  0.114487  0  1.010305  0
H  H4  1  0.24506838  0.26618487  0.39927241  1  0  0.106159  0  0.953094  0  0  0.113488  0  1.019364  0  0  0.117532  0  1.016116  0  0  0.10838  0.110361  0  1.022165  0
H  H5  1  0.75493067  0.73381356  0.60072792  1  0  0.106136  0  0.9531  0  0  0.113466  0  1.019369  0  0  0.117508  0  1.01612  0  0  0.108374  0.110339  0  1.022169  0
H  H6  1  0.97622017  0.31941320  0.58611192  1  0  0.103348  0  0.966849  0  0  0.111036  0  1.033597  0  0  0.114584  0  1.031442  0  0  0.104855  0.108377  0  1.035332  0
H  H7  1  0.02377847  0.68058987  0.41388738  1  0  0.10336  0  0.966884  0  0  0.111053  0  1.033607  0  0  0.114592  0  1.031476  0  0  0.104866  0.108392  0  1.035343  0
H  H8  1  0.76473007  0.52449156  0.93146446  1  0  0.419987  0  0.875043  0  0  0.383972  0  0.958358  0  0  0.398391  0  0.938182  0  0  0.310397  0.373953  0  0.968845  0
H  H9  1  0.23526981  0.47550842  0.06853576  1  0  0.419995  0  0.875056  0  0  0.383977  0  0.958377  0  0  0.398397  0  0.938181  0  0  0.310403  0.373959  0  0.968862  0
H  H10  1  0.93398556  0.16401826  0.33875744  1  0  0.415168  0  0.879306  0  0  0.38529  0  0.952357  0  0  0.397254  0  0.93562  0  0  0.304244  0.376912  0  0.96164  0
H  H11  1  0.06601452  0.83598481  0.66124174  1  0  0.415133  0  0.879136  0  0  0.38525  0  0.952365  0  0  0.397216  0  0.935624  0  0  0.304226  0.376874  0  0.961502  0
H  H12  1  0.20143490  0.01580498  0.17756851  1  0  0.432741  0  0.869652  0  0  0.399563  0  0.936421  0  0  0.410811  0  0.920186  0  0  0.294951  0.391688  0  0.947749  0
H  H13  1  0.79856292  0.98419656  0.82243278  1  0  0.432703  0  0.869691  0  0  0.399522  0  0.936467  0  0  0.410768  0  0.920233  0  0  0.29493  0.391645  0  0.947797  0
H  H14  1  0.10965002  0.26211849  0.19519129  1  0  0.423172  0  0.876257  0  0  0.392308  0  0.938947  0  0  0.402639  0  0.92372  0  0  0.301322  0.385025  0  0.949682  0
H  H15  1  0.89035068  0.73788302  0.80480787  1  0  0.423181  0  0.876245  0  0  0.392313  0  0.938942  0  0  0.402644  0  0.923716  0  0  0.301328  0.38503  0  0.949677  0
C  C16  1  0.18639819  0.31095749  0.72253933  1  0  -0.055608  0  3.70664  0  0  -0.046068  0  3.943316  0  0  -0.048482  0  3.961979  0  0  0.00175  -0.04438  0  3.930623  0
C  C17  1  0.81360107  0.68904403  0.27746090  1  0  -0.055618  0  3.70673  0  0  -0.046109  0  3.943399  0  0  -0.048529  0  3.962052  0  0  0.001736  -0.044418  0  3.930702  0
C  C18  1  0.39190000  0.28533446  0.73997329  1  0  -0.069976  0  3.714884  0  0  -0.056828  0  3.952876  0  0  -0.062408  0  3.972415  0  0  -0.002584  -0.053218  0  3.939704  0
C  C19  1  0.60809844  0.71466552  0.26002799  1  0  -0.07  0  3.714937  0  0  -0.056844  0  3.952945  0  0  -0.062423  0  3.972483  0  0  -0.002628  -0.053235  0  3.939774  0
C  C20  1  0.54085862  0.25393786  0.63416444  1  0  -0.057973  0  3.678915  0  0  -0.094847  0  3.93185  0  0  -0.09299  0  3.95006  0  0  -0.070038  -0.096024  0  3.919801  0
C  C21  1  0.45914311  0.74605747  0.36583480  1  0  -0.0579  0  3.678958  0  0  -0.094792  0  3.931897  0  0  -0.092932  0  3.950106  0  0  -0.069967  -0.095973  0  3.91986  0
C  C22  1  0.48677893  0.25002017  0.51148641  1  0  -0.078908  0  3.772858  0  0  -0.055985  0  4.008909  0  0  -0.065049  0  4.033679  0  0  -0.015678  -0.050047  0  3.992345  0
C  C23  1  0.51322424  0.74997517  0.48851367  1  0  -0.078989  0  3.772954  0  0  -0.056038  0  4.008977  0  0  -0.065105  0  4.033757  0  0  -0.015683  -0.0501  0  3.992415  0
C  C24  1  0.28300543  0.27370502  0.49519993  1  0  -0.041962  0  3.699102  0  0  -0.069406  0  3.952054  0  0  -0.068257  0  3.970978  0  0  -0.072896  -0.070117  0  3.939493  0
C  C25  1  0.71699630  0.72629033  0.50480120  1  0  -0.041886  0  3.699142  0  0  -0.069342  0  3.952096  0  0  -0.068188  0  3.971019  0  0  -0.07291  -0.070053  0  3.939536  0
C  C26  1  0.13336420  0.30409297  0.60018703  1  0  -0.075423  0  3.712556  0  0  -0.100022  0  3.969238  0  0  -0.102485  0  3.988449  0  0  -0.081416  -0.098364  0  3.9562  0
C  C27  1  0.86663218  0.69590856  0.39981437  1  0  -0.075476  0  3.712614  0  0  -0.100063  0  3.969299  0  0  -0.10253  0  3.988506  0  0  -0.081433  -0.098406  0  3.95626  0
C  C28  1  0.02823250  0.33054451  0.83538495  1  0  0.697045  0  3.780744  0  0  0.643639  0  4.081653  0  0  0.677234  0  4.07108  0  0  0.24898  0.620772  0  4.088186  0
C  C29  1  0.97176655  0.66945394  0.16461726  1  0  0.697032  0  3.780827  0  0  0.6437  0  4.081624  0  0  0.677324  0  4.071008  0  0  0.249045  0.620834  0  4.088153  0
C  C30  1  0.44507826  0.30471791  0.87102683  1  0  0.696738  0  3.874911  0  0  0.644562  0  4.175762  0  0  0.678678  0  4.165291  0  0  0.231507  0.621391  0  4.182149  0
C  C31  1  0.55492244  0.69528362  0.12897328  1  0  0.696748  0  3.874892  0  0  0.644577  0  4.175729  0  0  0.678692  0  4.165258  0  0  0.23152  0.621407  0  4.182115  0
C  C32  1  0.64170595  0.21742774  0.39635010  1  0  0.657669  0  3.839385  0  0  0.608522  0  4.138643  0  0  0.64047  0  4.132327  0  0  0.230438  0.586902  0  4.142319  0
C  C33  1  0.35829578  0.78256760  0.60365103  1  0  0.65771  0  3.83931  0  0  0.608566  0  4.13856  0  0  0.640512  0  4.132245  0  0  0.230445  0.586946  0  4.142237  0
O  O34  1  0.05424752  0.19068870  0.91357934  1  0  -0.622829  0  1.945778  0  0  -0.585678  0  2.184366  0  0  -0.605473  0  2.172401  0  0  -0.363443  -0.571682  0  2.192186  0
O  O35  1  0.94575050  0.80931590  0.08641808  1  0  -0.622825  0  1.945649  0  0  -0.58571  0  2.184223  0  0  -0.605516  0  2.172244  0  0  -0.363469  -0.571713  0  2.192041  0
O  O36  1  0.85768360  0.50486104  0.84047113  1  0  -0.568412  0  2.106177  0  0  -0.500784  0  2.317022  0  0  -0.526035  0  2.298614  0  0  -0.303231  -0.483244  0  2.32709  0
O  O37  1  0.14231566  0.49514047  0.15952816  1  0  -0.56842  0  2.106291  0  0  -0.50081  0  2.317101  0  0  -0.526075  0  2.29867  0  0  -0.303276  -0.483276  0  2.327173  0
O  O38  1  0.59419878  0.21379406  0.28788236  1  0  -0.610195  0  1.92825  0  0  -0.57361  0  2.15674  0  0  -0.592447  0  2.147647  0  0  -0.357796  -0.560792  0  2.163018  0
O  O39  1  0.40580357  0.78619972  0.71211687  1  0  -0.610202  0  1.928216  0  0  -0.573636  0  2.156734  0  0  -0.592474  0  2.147641  0  0  -0.3578  -0.560819  0  2.163013  0
O  O40  1  0.83216450  0.19177438  0.42165156  1  0  -0.561121  0  2.102245  0  0  -0.506076  0  2.322046  0  0  -0.529545  0  2.307748  0  0  -0.32854  -0.489568  0  2.329418  0
O  O41  1  0.16783908  0.80822713  0.57834738  1  0  -0.561068  0  2.102044  0  0  -0.506033  0  2.321979  0  0  -0.529495  0  2.307669  0  0  -0.328515  -0.489531  0  2.329249  0
O  O42  1  0.30711185  0.45677350  0.93780671  1  0  -0.687676  0  2.058833  0  0  -0.636545  0  2.304361  0  0  -0.661571  0  2.289691  0  0  -0.365203  -0.618702  0  2.31278  0
O  O43  1  0.69288802  0.54322649  0.06219445  1  0  -0.687672  0  2.058777  0  0  -0.636539  0  2.304291  0  0  -0.661567  0  2.289631  0  0  -0.365217  -0.618696  0  2.312711  0
O  O44  1  0.61516536  0.17917449  0.90636578  1  0  -0.655132  0  1.972389  0  0  -0.601468  0  2.198389  0  0  -0.624583  0  2.185521  0  0  -0.351673  -0.585398  0  2.206904  0
O  O45  1  0.38483596  0.82082549  0.09363432  1  0  -0.655137  0  1.972398  0  0  -0.601481  0  2.198398  0  0  -0.624594  0  2.185528  0  0  -0.351663  -0.585411  0  2.206911  0
O  O46  1  0.07526505  0.13983446  0.21296917  1  0  -0.871057  0  1.871145  0  0  -0.819136  0  2.051404  0  0  -0.838093  0  2.018178  0  0  -0.611828  -0.805777  0  2.074024  0
O  O47  1  0.92473071  0.86016859  0.78702941  1  0  -0.87104  0  1.871142  0  0  -0.819105  0  2.051434  0  0  -0.838065  0  2.01821  0  0  -0.611826  -0.805746  0  2.074026  0
