# generated using pymatgen
data_ZnH8C12(NO2)2
_symmetry_space_group_name_H-M   'P 1'
_cell_length_a   7.85981215
_cell_length_b   7.85977436
_cell_length_c   10.89445634
_cell_angle_alpha   103.82968482
_cell_angle_beta   103.82923465
_cell_angle_gamma   109.71716200
_symmetry_Int_Tables_number   1
_chemical_formula_structural   ZnH8C12(NO2)2
_chemical_formula_sum   'Zn2 H16 C24 N4 O8'
_cell_volume   576.34625441
_cell_formula_units_Z   2
loop_
 _symmetry_equiv_pos_site_id
 _symmetry_equiv_pos_as_xyz
  1  'x, y, z'
loop_
 _atom_site_type_symbol
 _atom_site_label
 _atom_site_symmetry_multiplicity
 _atom_site_fract_x
 _atom_site_fract_y
 _atom_site_fract_z
 _atom_site_occupancy
 _atom_site_hle17_bader_spin_density
 _atom_site_hle17_ddec_charge
 _atom_site_hle17_ddec_spin_density
 _atom_site_hle17_ddec_sum_bond_order
 _atom_site_hle17_magmom
 _atom_site_hse06_10hf_bader_spin_density
 _atom_site_hse06_10hf_ddec_charge
 _atom_site_hse06_10hf_ddec_spin_density
 _atom_site_hse06_10hf_ddec_sum_bond_order
 _atom_site_hse06_10hf_magmom
 _atom_site_hse06_bader_spin_density
 _atom_site_hse06_ddec_charge
 _atom_site_hse06_ddec_spin_density
 _atom_site_hse06_ddec_sum_bond_order
 _atom_site_hse06_magmom
 _atom_site_pbe_bader_spin_density
 _atom_site_pbe_cm5_charge
 _atom_site_pbe_ddec_charge
 _atom_site_pbe_ddec_spin_density
 _atom_site_pbe_ddec_sum_bond_order
 _atom_site_pbe_magmom
Zn  Zn0  1  0.55495272  0.55501008  0.99997410  1  0  0.971612  0  1.852507  0  0  0.777448  0  2.314495  0  0  0.827811  0  2.26085  0  0  0.687043  0.741912  0  2.351443  0
Zn  Zn1  1  0.80500987  0.30495696  0.49997812  1  0  0.971725  0  1.852375  0  0  0.77759  0  2.314335  0  0  0.82795  0  2.260694  0  0  0.687096  0.742057  0  2.351289  0
H  H2  1  0.54963503  0.93604319  0.03695372  1  0  0.090679  0  0.947407  0  0  0.096275  0  1.015844  0  0  0.09959  0  1.012493  0  0  0.120941  0.093794  0  1.01835  0
H  H3  1  0.89907717  0.51285027  0.96305448  1  0  0.091492  0  0.947071  0  0  0.097638  0  1.014758  0  0  0.100967  0  1.0114  0  0  0.121204  0.095015  0  1.017718  0
H  H4  1  0.76284665  0.64908165  0.46306244  1  0  0.091484  0  0.947155  0  0  0.097639  0  1.014851  0  0  0.100968  0  1.011491  0  0  0.121232  0.095023  0  1.017799  0
H  H5  1  0.18603521  0.29962015  0.53695438  1  0  0.090615  0  0.947447  0  0  0.096232  0  1.015869  0  0  0.099539  0  1.012522  0  0  0.120937  0.093749  0  1.018375  0
H  H6  1  0.47142470  0.03159982  0.65833222  1  0  0.129032  0  0.93652  0  0  0.137487  0  0.99822  0  0  0.141145  0  0.994674  0  0  0.116075  0.134673  0  1.000988  0
H  H7  1  0.37309458  0.81296367  0.34175905  1  0  0.129574  0  0.935636  0  0  0.137907  0  0.99746  0  0  0.141571  0  0.993897  0  0  0.116088  0.135211  0  1.000028  0
H  H8  1  0.06299257  0.12311493  0.84176106  1  0  0.129581  0  0.935769  0  0  0.137976  0  0.997504  0  0  0.14164  0  0.993947  0  0  0.116098  0.135278  0  1.000072  0
H  H9  1  0.28159735  0.22142803  0.15833295  1  0  0.129012  0  0.936496  0  0  0.137484  0  0.998172  0  0  0.14114  0  0.994629  0  0  0.116085  0.13467  0  1.000942  0
H  H10  1  0.45856859  0.70058284  0.55572491  1  0  0.107554  0  0.949302  0  0  0.116778  0  1.008975  0  0  0.119532  0  1.009429  0  0  0.108688  0.114859  0  1.008686  0
H  H11  1  0.14472333  0.90297593  0.44425354  1  0  0.106493  0  0.949889  0  0  0.116255  0  1.009118  0  0  0.118938  0  1.009662  0  0  0.108426  0.114048  0  1.009471  0
H  H12  1  0.15299851  0.89473662  0.94425313  1  0  0.106447  0  0.949949  0  0  0.116222  0  1.00917  0  0  0.118903  0  1.009714  0  0  0.10842  0.114015  0  1.009523  0
H  H13  1  0.95058162  0.20856435  0.05572953  1  0  0.107524  0  0.949357  0  0  0.116789  0  1.008988  0  0  0.119543  0  1.009438  0  0  0.108705  0.114864  0  1.008694  0
H  H14  1  0.50468905  0.50863242  0.70499196  1  0  0.104447  0  0.953794  0  0  0.110504  0  1.019491  0  0  0.11382  0  1.016226  0  0  0.12031  0.107951  0  1.022041  0
H  H15  1  0.80352829  0.79979481  0.29498370  1  0  0.103861  0  0.955135  0  0  0.110326  0  1.020472  0  0  0.1136  0  1.017252  0  0  0.120164  0.107781  0  1.023077  0
H  H16  1  0.04980476  0.55353373  0.79498354  1  0  0.103857  0  0.955158  0  0  0.110324  0  1.020492  0  0  0.113596  0  1.017275  0  0  0.12015  0.107788  0  1.023096  0
H  H17  1  0.75863097  0.25468283  0.20499670  1  0  0.10446  0  0.953841  0  0  0.110497  0  1.019553  0  0  0.113844  0  1.016252  0  0  0.120332  0.107946  0  1.022098  0
C  C18  1  0.53356603  0.88973445  0.93058256  1  0  0.111909  0  3.689537  0  0  0.070202  0  3.937161  0  0  0.078559  0  3.955382  0  0  0.052358  0.064874  0  3.925039  0
C  C19  1  0.95904038  0.60310675  0.06942104  1  0  0.108663  0  3.689237  0  0  0.066753  0  3.93637  0  0  0.075067  0  3.954645  0  0  0.052054  0.060858  0  3.925631  0
C  C20  1  0.85311059  0.70904971  0.56942520  1  0  0.108659  0  3.68939  0  0  0.066684  0  3.936558  0  0  0.075  0  3.954836  0  0  0.051964  0.060768  0  3.925852  0
C  C21  1  0.13972814  0.28355677  0.43058214  1  0  0.112022  0  3.689677  0  0  0.070355  0  3.93731  0  0  0.078718  0  3.955526  0  0  0.0524  0.065046  0  3.925154  0
C  C22  1  0.51117675  0.00664673  0.85540836  1  0  -0.111473  0  3.758387  0  0  -0.081877  0  3.988978  0  0  -0.095148  0  4.013354  0  0  -0.011503  -0.073596  0  3.972773  0
C  C23  1  0.15109655  0.65581261  0.14464888  1  0  -0.108775  0  3.759781  0  0  -0.079236  0  3.990452  0  0  -0.092565  0  4.015007  0  0  -0.011217  -0.070589  0  3.974085  0
C  C24  1  0.90582822  0.90110792  0.64465510  1  0  -0.108667  0  3.759699  0  0  -0.079089  0  3.990364  0  0  -0.092421  0  4.014923  0  0  -0.011211  -0.070437  0  3.973987  0
C  C25  1  0.25664485  0.26117719  0.35540791  1  0  -0.111509  0  3.758446  0  0  -0.082026  0  3.989171  0  0  -0.095294  0  4.013543  0  0  -0.011496  -0.073745  0  3.972969  0
C  C26  1  0.48582418  0.94054881  0.71829203  1  0  0.00449  0  3.632177  0  0  -0.026283  0  3.876645  0  0  -0.01957  0  3.892474  0  0  -0.052823  -0.030225  0  3.865809  0
C  C27  1  0.22215164  0.76756677  0.28176660  1  0  0.002619  0  3.632121  0  0  -0.028206  0  3.877082  0  0  -0.021454  0  3.892857  0  0  -0.053102  -0.032278  0  3.865878  0
C  C28  1  0.01758650  0.97216255  0.78176849  1  0  0.002552  0  3.6322  0  0  -0.02832  0  3.877134  0  0  -0.021573  0  3.892915  0  0  -0.053034  -0.032386  0  3.86592  0
C  C29  1  0.19054716  0.23582983  0.21829295  1  0  0.004443  0  3.632249  0  0  -0.026308  0  3.876758  0  0  -0.019594  0  3.892583  0  0  -0.052868  -0.030252  0  3.865928  0
C  C30  1  0.47979597  0.75825993  0.66234470  1  0  -0.124726  0  3.730179  0  0  -0.13601  0  3.987151  0  0  -0.145339  0  4.01037  0  0  -0.082724  -0.129999  0  3.971202  0
C  C31  1  0.09579077  0.81760441  0.33764138  1  0  -0.123497  0  3.728316  0  0  -0.134939  0  3.985431  0  0  -0.144214  0  4.008666  0  0  -0.082742  -0.128875  0  3.970051  0
C  C32  1  0.06762584  0.84580383  0.83764631  1  0  -0.123438  0  3.728364  0  0  -0.134919  0  3.985503  0  0  -0.144189  0  4.008739  0  0  -0.082837  -0.128857  0  3.970123  0
C  C33  1  0.00826456  0.22980437  0.16234940  1  0  -0.124602  0  3.730242  0  0  -0.13592  0  3.9872  0  0  -0.14525  0  4.010426  0  0  -0.082735  -0.129903  0  3.971247  0
C  C34  1  0.50568050  0.65068765  0.74436258  1  0  0.133579  0  3.646294  0  0  0.099347  0  3.896932  0  0  0.107673  0  3.914249  0  0  0.052069  0.094164  0  3.885071  0
C  C35  1  0.90619359  0.76141658  0.25563225  1  0  0.133775  0  3.644944  0  0  0.098883  0  3.895935  0  0  0.107239  0  3.913157  0  0  0.052664  0.093743  0  3.884211  0
C  C36  1  0.01143097  0.65620557  0.75563521  1  0  0.133753  0  3.645059  0  0  0.098851  0  3.896044  0  0  0.107204  0  3.913271  0  0  0.05272  0.093703  0  3.884326  0
C  C37  1  0.90068710  0.25567993  0.24436448  1  0  0.133536  0  3.646213  0  0  0.099315  0  3.896876  0  0  0.107617  0  3.914184  0  0  0.052045  0.094135  0  3.885014  0
C  C38  1  0.51121983  0.19577944  0.92526449  1  0  0.622121  0  3.96124  0  0  0.572523  0  4.252144  0  0  0.606263  0  4.247673  0  0  0.198028  0.549812  0  4.254177  0
C  C39  1  0.27016898  0.58582970  0.07469123  1  0  0.619536  0  3.959778  0  0  0.569524  0  4.251256  0  0  0.603278  0  4.246773  0  0  0.196581  0.546777  0  4.253277  0
C  C40  1  0.83583763  0.02017495  0.57469594  1  0  0.619621  0  3.95959  0  0  0.569593  0  4.251065  0  0  0.603349  0  4.246586  0  0  0.196666  0.546846  0  4.253086  0
C  C41  1  0.44577599  0.26122086  0.42526806  1  0  0.62222  0  3.961552  0  0  0.572653  0  4.252447  0  0  0.606394  0  4.247978  0  0  0.198138  0.54994  0  4.254482  0
N  N42  1  0.53357216  0.71703086  0.87713033  1  0  -0.328218  0  3.309103  0  0  -0.242429  0  3.584721  0  0  -0.262842  0  3.600106  0  0  -0.328717  -0.228674  0  3.574139  0
N  N43  1  0.83978667  0.65654355  0.12285459  1  0  -0.326023  0  3.307601  0  0  -0.239981  0  3.583353  0  0  -0.26031  0  3.598644  0  0  -0.329071  -0.22626  0  3.572786  0
N  N44  1  0.90655180  0.58979716  0.62285843  1  0  -0.326072  0  3.307686  0  0  -0.239971  0  3.583397  0  0  -0.2603  0  3.598692  0  0  -0.329053  -0.226249  0  3.572832  0
N  N45  1  0.96702978  0.28356531  0.37713281  1  0  -0.328283  0  3.309094  0  0  -0.242517  0  3.584729  0  0  -0.262931  0  3.600124  0  0  -0.328739  -0.228768  0  3.574158  0
O  O46  1  0.52659639  0.31655423  0.86208945  1  0  -0.61426  0  2.010742  0  0  -0.541018  0  2.265103  0  0  -0.57017  0  2.252478  0  0  -0.322267  -0.520448  0  2.273092  0
O  O47  1  0.45418881  0.66463641  0.13760772  1  0  -0.613733  0  2.011165  0  0  -0.539876  0  2.265364  0  0  -0.569039  0  2.252756  0  0  -0.321291  -0.519335  0  2.273309  0
O  O48  1  0.91462673  0.20419670  0.63761544  1  0  -0.613801  0  2.011191  0  0  -0.539994  0  2.265479  0  0  -0.569136  0  2.252819  0  0  -0.321384  -0.519462  0  2.273442  0
O  O49  1  0.56655225  0.27660092  0.36209733  1  0  -0.614348  0  2.011003  0  0  -0.541108  0  2.265356  0  0  -0.57026  0  2.252732  0  0  -0.322364  -0.520539  0  2.273348  0
O  O50  1  0.49911152  0.22946796  0.04091817  1  0  -0.611047  0  1.929183  0  0  -0.564621  0  2.161952  0  0  -0.587804  0  2.151626  0  0  -0.314099  -0.548353  0  2.16849  0
O  O51  1  0.18788539  0.45761712  0.95924024  1  0  -0.609688  0  1.927404  0  0  -0.563365  0  2.160065  0  0  -0.586601  0  2.149962  0  0  -0.313134  -0.546832  0  2.166443  0
O  O52  1  0.70763215  0.93789038  0.45924152  1  0  -0.609728  0  1.927251  0  0  -0.563373  0  2.159877  0  0  -0.58661  0  2.149773  0  0  -0.313118  -0.546837  0  2.166252  0
O  O53  1  0.47945774  0.24910699  0.54091824  1  0  -0.611061  0  1.929264  0  0  -0.564667  0  2.162063  0  0  -0.587847  0  2.151735  0  0  -0.314152  -0.548399  0  2.168601  0
