# generated using pymatgen
data_V2CoH8C10(NO3)2
_symmetry_space_group_name_H-M   'P 1'
_cell_length_a   8.11817219
_cell_length_b   8.50895913
_cell_length_c   10.08746548
_cell_angle_alpha   87.20695572
_cell_angle_beta   76.03043269
_cell_angle_gamma   75.17881978
_symmetry_Int_Tables_number   1
_chemical_formula_structural   V2CoH8C10(NO3)2
_chemical_formula_sum   'V4 Co2 H16 C20 N4 O12'
_cell_volume   653.64383357
_cell_formula_units_Z   2
loop_
 _symmetry_equiv_pos_site_id
 _symmetry_equiv_pos_as_xyz
  1  'x, y, z'
loop_
 _atom_site_type_symbol
 _atom_site_label
 _atom_site_symmetry_multiplicity
 _atom_site_fract_x
 _atom_site_fract_y
 _atom_site_fract_z
 _atom_site_occupancy
 _atom_site_hle17_ddec_charge
 _atom_site_hle17_ddec_spin_density
 _atom_site_hle17_ddec_sum_bond_order
 _atom_site_hle17_magmom
 _atom_site_hse06_10hf_bader_charge
 _atom_site_hse06_10hf_bader_spin_density
 _atom_site_hse06_10hf_ddec_charge
 _atom_site_hse06_10hf_ddec_spin_density
 _atom_site_hse06_10hf_ddec_sum_bond_order
 _atom_site_hse06_10hf_magmom
 _atom_site_hse06_ddec_charge
 _atom_site_hse06_ddec_spin_density
 _atom_site_hse06_ddec_sum_bond_order
 _atom_site_hse06_magmom
 _atom_site_pbe_cm5_charge
 _atom_site_pbe_ddec_charge
 _atom_site_pbe_ddec_spin_density
 _atom_site_pbe_ddec_sum_bond_order
 _atom_site_pbe_magmom
V  V0  1  0.23098454  0.73091881  0.53066511  1  2.001736  -0.002014  2.970399  -0.003  2.186086  -0.002229  2.077679  -0.001397  3.356  -0.002  2.177598  -0.001296  3.337345  -0.002  1.449672  1.99184  -0.000759  3.395539  -0.001
V  V1  1  0.76901599  0.26908225  0.46933757  1  2.001811  0.002021  2.970231  0.003  2.186139  0.002238  2.077739  0.001402  3.355866  0.002  2.177775  0.001311  3.33703  0.002  1.449692  1.991898  0.000762  3.395396  0.001
V  V2  1  0.62874399  0.59089798  0.29894855  1  1.979435  0.010729  3.009951  0.012  2.169249  -0.029956  2.047262  -0.017131  3.4083  -0.035  2.146998  -0.014653  3.378047  -0.03  1.433829  1.962851  -0.021316  3.45799  -0.042
V  V3  1  0.37126067  0.40910186  0.70105139  1  1.979515  -0.010706  3.009783  -0.012  2.169411  0.02996  2.047318  0.017133  3.408134  0.035  2.147072  0.014653  3.377873  0.03  1.433838  1.962931  0.021318  3.457806  0.042
Co  Co4  1  0.84194839  0.83793960  0.44290704  1  1.156044  -2.988698  2.174567  -2.56  1.362675  -2.595565  1.144606  -2.825254  2.601182  -2.562  1.216402  -2.884807  2.519916  -2.663  0.707431  1.085975  -2.733432  2.661793  -2.433
Co  Co5  1  0.15805407  0.16205902  0.55709338  1  1.156097  2.988692  2.174509  2.56  1.3627  2.595558  1.14469  2.825252  2.601109  2.562  1.216489  2.884797  2.519846  2.663  0.707433  1.086045  2.733422  2.661732  2.433
H  H6  1  0.78646021  0.59448718  0.67111739  1  0.092066  -0.000527  0.929309  -0.001  0.13334  -0.001145  0.101812  -0.000331  0.98907  -0.001  0.104476  -0.000247  0.986368  -0.001  0.124114  0.09986  -0.000387  0.991297  -0.001
H  H7  1  0.21354379  0.40551509  0.32888555  1  0.092041  0.000527  0.929376  0.001  0.133394  0.001145  0.101843  0.000331  0.989055  0.001  0.104525  0.000247  0.98633  0.001  0.12413  0.099894  0.000387  0.991285  0.001
H  H8  1  0.56919798  0.58152648  0.89148913  1  0.110522  -0.00023  0.963975  0.0  0.111995  -0.000639  0.118908  -0.000254  1.030267  0.0  0.121504  -0.000183  1.030086  0.0  0.11093  0.11716  -0.000305  1.03034  0.0
H  H9  1  0.43080438  0.41848188  0.10851586  1  0.110525  0.00023  0.963887  0.0  0.112023  0.000639  0.118921  0.000254  1.030167  0.0  0.121518  0.000182  1.029988  0.0  0.110945  0.117182  0.000305  1.030234  0.0
H  H10  1  0.30957444  0.08089208  0.82889571  1  0.113885  -0.000344  0.968654  0.0  0.125854  -0.000667  0.119829  -0.000311  1.03642  0.0  0.123312  -0.000274  1.034946  0.0  0.111398  0.117448  -0.000317  1.037416  0.0
H  H11  1  0.69042039  0.91910652  0.17109827  1  0.113951  0.000344  0.968606  0.0  0.126035  0.000667  0.11986  0.000311  1.036405  0.0  0.123347  0.000274  1.034925  0.0  0.111378  0.11748  0.000317  1.037399  0.0
H  H12  1  0.53348317  0.07064609  0.61196105  1  0.067579  -0.000436  1.007239  -0.001  0.120861  -0.00103  0.069313  -0.000143  1.086164  -0.001  0.071971  -7.5e-05  1.083229  -0.001  0.114259  0.068045  -0.000211  1.087139  -0.001
H  H13  1  0.46651167  0.92935251  0.38803194  1  0.067566  0.000436  1.00726  0.001  0.120894  0.00103  0.06927  0.000143  1.086233  0.001  0.071922  7.6e-05  1.083304  0.001  0.114259  0.068008  0.000211  1.087205  0.001
H  H14  1  0.25391906  0.58901932  0.98401451  1  0.121339  -0.000186  0.988563  0.0  0.166787  -0.000448  0.131686  -0.000196  1.049359  0.0  0.135364  -0.000148  1.047389  0.0  0.10812  0.129253  -0.000256  1.050601  0.0
H  H15  1  0.74608273  0.41098173  0.01598595  1  0.121286  0.000185  0.988462  0.0  0.166792  0.000448  0.131633  0.000197  1.04927  0.0  0.135315  0.000149  1.047298  0.0  0.108108  0.129195  0.000256  1.050518  0.0
H  H16  1  0.02128345  0.60963270  0.19960528  1  0.080031  -0.00036  0.93896  -0.001  0.102153  -0.001079  0.087971  -0.000203  1.002146  -0.001  0.090418  -0.000103  0.999603  -0.001  0.122834  0.086493  -0.000311  1.003799  -0.001
H  H17  1  0.97872315  0.39036471  0.80039539  1  0.080016  0.000359  0.939  0.001  0.10228  0.001079  0.087945  0.000203  1.002204  0.001  0.090393  0.000103  0.999657  0.001  0.122837  0.086466  0.000311  1.003856  0.001
H  H18  1  0.03714347  0.07800090  0.27702532  1  0.06828  -0.000444  0.977376  -0.001  0.10736  -0.001087  0.069723  -0.000206  1.054679  -0.001  0.072337  -0.000113  1.051681  -0.001  0.115061  0.068325  -0.000324  1.056446  -0.001
H  H19  1  0.96285772  0.92199772  0.72297436  1  0.06826  0.000443  0.977396  0.001  0.107371  0.001087  0.069717  0.000206  1.054688  0.001  0.072331  0.000114  1.051685  0.001  0.115059  0.068317  0.000324  1.056454  0.001
H  H20  1  0.26591729  0.08061747  0.06472434  1  0.112826  -0.00024  0.950162  0.0  0.101755  -0.000583  0.123953  -0.000261  1.007637  0.0  0.126249  -0.000196  1.008534  0.0  0.11008  0.122472  -0.000323  1.007044  0.0
H  H21  1  0.73407943  0.91938358  0.93527512  1  0.112753  0.000238  0.95014  0.0  0.101941  0.000584  0.123949  0.000261  1.007523  0.0  0.126239  0.000197  1.008439  0.0  0.110083  0.122461  0.000323  1.00694  0.0
C  C22  1  0.67824457  0.69915842  0.71061179  1  0.131652  0.007432  3.675334  0.01  0.426395  0.003429  0.104634  0.001487  3.928208  0.002  0.112753  0.001286  3.944457  0.002  0.052538  0.098416  0.001954  3.917587  0.003
C  C23  1  0.32175337  0.30084750  0.28939019  1  0.131702  -0.007428  3.675185  -0.01  0.426277  -0.003432  0.104665  -0.001489  3.928069  -0.002  0.112778  -0.001282  3.944319  -0.002  0.052552  0.098447  -0.001955  3.917458  -0.003
C  C24  1  0.55631604  0.69281933  0.83279331  1  -0.140206  -0.006567  3.678339  -0.009  0.017202  -0.003459  -0.161295  -0.001768  3.928163  -0.003  -0.168126  -0.001479  3.947136  -0.002  -0.073248  -0.156241  -0.001959  3.915227  -0.003
C  C25  1  0.44368669  0.30718294  0.16720691  1  -0.140275  0.006561  3.678156  0.009  0.017112  0.003458  -0.161362  0.001768  3.928004  0.003  -0.168198  0.001477  3.946983  0.002  -0.073301  -0.156314  0.001958  3.915071  0.003
C  C26  1  0.41896890  0.83060858  0.87950416  1  0.106309  0.006746  3.726876  0.008  0.011953  0.003491  0.1212  0.001834  3.950906  0.002  0.126504  0.001244  3.96957  0.001  0.019003  0.117073  0.00297  3.938903  0.003
C  C27  1  0.58102777  0.16939733  0.12049510  1  0.106375  -0.006739  3.726864  -0.008  0.01186  -0.003489  0.121243  -0.001833  3.950914  -0.002  0.126549  -0.001243  3.969576  -0.001  0.019041  0.11712  -0.00297  3.93891  -0.003
C  C28  1  0.41266116  0.96992369  0.79940142  1  -0.145096  -0.005782  3.688278  -0.008  -0.038322  -0.002551  -0.165767  -0.001281  3.937037  -0.002  -0.172381  -0.001211  3.955603  -0.002  -0.075603  -0.161516  -0.001374  3.924814  -0.002
C  C29  1  0.58733748  0.03007492  0.20059281  1  -0.145132  0.005772  3.68801  0.008  -0.038484  0.002548  -0.165738  0.001279  3.93679  0.002  -0.172353  0.00121  3.955348  0.002  -0.075539  -0.161483  0.001374  3.924564  0.002
C  C30  1  0.53765311  0.96555558  0.67780986  1  0.129125  0.006935  3.720315  0.01  0.483692  0.002823  0.100555  0.001171  3.977781  0.002  0.108667  0.001062  3.994001  0.002  0.047098  0.094728  0.001713  3.966469  0.003
C  C31  1  0.46234013  0.03444425  0.32218636  1  0.129222  -0.006926  3.720288  -0.009  0.484089  -0.00282  0.100617  -0.001169  3.977855  -0.002  0.108742  -0.00106  3.994071  -0.002  0.047113  0.094783  -0.001713  3.966552  -0.003
C  C32  1  0.28282781  0.83299393  0.00661454  1  0.111269  0.006203  3.735645  0.007  -0.038979  0.005099  0.122136  0.002621  3.963491  0.003  0.126299  0.002422  3.984305  0.003  0.019796  0.119506  0.003001  3.949601  0.003
C  C33  1  0.71716698  0.16700955  0.99338618  1  0.111116  -0.00621  3.735577  -0.007  -0.038863  -0.0051  0.121975  -0.002622  3.963459  -0.003  0.12614  -0.002417  3.984267  -0.003  0.019745  0.119337  -0.003002  3.94957  -0.003
C  C34  1  0.21174689  0.69945000  0.04694299  1  -0.151519  -0.005499  3.66253  -0.007  0.005538  -0.003459  -0.166859  -0.001836  3.897616  -0.003  -0.174607  -0.002007  3.917893  -0.003  -0.075333  -0.161565  -0.001696  3.884179  -0.003
C  C35  1  0.78825650  0.30054983  0.95305423  1  -0.151344  0.005503  3.662438  0.007  0.005576  0.003458  -0.166667  0.001835  3.897516  0.003  -0.174418  0.002002  3.917791  0.003  -0.075296  -0.161372  0.001696  3.884082  0.003
C  C36  1  0.08124145  0.71033610  0.16674358  1  0.139932  0.006987  3.689742  0.009  0.44461  0.004816  0.114793  0.00228  3.94069  0.003  0.122627  0.002445  3.958136  0.004  0.053037  0.108775  0.002128  3.928572  0.003
C  C37  1  0.91876260  0.28966132  0.83325955  1  0.139893  -0.00699  3.689853  -0.01  0.44445  -0.004817  0.114745  -0.002281  3.94082  -0.003  0.122587  -0.002441  3.958265  -0.004  0.053015  0.108726  -0.002128  3.928697  -0.003
C  C38  1  0.08760802  0.97221549  0.20915684  1  0.137236  0.00608  3.70908  0.008  0.478882  0.004024  0.109425  0.001723  3.96745  0.003  0.117076  0.002062  3.985233  0.003  0.049834  0.103786  0.001494  3.954656  0.002
C  C39  1  0.91238456  0.02778678  0.79084634  1  0.137246  -0.006082  3.709135  -0.008  0.478792  -0.004023  0.109402  -0.001723  3.96756  -0.003  0.117059  -0.002054  3.985341  -0.003  0.049824  0.10377  -0.001493  3.954748  -0.002
C  C40  1  0.21623073  0.97268105  0.09021788  1  -0.149292  -0.005522  3.685158  -0.007  -0.02602  -0.003563  -0.16542  -0.001905  3.925102  -0.003  -0.173236  -0.002091  3.947693  -0.003  -0.077113  -0.16059  -0.001755  3.910378  -0.003
C  C41  1  0.78377360  0.02731999  0.90977712  1  -0.149229  0.005528  3.685179  0.007  -0.026301  0.003561  -0.165392  0.001904  3.925126  0.003  -0.173209  0.002084  3.947705  0.003  -0.07715  -0.160558  0.001754  3.9104  0.003
N  N42  1  0.66908349  0.83360862  0.63319931  1  -0.32091  -0.044678  3.305224  -0.074  -1.275299  -0.05  -0.268372  -0.028152  3.573177  -0.043  -0.291117  -0.024331  3.584863  -0.036  -0.325548  -0.250762  -0.030209  3.566201  -0.047
N  N43  1  0.33091803  0.16638877  0.36679837  1  -0.320945  0.044674  3.3053  0.074  -1.275552  0.05  -0.268423  0.028152  3.573307  0.043  -0.291189  0.024325  3.585016  0.036  -0.325551  -0.250817  0.03021  3.566346  0.047
N  N44  1  0.01965472  0.84389061  0.24805986  1  -0.330198  -0.039997  3.300045  -0.069  -1.252881  -0.04458  -0.282921  -0.024875  3.57871  -0.043  -0.305778  -0.021161  3.594767  -0.038  -0.317794  -0.263668  -0.027701  3.563785  -0.046
N  N45  1  0.98034741  0.15610922  0.75193859  1  -0.330186  0.040003  3.299805  0.069  -1.252842  0.044581  -0.282899  0.024875  3.578469  0.043  -0.305765  0.021159  3.594533  0.038  -0.317786  -0.263647  0.027703  3.563546  0.046
O  O46  1  0.03648897  0.71428641  0.50989545  1  -0.862313  -0.058716  1.588895  -0.088  -0.953434  -0.052225  -0.884935  -0.031782  1.906172  -0.038  -0.930074  -0.022116  1.889251  -0.022  -0.602796  -0.846247  -0.042867  1.919436  -0.056
O  O47  1  0.96351580  0.28570370  0.49010291  1  -0.862343  0.058712  1.588841  0.088  -0.953497  0.052227  -0.884965  0.03178  1.906116  0.038  -0.930132  0.022111  1.889166  0.022  -0.602807  -0.846271  0.042865  1.919378  0.056
O  O48  1  0.78158046  0.07051342  0.44910351  1  -0.888936  -0.052658  1.663927  -0.078  -0.993559  -0.052013  -0.9095  -0.032206  2.000987  -0.037  -0.956284  -0.024379  1.986191  -0.024  -0.605033  -0.870434  -0.039505  2.012987  -0.049
O  O49  1  0.21841405  0.92948641  0.55089742  1  -0.888955  0.052654  1.663976  0.078  -0.993577  0.05201  -0.90953  0.032205  2.001038  0.037  -0.956273  0.024378  1.986255  0.024  -0.605057  -0.870468  0.039506  2.013043  0.049
O  O50  1  0.73359439  0.70000115  0.36964830  1  -0.920073  -0.065002  1.671617  -0.099  -0.996716  -0.065807  -0.946749  -0.039386  2.01515  -0.051  -0.996683  -0.02836  1.999647  -0.032  -0.616507  -0.905448  -0.050776  2.026851  -0.069
O  O51  1  0.26640872  0.29999505  0.63035309  1  -0.920116  0.065  1.671592  0.099  -0.996702  0.065807  -0.946798  0.039387  2.015115  0.051  -0.996745  0.028365  1.999636  0.032  -0.616484  -0.9055  0.050779  2.026828  0.069
O  O52  1  0.39696048  0.64630081  0.38471921  1  -1.00713  -0.000533  1.589747  -0.001  -1.067792  -0.001349  -1.038623  -0.000521  1.902161  -0.001  -1.084418  -0.000188  1.896742  0.0  -0.689917  -0.999872  -0.001283  1.910195  -0.002
O  O53  1  0.60304297  0.35369417  0.61528316  1  -1.007184  0.000531  1.58978  0.001  -1.067718  0.001348  -1.038657  0.00052  1.902159  0.001  -1.084483  0.000178  1.896715  0.0  -0.689961  -0.999907  0.001284  1.910193  0.002
O  O54  1  0.65177524  0.63234658  0.13700462  1  -0.762069  -0.006261  1.246167  -0.01  -0.860266  -0.007842  -0.769681  -0.003798  1.478178  -0.006  -0.797699  -0.00244  1.470012  -0.004  -0.603143  -0.747919  -0.005425  1.488326  -0.009
O  O55  1  0.34822435  0.36765326  0.86299631  1  -0.762099  0.006248  1.246155  0.01  -0.860238  0.007841  -0.769675  0.003798  1.478157  0.006  -0.797709  0.002445  1.469978  0.004  -0.603141  -0.747936  0.005425  1.488286  0.009
O  O56  1  0.27899082  0.62294679  0.67906834  1  -0.981524  0.004125  1.560795  0.006  -1.053383  0.005458  -1.005369  0.00279  1.851703  0.004  -1.050187  0.001482  1.846401  0.002  -0.686981  -0.96774  0.004556  1.85995  0.007
O  O57  1  0.72101224  0.37705426  0.32093186  1  -0.981574  -0.004126  1.560791  -0.006  -1.053102  -0.005459  -1.005418  -0.00279  1.851714  -0.004  -1.050277  -0.001483  1.846393  -0.002  -0.686998  -0.967793  -0.004556  1.859973  -0.007
