# generated using pymatgen
data_Gd2CuH16C24(N2O5)4
_symmetry_space_group_name_H-M   'P 1'
_cell_length_a   6.10693240
_cell_length_b   12.24744017
_cell_length_c   21.37911559
_cell_angle_alpha   89.99982736
_cell_angle_beta   89.99955756
_cell_angle_gamma   92.98513482
_symmetry_Int_Tables_number   1
_chemical_formula_structural   Gd2CuH16C24(N2O5)4
_chemical_formula_sum   'Gd4 Cu2 H32 C48 N16 O40'
_cell_volume   1596.86598887
_cell_formula_units_Z   2
loop_
 _symmetry_equiv_pos_site_id
 _symmetry_equiv_pos_as_xyz
  1  'x, y, z'
loop_
 _atom_site_type_symbol
 _atom_site_label
 _atom_site_symmetry_multiplicity
 _atom_site_fract_x
 _atom_site_fract_y
 _atom_site_fract_z
 _atom_site_occupancy
 _atom_site_pbe_bader_charge
 _atom_site_pbe_bader_spin_density
 _atom_site_pbe_cm5_charge
 _atom_site_pbe_ddec_charge
 _atom_site_pbe_ddec_spin_density
 _atom_site_pbe_ddec_sum_bond_order
 _atom_site_pbe_magmom
Gd  Gd0  1  0.99178949  0.93668621  0.65751868  1  2.18518  8e-05  1.492597  2.014945  7.7e-05  2.268962  0.0
Gd  Gd1  1  0.50821056  0.56330920  0.15752273  1  2.185172  8e-05  1.492684  2.014949  7.7e-05  2.268913  0.0
Gd  Gd2  1  0.00821481  0.06331049  0.34248183  1  2.185168  8e-05  1.492572  2.014855  7.7e-05  2.269053  0.0
Gd  Gd3  1  0.49178463  0.43669328  0.84247683  1  2.185222  8e-05  1.49263  2.014856  7.7e-05  2.268921  0.0
Cu  Cu4  1  0.49999776  0.49999592  0.49999955  1  1.088764  0.571722  0.767345  0.774244  0.731383  2.280089  0.57
Cu  Cu5  1  0.99999560  0.00000411  0.00000140  1  1.088747  0.571726  0.767347  0.774307  0.731393  2.280118  0.57
H  H6  1  0.40724994  0.92041316  0.58553461  1  0.666716  1.2e-05  0.318706  0.425239  1e-05  0.880861  0.0
H  H7  1  0.09275330  0.57958001  0.08553845  1  0.666717  1.2e-05  0.318664  0.425189  1e-05  0.880945  0.0
H  H8  1  0.59275580  0.07958190  0.41446823  1  0.666796  1.2e-05  0.318698  0.425226  1e-05  0.880881  0.0
H  H9  1  0.90724026  0.42042247  0.91446346  1  0.667074  1.2e-05  0.318713  0.425217  1e-05  0.880875  0.0
H  H10  1  0.22823652  0.84945838  0.54257893  1  0.667506  0.000297  0.307809  0.417478  0.000324  0.902863  0.0
H  H11  1  0.27176605  0.65053341  0.04258177  1  0.667351  0.000297  0.307746  0.417372  0.000324  0.902957  0.0
H  H12  1  0.77177403  0.15053584  0.45742063  1  0.667312  0.000297  0.307776  0.417392  0.000324  0.902953  0.0
H  H13  1  0.72822423  0.34946909  0.95742013  1  0.667369  0.000297  0.307743  0.417292  0.000324  0.903067  0.0
H  H14  1  0.13426227  0.16296947  0.62859118  1  0.665492  -2e-06  0.304503  0.416208  -6e-06  0.911769  0.0
H  H15  1  0.36574517  0.33702648  0.12859347  1  0.66542  -2e-06  0.304504  0.416121  -6e-06  0.911879  0.0
H  H16  1  0.86574941  0.83702065  0.37140979  1  0.665481  -2e-06  0.304516  0.416182  -6e-06  0.911783  0.0
H  H17  1  0.63423467  0.66298425  0.87140470  1  0.665395  -2e-06  0.304462  0.416039  -6e-06  0.911993  0.0
H  H18  1  0.94062133  0.15466671  0.57860506  1  0.666599  -3.4e-05  0.306264  0.425423  -7.1e-05  0.886925  0.0
H  H19  1  0.55939086  0.34532969  0.07860848  1  0.666462  -3.4e-05  0.306221  0.42534  -7.1e-05  0.88709  0.0
H  H20  1  0.05940230  0.84532745  0.42139123  1  0.666416  -3.4e-05  0.306208  0.425317  -7.1e-05  0.88711  0.0
H  H21  1  0.44059052  0.65468022  0.92139109  1  0.666336  -3.4e-05  0.30624  0.425328  -7.1e-05  0.887122  0.0
H  H22  1  0.62945609  0.60726116  0.70384450  1  0.177154  1e-06  0.122063  0.088885  -2e-06  1.050333  0.0
H  H23  1  0.87056377  0.89273225  0.20384433  1  0.177092  1e-06  0.122089  0.088958  -2e-06  1.050294  0.0
H  H24  1  0.37054985  0.39273553  0.29616021  1  0.176939  1e-06  0.122021  0.088858  -2e-06  1.05031  0.0
H  H25  1  0.12943951  0.10726937  0.79615711  1  0.177105  1e-06  0.122086  0.088964  -2e-06  1.050286  0.0
H  H26  1  0.47386329  0.76981362  0.64903262  1  0.161214  -3e-06  0.130639  0.103892  -3e-06  1.030066  0.0
H  H27  1  0.02617503  0.73018557  0.14903025  1  0.162119  -3e-06  0.130598  0.103845  -3e-06  1.030052  0.0
H  H28  1  0.52615411  0.23018302  0.35096975  1  0.161046  -3e-06  0.130603  0.103865  -3e-06  1.030124  0.0
H  H29  1  0.97381812  0.26981365  0.85097166  1  0.162084  -3e-06  0.130584  0.103836  -3e-06  1.030076  0.0
H  H30  1  0.00095109  0.41842968  0.68658835  1  0.131232  0.001182  0.126163  0.10774  0.000644  0.977641  0.001
H  H31  1  0.49902674  0.08156445  0.18659502  1  0.131201  0.001181  0.12608  0.107661  0.000644  0.977615  0.001
H  H32  1  0.99903899  0.58157118  0.31340841  1  0.131175  0.001182  0.126144  0.107694  0.000644  0.977591  0.001
H  H33  1  0.50097756  0.91843226  0.81340735  1  0.131132  0.001182  0.126178  0.107756  0.000644  0.977566  0.001
H  H34  1  0.31307409  0.37728124  0.61423191  1  0.174416  0.002394  0.130931  0.127359  0.001115  1.022749  0.002
H  H35  1  0.18691798  0.12271978  0.11423546  1  0.174582  0.002393  0.130941  0.1274  0.001115  1.022704  0.002
H  H36  1  0.68692918  0.62272037  0.38576906  1  0.174391  0.002393  0.130943  0.127376  0.001114  1.022822  0.002
H  H37  1  0.81309051  0.87728427  0.88576878  1  0.174409  0.002393  0.130893  0.12729  0.001115  1.022736  0.002
C  C38  1  0.88702595  0.77019083  0.77646914  1  1.636577  9e-06  0.222975  0.581295  1e-05  4.234654  0.0
C  C39  1  0.61298354  0.72980058  0.27646798  1  1.637042  9e-06  0.222797  0.581048  1e-05  4.234859  0.0
C  C40  1  0.11298090  0.22981322  0.22353136  1  1.636695  9e-06  0.222816  0.581054  1e-05  4.234749  0.0
C  C41  1  0.38701749  0.27019614  0.72353533  1  1.636383  9e-06  0.222786  0.581004  1e-05  4.235112  0.0
C  C42  1  0.08197373  0.71342354  0.75090636  1  0.474369  0.0  0.132927  0.065899  -1.4e-05  3.92121  0.0
C  C43  1  0.41803491  0.78656948  0.25090862  1  0.473935  -0.0  0.133013  0.066028  -1.5e-05  3.921001  0.0
C  C44  1  0.91803139  0.28657970  0.24909321  1  0.473955  0.0  0.133  0.066024  -1.4e-05  3.921136  0.0
C  C45  1  0.58195589  0.21342402  0.74909235  1  0.473944  -0.0  0.133005  0.065979  -1.4e-05  3.921362  0.0
C  C46  1  0.15281109  0.61441099  0.77465666  1  0.588767  -9e-06  0.140837  0.070164  -1.3e-05  3.902728  0.0
C  C47  1  0.34719056  0.88558357  0.27466123  1  0.588768  -9e-06  0.140815  0.070133  -1.3e-05  3.902516  0.0
C  C48  1  0.84718554  0.38558984  0.22534338  1  0.589231  -9e-06  0.140769  0.070068  -1.3e-05  3.902789  0.0
C  C49  1  0.65280433  0.11441646  0.72533881  1  0.589456  -9e-06  0.141039  0.070354  -1.3e-05  3.902837  0.0
C  C50  1  0.46908241  0.63650798  0.71626612  1  0.459688  -4.3e-05  0.069876  0.087564  -6.4e-05  3.86628  0.0
C  C51  1  0.03093372  0.86348520  0.21626536  1  0.458514  -4.3e-05  0.069891  0.08759  -6.4e-05  3.866274  0.0
C  C52  1  0.53091677  0.36348711  0.28373578  1  0.459919  -4.3e-05  0.069944  0.087655  -6.4e-05  3.866217  0.0
C  C53  1  0.96906137  0.13651646  0.78373654  1  0.459469  -4.3e-05  0.069885  0.087633  -6.4e-05  3.866276  0.0
C  C54  1  0.38558944  0.72760881  0.68690102  1  0.521652  -7e-06  0.071018  0.088037  -8e-06  3.87053  0.0
C  C55  1  0.11442626  0.77238781  0.18690399  1  0.522159  -7e-06  0.070956  0.088026  -9e-06  3.87058  0.0
C  C56  1  0.61441854  0.27239114  0.31310182  1  0.521638  -7e-06  0.071034  0.088019  -8e-06  3.870421  0.0
C  C57  1  0.88556341  0.22760978  0.81309839  1  0.521116  -7e-06  0.070912  0.087937  -8e-06  3.870731  0.0
C  C58  1  0.01553945  0.53450498  0.81434795  1  1.652172  4e-06  0.24846  0.62773  5e-06  4.151335  0.0
C  C59  1  0.48446376  0.96549753  0.31434974  1  1.652346  4e-06  0.248411  0.6276  5e-06  4.151673  0.0
C  C60  1  0.98445083  0.46549752  0.18565161  1  1.651937  4e-06  0.248424  0.627693  5e-06  4.151528  0.0
C  C61  1  0.51554789  0.03450569  0.68565264  1  1.651754  4e-06  0.248418  0.627728  5e-06  4.151255  0.0
C  C62  1  0.80198543  0.70705791  0.57428320  1  1.684248  0.001366  0.229443  0.618871  0.00096  4.22356  0.001
C  C63  1  0.69801228  0.79294044  0.07428734  1  1.684207  0.001366  0.229413  0.619001  0.00096  4.223682  0.001
C  C64  1  0.19802336  0.29294859  0.42571076  1  1.684544  0.001365  0.229422  0.61894  0.00096  4.22365  0.001
C  C65  1  0.30198772  0.20706119  0.92571176  1  1.684184  0.001366  0.22944  0.618914  0.00096  4.22366  0.001
C  C66  1  0.96431278  0.62031531  0.58672374  1  0.524137  0.002955  0.133155  0.060739  0.001941  3.936222  0.002
C  C67  1  0.53566772  0.87967897  0.08673089  1  0.524587  0.002954  0.133251  0.060761  0.001941  3.936424  0.002
C  C68  1  0.03569213  0.37968630  0.41327255  1  0.524278  0.002954  0.133176  0.06071  0.001941  3.93642  0.002
C  C69  1  0.46432389  0.12032107  0.91327008  1  0.524195  0.002955  0.13317  0.060661  0.001941  3.936367  0.002
C  C70  1  0.03877298  0.47058443  0.64626480  1  0.547439  0.005942  0.068356  0.087378  0.004052  3.898104  0.005
C  C71  1  0.46122252  0.02941148  0.14627305  1  0.548196  0.00594  0.068406  0.087542  0.004052  3.898253  0.005
C  C72  1  0.96122375  0.52941722  0.35373197  1  0.547991  0.005939  0.068339  0.087412  0.004052  3.898081  0.005
C  C73  1  0.53879026  0.97058764  0.85373073  1  0.547942  0.005941  0.06827  0.08731  0.004052  3.898153  0.005
C  C74  1  0.21402877  0.44756477  0.60709696  1  0.503487  -0.001106  0.062713  0.060416  -0.001562  3.849261  -0.001
C  C75  1  0.28596268  0.05242975  0.10710462  1  0.503081  -0.001105  0.062685  0.060353  -0.001562  3.849159  -0.001
C  C76  1  0.78597307  0.55243849  0.39290121  1  0.502847  -0.001103  0.062714  0.060436  -0.001561  3.849175  -0.001
C  C77  1  0.71404202  0.94757023  0.89290196  1  0.503439  -0.001106  0.0628  0.060642  -0.001562  3.84906  -0.001
C  C78  1  0.14167661  0.60065312  0.54757245  1  0.499212  -7.8e-05  0.112652  0.023396  -0.001159  3.927435  0.0
C  C79  1  0.35830812  0.89934118  0.04757651  1  0.498858  -7.8e-05  0.112602  0.023463  -0.001159  3.92787  0.0
C  C80  1  0.85833086  0.39934275  0.45242478  1  0.499026  -7.9e-05  0.112666  0.023548  -0.001159  3.9275  0.0
C  C81  1  0.64167858  0.10065888  0.95242587  1  0.499225  -7.8e-05  0.112726  0.023731  -0.001159  3.927342  0.0
C  C82  1  0.21054955  0.66492038  0.48981408  1  1.635814  0.001257  0.21393  0.55836  0.001591  4.222022  0.001
C  C83  1  0.28945133  0.83507458  0.98982189  1  1.635798  0.001256  0.213891  0.558261  0.001591  4.222057  0.001
C  C84  1  0.78946313  0.33507792  0.51018128  1  1.635799  0.001255  0.213892  0.558223  0.00159  4.222078  0.001
C  C85  1  0.71053374  0.16492549  0.01018282  1  1.635861  0.001256  0.213739  0.558096  0.001591  4.222209  0.001
N  N86  1  0.26197450  0.51356890  0.55889186  1  -1.217606  0.075567  -0.342132  -0.204315  0.050188  3.691711  0.065
N  N87  1  0.23800992  0.98642533  0.05889836  1  -1.217637  0.075565  -0.342103  -0.204433  0.050187  3.691722  0.065
N  N88  1  0.73803154  0.48642861  0.44110631  1  -1.217612  0.075569  -0.342208  -0.204497  0.050191  3.691451  0.065
N  N89  1  0.76198210  0.01357798  0.94110636  1  -1.217709  0.075568  -0.342247  -0.204639  0.050191  3.691622  0.065
N  N90  1  0.91600543  0.55598997  0.63658467  1  -1.164334  -0.002521  -0.283094  -0.229732  -0.003122  3.301163  -0.002
N  N91  1  0.58398037  0.94400481  0.13659065  1  -1.165052  -0.00252  -0.283133  -0.229826  -0.003121  3.301526  -0.002
N  N92  1  0.08399274  0.44401004  0.36341116  1  -1.164316  -0.002521  -0.283095  -0.229735  -0.003122  3.301234  -0.002
N  N93  1  0.41601749  0.05599274  0.86340938  1  -1.164673  -0.002521  -0.283056  -0.22971  -0.003122  3.301267  -0.002
N  N94  1  0.19750626  0.76804734  0.70615597  1  -1.221226  2.2e-05  -0.329469  -0.31048  1.1e-05  3.474199  0.0
N  N95  1  0.30250514  0.73194510  0.20615859  1  -1.221292  2.2e-05  -0.329477  -0.310458  1.1e-05  3.473994  0.0
N  N96  1  0.80250326  0.23195179  0.29384313  1  -1.220945  2.2e-05  -0.329552  -0.310571  1.1e-05  3.473933  0.0
N  N97  1  0.69748076  0.26804842  0.79384145  1  -1.220742  2.2e-05  -0.329481  -0.310424  1.1e-05  3.47422  0.0
N  N98  1  0.35348858  0.58144273  0.76036775  1  -1.200925  -5e-06  -0.330536  -0.292743  -9e-06  3.463458  0.0
N  N99  1  0.14650835  0.91855030  0.26037037  1  -1.200898  -5e-06  -0.330505  -0.292815  -9e-06  3.463469  0.0
N  N100  1  0.64650969  0.41855810  0.23963415  1  -1.200953  -5e-06  -0.330442  -0.292665  -9e-06  3.463372  0.0
N  N101  1  0.85348500  0.08145055  0.73963106  1  -1.201179  -5e-06  -0.330537  -0.292947  -9e-06  3.463588  0.0
O  O102  1  0.82235761  0.84965586  0.74350379  1  -1.17914  8.4e-05  -0.402449  -0.677852  4.4e-05  2.342077  0.0
O  O103  1  0.67765676  0.65034145  0.24350544  1  -1.179186  8.4e-05  -0.402377  -0.677718  4.4e-05  2.342331  0.0
O  O104  1  0.17764362  0.15034250  0.25649484  1  -1.179098  8.4e-05  -0.402417  -0.677802  4.4e-05  2.342017  0.0
O  O105  1  0.32234263  0.34965528  0.75649319  1  -1.179179  8.4e-05  -0.402292  -0.677602  4.4e-05  2.34251  0.0
O  O106  1  0.81136615  0.73982709  0.82827495  1  -1.177625  0.000354  -0.289823  -0.516298  0.000239  2.224712  0.0
O  O107  1  0.68865931  0.76017213  0.32828105  1  -1.177701  0.000355  -0.289742  -0.516282  0.00024  2.224415  0.0
O  O108  1  0.18864869  0.26017529  0.17172648  1  -1.177689  0.000354  -0.289687  -0.516173  0.000239  2.224712  0.0
O  O109  1  0.31133537  0.23982626  0.67172086  1  -1.177508  0.000355  -0.28977  -0.51629  0.00024  2.22434  0.0
O  O110  1  0.81663407  0.51615014  0.79932401  1  -1.186808  8.6e-05  -0.377353  -0.628357  6e-05  2.306004  0.0
O  O111  1  0.68336753  0.98384854  0.29932315  1  -1.186809  8.6e-05  -0.377322  -0.62833  6e-05  2.306183  0.0
O  O112  1  0.18335345  0.48385646  0.20067697  1  -1.186715  8.6e-05  -0.377403  -0.628389  6e-05  2.306051  0.0
O  O113  1  0.31663217  0.01615064  0.70067455  1  -1.186748  8.6e-05  -0.377332  -0.628416  6e-05  2.306019  0.0
O  O114  1  0.11601920  0.48538418  0.85720560  1  -1.183293  4.9e-05  -0.350571  -0.612147  2e-05  2.260458  0.0
O  O115  1  0.38397278  0.01461545  0.35720657  1  -1.183414  4.9e-05  -0.350538  -0.612065  2e-05  2.260652  0.0
O  O116  1  0.88397128  0.51461995  0.14279443  1  -1.183361  4.9e-05  -0.350516  -0.612095  2e-05  2.26062  0.0
O  O117  1  0.61603499  0.98538287  0.64279206  1  -1.183301  4.9e-05  -0.350633  -0.61223  2e-05  2.260331  0.0
O  O118  1  0.83308873  0.79923148  0.60161255  1  -1.204072  0.001556  -0.432904  -0.673351  0.000998  2.351711  0.001
O  O119  1  0.66691847  0.70076994  0.10161413  1  -1.204115  0.001556  -0.432878  -0.673404  0.000997  2.351942  0.001
O  O120  1  0.16691107  0.20076852  0.39838561  1  -1.204369  0.001556  -0.432912  -0.67341  0.000997  2.351767  0.001
O  O121  1  0.33308644  0.29923167  0.89838450  1  -1.204137  0.001556  -0.432897  -0.673397  0.000997  2.351909  0.001
O  O122  1  0.63967474  0.67861795  0.54178066  1  -1.142851  0.004258  -0.295614  -0.531034  0.002326  2.20762  0.004
O  O123  1  0.86031088  0.82138147  0.04177784  1  -1.142691  0.004258  -0.295614  -0.531151  0.002325  2.207624  0.004
O  O124  1  0.36034213  0.32138770  0.45820862  1  -1.142769  0.004257  -0.295582  -0.53107  0.002325  2.207788  0.004
O  O125  1  0.13966070  0.17861540  0.95821238  1  -1.142704  0.004256  -0.295615  -0.531094  0.002325  2.207627  0.004
O  O126  1  0.14239530  0.75957175  0.48257429  1  -1.178198  0.018651  -0.287117  -0.515652  0.011449  2.179819  0.016
O  O127  1  0.35759934  0.74042411  0.98258025  1  -1.178236  0.018647  -0.287088  -0.515543  0.011447  2.179878  0.016
O  O128  1  0.85762404  0.24042734  0.51742200  1  -1.178255  0.018651  -0.287099  -0.515629  0.011449  2.179821  0.016
O  O129  1  0.64237396  0.25957357  0.01742352  1  -1.178372  0.018646  -0.287044  -0.515539  0.011446  2.179987  0.016
O  O130  1  0.33224861  0.61453515  0.45197473  1  -1.098919  0.100903  -0.308787  -0.506606  0.063737  2.269956  0.09
O  O131  1  0.16775208  0.88546331  0.95197991  1  -1.098714  0.100917  -0.308777  -0.506615  0.063746  2.269699  0.09
O  O132  1  0.66774536  0.38545752  0.54802204  1  -1.098681  0.100924  -0.308711  -0.50648  0.06375  2.269884  0.09
O  O133  1  0.83224823  0.11454078  0.04802293  1  -1.098683  0.10092  -0.308655  -0.506488  0.063747  2.269878  0.09
O  O134  1  0.25154337  0.89835033  0.57926420  1  -1.307982  0.000921  -0.645658  -0.868297  0.000563  2.075977  0.001
O  O135  1  0.24845963  0.60163961  0.07926531  1  -1.307877  0.000921  -0.64553  -0.868133  0.000563  2.07621  0.001
O  O136  1  0.74846063  0.10164392  0.42073677  1  -1.307871  0.000921  -0.645578  -0.868133  0.000563  2.076147  0.001
O  O137  1  0.75153260  0.39836533  0.92073660  1  -1.308271  0.000921  -0.645565  -0.868054  0.000563  2.076271  0.001
O  O138  1  0.02294721  0.11175045  0.60914995  1  -1.304552  -1.1e-05  -0.65426  -0.877182  -3.2e-05  2.017656  0.0
O  O139  1  0.47707385  0.38824555  0.10915517  1  -1.304348  -1.1e-05  -0.654209  -0.87706  -3.2e-05  2.017715  0.0
O  O140  1  0.97706640  0.88824212  0.39084915  1  -1.304363  -1.1e-05  -0.654206  -0.877036  -3.2e-05  2.017631  0.0
O  O141  1  0.52290425  0.61176437  0.89084300  1  -1.304172  -1.1e-05  -0.654169  -0.87693  -3.2e-05  2.017875  0.0
