# generated using pymatgen
data_CuH12C10(SN4)2
_symmetry_space_group_name_H-M   'P 1'
_cell_length_a   8.68231337
_cell_length_b   9.16997195
_cell_length_c   9.55753465
_cell_angle_alpha   108.60725819
_cell_angle_beta   90.00012747
_cell_angle_gamma   90.00024959
_symmetry_Int_Tables_number   1
_chemical_formula_structural   CuH12C10(SN4)2
_chemical_formula_sum   'Cu2 H24 C20 S4 N16'
_cell_volume   721.16236700
_cell_formula_units_Z   2
loop_
 _symmetry_equiv_pos_site_id
 _symmetry_equiv_pos_as_xyz
  1  'x, y, z'
loop_
 _atom_site_type_symbol
 _atom_site_label
 _atom_site_symmetry_multiplicity
 _atom_site_fract_x
 _atom_site_fract_y
 _atom_site_fract_z
 _atom_site_occupancy
 _atom_site_pbe_cm5_charge
 _atom_site_pbe_ddec_charge
 _atom_site_pbe_ddec_spin_density
 _atom_site_pbe_ddec_sum_bond_order
 _atom_site_pbe_magmom
Cu  Cu0  1  0.99999846  0.00000116  0.00000066  1  0.767864  0.762403  -0.723633  2.470632  -0.564
Cu  Cu1  1  0.50000165  0.49999811  0.99999912  1  0.767809  0.762264  -0.723615  2.47061  -0.564
H  H2  1  0.95099985  0.06501192  0.68331593  1  0.130148  0.093245  2.8e-05  1.04038  0.0
H  H3  1  0.45099528  0.43498396  0.31667702  1  0.130139  0.09325  2.8e-05  1.040316  0.0
H  H4  1  0.04899991  0.93498638  0.31668490  1  0.130157  0.093279  2.8e-05  1.040349  0.0
H  H5  1  0.54900794  0.56501492  0.68331506  1  0.130127  0.093219  2.8e-05  1.040355  0.0
H  H6  1  0.32398701  0.86427971  0.83790320  1  0.143853  0.126588  1.4e-05  0.993199  0.0
H  H7  1  0.82398486  0.63571574  0.16209538  1  0.143902  0.126671  1.4e-05  0.99313  0.0
H  H8  1  0.67601620  0.13572511  0.16210107  1  0.143836  0.126567  1.4e-05  0.993203  0.0
H  H9  1  0.17601605  0.36429025  0.83790564  1  0.143843  0.126619  1.4e-05  0.99321  0.0
H  H10  1  0.35664914  0.71507939  0.45535181  1  0.104116  0.086177  -0.000359  1.020867  0.0
H  H11  1  0.85664634  0.78491885  0.54464476  1  0.104112  0.086166  -0.000359  1.020859  0.0
H  H12  1  0.64335178  0.28492399  0.54465134  1  0.10407  0.086111  -0.00036  1.020909  0.0
H  H13  1  0.14335688  0.21508070  0.45534953  1  0.104092  0.08616  -0.000359  1.020871  0.0
H  H14  1  0.48797050  0.79579362  0.60353135  1  0.102576  0.081557  -0.000232  1.043568  0.0
H  H15  1  0.98796696  0.70420310  0.39646564  1  0.10255  0.08154  -0.000231  1.043567  0.0
H  H16  1  0.51202926  0.20420722  0.39647064  1  0.102552  0.081519  -0.000232  1.043567  0.0
H  H17  1  0.01203281  0.29579384  0.60353078  1  0.102573  0.081551  -0.000232  1.04358  0.0
H  H18  1  0.37795958  0.94712565  0.37652914  1  0.088078  0.090404  -0.000142  1.011867  0.0
H  H19  1  0.87795473  0.55287118  0.62346966  1  0.088065  0.090373  -0.000142  1.011938  0.0
H  H20  1  0.62204364  0.05287697  0.62347509  1  0.088063  0.09037  -0.000142  1.011929  0.0
H  H21  1  0.12204273  0.44712871  0.37652573  1  0.088048  0.09033  -0.000142  1.011938  0.0
H  H22  1  0.55683105  0.85770360  0.37473712  1  0.09472  0.099213  -4.2e-05  0.988317  0.0
H  H23  1  0.05682586  0.64229842  0.62526508  1  0.094738  0.099214  -4.2e-05  0.988306  0.0
H  H24  1  0.44316872  0.14229868  0.62526600  1  0.094717  0.099217  -4.2e-05  0.988307  0.0
H  H25  1  0.94317045  0.35770064  0.37473467  1  0.094703  0.099149  -4.2e-05  0.988278  0.0
C  C26  1  0.05940555  0.00858974  0.68933994  1  0.146128  0.133531  0.000717  3.988251  0.0
C  C27  1  0.55940315  0.49140690  0.31065716  1  0.14612  0.133533  0.000716  3.988199  0.0
C  C28  1  0.94059306  0.99140746  0.31066087  1  0.146131  0.133542  0.000717  3.988163  0.0
C  C29  1  0.44059777  0.50859334  0.68933934  1  0.146096  0.133529  0.000717  3.988274  0.0
C  C30  1  0.24701560  0.90564070  0.76945635  1  0.169602  0.097437  0.000671  3.857808  -0.001
C  C31  1  0.74701458  0.59435579  0.23054308  1  0.169552  0.09729  0.000672  3.85786  -0.001
C  C32  1  0.75298416  0.09436377  0.23054682  1  0.169656  0.09753  0.000672  3.857873  -0.001
C  C33  1  0.25298633  0.40564217  0.76945664  1  0.169635  0.097471  0.000671  3.857879  -0.001
C  C34  1  0.40087042  0.82305744  0.53238979  1  -0.054802  -0.09756  -0.001085  3.894014  -0.001
C  C35  1  0.90086462  0.67694179  0.46760586  1  -0.054735  -0.097486  -0.001085  3.893972  -0.001
C  C36  1  0.59913280  0.17694416  0.46761112  1  -0.054712  -0.097409  -0.001085  3.893865  -0.001
C  C37  1  0.09913860  0.32305905  0.53239613  1  -0.054745  -0.097538  -0.001085  3.894047  -0.001
C  C38  1  0.46699118  0.92471562  0.44888890  1  -0.166658  -0.163646  -0.00026  3.935747  0.0
C  C39  1  0.96698741  0.57528354  0.55110917  1  -0.166661  -0.163636  -0.00026  3.935762  0.0
C  C40  1  0.53300858  0.07528083  0.55111298  1  -0.166659  -0.163641  -0.00026  3.93576  0.0
C  C41  1  0.03301235  0.42471992  0.44889069  1  -0.166652  -0.163526  -0.00026  3.935607  0.0
C  C42  1  0.12848138  0.72354748  0.06983895  1  0.139731  0.274343  -0.004852  4.337651  -0.01
C  C43  1  0.62848296  0.77645313  0.93016127  1  0.13974  0.274372  -0.004852  4.337584  -0.01
C  C44  1  0.87151608  0.27645385  0.93015758  1  0.139652  0.274188  -0.004859  4.33736  -0.01
C  C45  1  0.37152717  0.22354862  0.06983307  1  0.139804  0.274507  -0.004844  4.337902  -0.01
S  S46  1  0.19540004  0.61641790  0.16088397  1  -0.139478  -0.305409  -0.022461  2.356209  -0.025
S  S47  1  0.69539268  0.88357840  0.83911200  1  -0.139441  -0.305375  -0.022479  2.356256  -0.025
S  S48  1  0.80460087  0.38357889  0.83911902  1  -0.13946  -0.305326  -0.022469  2.356566  -0.025
S  S49  1  0.30460708  0.11641152  0.16088644  1  -0.139543  -0.305594  -0.022472  2.355809  -0.025
N  N50  1  0.27376174  0.89754558  0.62891499  1  -0.129388  0.178723  -0.001343  3.710215  -0.002
N  N51  1  0.77375880  0.60244852  0.37108338  1  -0.129357  0.1788  -0.001343  3.710424  -0.002
N  N52  1  0.72623918  0.10245746  0.37108705  1  -0.129411  0.178655  -0.001343  3.710324  -0.002
N  N53  1  0.22623981  0.39755028  0.62891198  1  -0.129361  0.178727  -0.001344  3.710442  -0.002
N  N54  1  0.15554909  0.96214933  0.57574168  1  -0.215631  -0.249558  -0.005353  3.111822  -0.006
N  N55  1  0.65554483  0.53784669  0.42425742  1  -0.215611  -0.249572  -0.005354  3.111807  -0.006
N  N56  1  0.84444952  0.03785227  0.42425923  1  -0.215638  -0.249533  -0.005354  3.11177  -0.006
N  N57  1  0.34445609  0.46215093  0.57574120  1  -0.215595  -0.24949  -0.005353  3.111887  -0.006
N  N58  1  0.11108085  0.97544684  0.81042091  1  -0.362337  -0.30905  -0.056864  3.621293  -0.075
N  N59  1  0.61108055  0.52455004  0.18957806  1  -0.362378  -0.309007  -0.056861  3.621263  -0.075
N  N60  1  0.88891661  0.02455764  0.18958226  1  -0.362366  -0.309136  -0.056867  3.621387  -0.075
N  N61  1  0.38891691  0.47544731  0.81041617  1  -0.362336  -0.309082  -0.056863  3.621477  -0.075
N  N62  1  0.07740186  0.79860148  0.99945262  1  -0.434602  -0.51722  -0.046611  3.3163  -0.058
N  N63  1  0.57740537  0.70139981  0.00055402  1  -0.434617  -0.517228  -0.046621  3.316217  -0.058
N  N64  1  0.92259675  0.20139371  0.00055581  1  -0.434519  -0.517099  -0.046619  3.315708  -0.058
N  N65  1  0.42258748  0.29859072  0.99944991  1  -0.434603  -0.517209  -0.04661  3.316968  -0.058
