# generated using pymatgen
data_AgH13C13(NO)4
_symmetry_space_group_name_H-M   'P 1'
_cell_length_a   7.01639328
_cell_length_b   8.58328263
_cell_length_c   22.61000000
_cell_angle_alpha   90.00000000
_cell_angle_beta   94.16518555
_cell_angle_gamma   90.00000000
_symmetry_Int_Tables_number   1
_chemical_formula_structural   AgH13C13(NO)4
_chemical_formula_sum   'Ag4 H52 C52 N16 O16'
_cell_volume   1358.06113695
_cell_formula_units_Z   4
loop_
 _symmetry_equiv_pos_site_id
 _symmetry_equiv_pos_as_xyz
  1  'x, y, z'
loop_
 _atom_site_type_symbol
 _atom_site_label
 _atom_site_symmetry_multiplicity
 _atom_site_fract_x
 _atom_site_fract_y
 _atom_site_fract_z
 _atom_site_occupancy
 _atom_site_hle17_bader_spin_density
 _atom_site_hle17_ddec_charge
 _atom_site_hle17_ddec_spin_density
 _atom_site_hle17_ddec_sum_bond_order
 _atom_site_hle17_magmom
 _atom_site_hse06_10hf_bader_spin_density
 _atom_site_hse06_10hf_ddec_charge
 _atom_site_hse06_10hf_ddec_spin_density
 _atom_site_hse06_10hf_ddec_sum_bond_order
 _atom_site_hse06_10hf_magmom
 _atom_site_hse06_bader_spin_density
 _atom_site_hse06_ddec_charge
 _atom_site_hse06_ddec_spin_density
 _atom_site_hse06_ddec_sum_bond_order
 _atom_site_hse06_magmom
 _atom_site_pbe_bader_charge
 _atom_site_pbe_bader_spin_density
 _atom_site_pbe_cm5_charge
 _atom_site_pbe_ddec_charge
 _atom_site_pbe_ddec_spin_density
 _atom_site_pbe_ddec_sum_bond_order
 _atom_site_pbe_magmom
Ag  Ag0  1  0.43211487  0.52845283  0.30159145  1  0  0.574992  0  1.260195  0  0  0.435528  0  1.670932  0  0  0.467787  0  1.628273  0  0.619241  0  0.454692  0.412989  0  1.700206  0
Ag  Ag1  1  0.56788206  0.02845415  0.19840786  1  0  0.575  0  1.260179  0  0  0.435535  0  1.670915  0  0  0.467791  0  1.628258  0  0.619227  0  0.454703  0.412994  0  1.700188  0
Ag  Ag2  1  0.56788920  0.47154570  0.69840847  1  0  0.57501  0  1.260166  0  0  0.435532  0  1.670902  0  0  0.467787  0  1.628248  0  0.619247  0  0.454693  0.412992  0  1.700175  0
Ag  Ag3  1  0.43211344  0.97154671  0.80159142  1  0  0.575015  0  1.260162  0  0  0.435541  0  1.670908  0  0  0.467806  0  1.628235  0  0.619233  0  0.454691  0.413002  0  1.70018  0
H  H4  1  0.12925091  0.46870646  0.74196543  1  0  0.086694  0  0.962162  0  0  0.102357  0  1.017558  0  0  0.104402  0  1.017099  0  0.034361  0  0.095925  0.100864  0  1.018228  0
H  H5  1  0.87074601  0.96870863  0.75803388  1  0  0.086792  0  0.962083  0  0  0.102402  0  1.017531  0  0  0.104448  0  1.017074  0  0.034346  0  0.095956  0.100906  0  1.018206  0
H  H6  1  0.87074458  0.53128974  0.25803385  1  0  0.08678  0  0.962115  0  0  0.102385  0  1.017567  0  0  0.104431  0  1.017109  0  0.034344  0  0.095946  0.100888  0  1.018243  0
H  H7  1  0.12925377  0.03129222  0.24196638  1  0  0.08677  0  0.962108  0  0  0.102375  0  1.017563  0  0  0.104422  0  1.017104  0  0.034339  0  0.095949  0.100878  0  1.018239  0
H  H8  1  0.40439783  0.48686385  0.43302687  1  0  0.074155  0  0.950427  0  0  0.085384  0  1.013586  0  0  0.087517  0  1.010918  0  0.107047  0  0.114653  0.083625  0  1.015889  0
H  H9  1  0.59559909  0.98686719  0.06697332  1  0  0.074191  0  0.950362  0  0  0.085414  0  1.013531  0  0  0.087547  0  1.010862  0  0.107083  0  0.114666  0.083661  0  1.01582  0
H  H10  1  0.59560195  0.51313468  0.56697383  1  0  0.074159  0  0.95037  0  0  0.085389  0  1.013518  0  0  0.087522  0  1.010851  0  0.107075  0  0.114657  0.083629  0  1.015825  0
H  H11  1  0.40439926  0.01313483  0.93302646  1  0  0.074155  0  0.950433  0  0  0.085385  0  1.013585  0  0  0.087519  0  1.010917  0  0.107056  0  0.114659  0.083626  0  1.015892  0
H  H12  1  0.37499456  0.64627722  0.52343668  1  0  0.115373  0  0.969761  0  0  0.128347  0  1.027712  0  0  0.130938  0  1.02774  0  0.08157  0  0.110594  0.126785  0  1.027142  0
H  H13  1  0.62500379  0.14628086  0.97656400  1  0  0.115312  0  0.969711  0  0  0.128281  0  1.027682  0  0  0.130872  0  1.027708  0  0.081613  0  0.110587  0.126719  0  1.027111  0
H  H14  1  0.62500665  0.35372248  0.47656362  1  0  0.115349  0  0.969731  0  0  0.128314  0  1.027701  0  0  0.130908  0  1.027719  0  0.081591  0  0.110584  0.126752  0  1.027131  0
H  H15  1  0.37499599  0.85372349  0.02343627  1  0  0.115372  0  0.969752  0  0  0.12834  0  1.027718  0  0  0.130934  0  1.027736  0  0.081581  0  0.110588  0.126778  0  1.027149  0
H  H16  1  0.12002524  0.40305908  0.52374112  1  0  0.110124  0  0.991289  0  0  0.117289  0  1.055867  0  0  0.120668  0  1.05426  0  0.100247  0  0.102518  0.114952  0  1.05688  0
H  H17  1  0.87997454  0.90306009  0.97625870  1  0  0.110121  0  0.991309  0  0  0.11729  0  1.055886  0  0  0.120669  0  1.054279  0  0.100176  0  0.102526  0.114954  0  1.056898  0
H  H18  1  0.87997454  0.59693945  0.47625870  1  0  0.110107  0  0.991343  0  0  0.117292  0  1.055895  0  0  0.12067  0  1.05429  0  0.100177  0  0.102532  0.114956  0  1.056906  0
H  H19  1  0.12002667  0.09694077  0.02374115  1  0  0.110135  0  0.991278  0  0  0.117298  0  1.055857  0  0  0.120677  0  1.054249  0  0.100256  0  0.102528  0.114962  0  1.05687  0
H  H20  1  0.22599618  0.21795274  0.69998944  1  0  0.107103  0  0.965916  0  0  0.119678  0  1.024782  0  0  0.12268  0  1.023173  0  0.079359  0  0.099958  0.117395  0  1.025705  0
H  H21  1  0.77399931  0.71795376  0.80001028  1  0  0.107198  0  0.965842  0  0  0.119729  0  1.024751  0  0  0.122729  0  1.023147  0  0.079366  0  0.100001  0.117448  0  1.025675  0
H  H22  1  0.77399931  0.78204462  0.30001028  1  0  0.107189  0  0.965859  0  0  0.119719  0  1.024771  0  0  0.122719  0  1.023167  0  0.079367  0  0.100005  0.117437  0  1.025695  0
H  H23  1  0.22599761  0.28204827  0.19998947  1  0  0.107114  0  0.965913  0  0  0.119686  0  1.024781  0  0  0.122689  0  1.023173  0  0.079349  0  0.099978  0.117404  0  1.025705  0
H  H24  1  0.26433933  0.86222373  0.32346623  1  0  0.069218  0  0.939493  0  0  0.080809  0  1.003708  0  0  0.082756  0  1.00113  0  0.099336  0  0.109977  0.079257  0  1.005896  0
H  H25  1  0.73566045  0.36222505  0.17653403  1  0  0.069203  0  0.939505  0  0  0.080805  0  1.003708  0  0  0.082753  0  1.00113  0  0.099309  0  0.109963  0.079252  0  1.005895  0
H  H26  1  0.73566045  0.13777479  0.67653403  1  0  0.069192  0  0.939515  0  0  0.080792  0  1.003722  0  0  0.082739  0  1.001143  0  0.099316  0  0.109966  0.079239  0  1.005908  0
H  H27  1  0.26433790  0.63777697  0.82346576  1  0  0.069203  0  0.939508  0  0  0.080795  0  1.003725  0  0  0.082742  0  1.001147  0  0.09931  0  0.109976  0.079241  0  1.005912  0
H  H28  1  0.22173202  0.03682274  0.40925910  1  0  0.1289  0  0.980138  0  0  0.135116  0  1.04418  0  0  0.139037  0  1.042349  0  0.138495  0  0.107338  0.132673  0  1.044999  0
H  H29  1  0.77826918  0.53682608  0.09074208  1  0  0.12898  0  0.980175  0  0  0.135227  0  1.044163  0  0  0.139152  0  1.042326  0  0.138437  0  0.107387  0.132784  0  1.044983  0
H  H30  1  0.77826776  0.96317462  0.59074116  1  0  0.12892  0  0.98016  0  0  0.135137  0  1.044191  0  0  0.139059  0  1.042361  0  0.138473  0  0.10737  0.132694  0  1.045012  0
H  H31  1  0.22173202  0.46317594  0.90925865  1  0  0.128919  0  0.980059  0  0  0.135137  0  1.044099  0  0  0.139058  0  1.042269  0  0.13849  0  0.107359  0.132695  0  1.044919  0
H  H32  1  0.01989608  0.65298444  0.56612293  1  0  0.107819  0  0.972428  0  0  0.117914  0  1.033642  0  0  0.121156  0  1.03162  0  0.107497  0  0.100516  0.115237  0  1.0354  0
H  H33  1  0.98010656  0.15298459  0.93387651  1  0  0.107815  0  0.972392  0  0  0.117913  0  1.033605  0  0  0.121153  0  1.031586  0  0.10749  0  0.100528  0.115242  0  1.035368  0
H  H34  1  0.98010513  0.34701642  0.43387692  1  0  0.107842  0  0.972491  0  0  0.11794  0  1.033697  0  0  0.12118  0  1.03168  0  0.10748  0  0.100551  0.115268  0  1.035459  0
H  H35  1  0.01989465  0.84701743  0.06612378  1  0  0.107864  0  0.972451  0  0  0.117963  0  1.033652  0  0  0.121205  0  1.031632  0  0.107366  0  0.100557  0.115287  0  1.035412  0
H  H36  1  0.84165283  0.72783226  0.68520653  1  0  0.097099  0  0.971097  0  0  0.115223  0  1.043653  0  0  0.116763  0  1.042542  0  0.003284  0  0.081395  0.113903  0  1.044705  0
H  H37  1  0.15834695  0.22783358  0.81479284  1  0  0.097097  0  0.971096  0  0  0.115217  0  1.043659  0  0  0.116757  0  1.042548  0  0.003292  0  0.081395  0.113898  0  1.04471  0
H  H38  1  0.15834695  0.27216627  0.31479328  1  0  0.097094  0  0.971098  0  0  0.115218  0  1.04365  0  0  0.116756  0  1.042542  0  0.003286  0  0.081395  0.113898  0  1.044702  0
H  H39  1  0.84165283  0.77216728  0.18520653  1  0  0.0971  0  0.971086  0  0  0.115224  0  1.043642  0  0  0.116764  0  1.042531  0  0.003285  0  0.081397  0.113905  0  1.044694  0
H  H40  1  0.02936754  0.83024995  0.65426255  1  0  0.111798  0  0.943396  0  0  0.132245  0  1.002968  0  0  0.134201  0  1.002455  0  0.039406  0  0.089176  0.131899  0  1.001411  0
H  H41  1  0.97063367  0.33025011  0.84573775  1  0  0.111786  0  0.943391  0  0  0.132252  0  1.002942  0  0  0.134202  0  1.002438  0  0.03937  0  0.089174  0.131905  0  1.001385  0
H  H42  1  0.97063367  0.16974858  0.34573775  1  0  0.111817  0  0.943337  0  0  0.132258  0  1.002917  0  0  0.134212  0  1.002407  0  0.039691  0  0.089176  0.13191  0  1.00136  0
H  H43  1  0.02936754  0.66975075  0.15426255  1  0  0.111794  0  0.943406  0  0  0.132234  0  1.002987  0  0  0.13419  0  1.002475  0  0.039394  0  0.089175  0.131888  0  1.001429  0
H  H44  1  0.06302497  0.75146657  0.72716933  1  0  0.101815  0  0.963654  0  0  0.120345  0  1.03272  0  0  0.121462  0  1.03294  0  0.064771  0  0.085066  0.119477  0  1.032915  0
H  H45  1  0.93697481  0.25146906  0.77283049  1  0  0.101828  0  0.963626  0  0  0.120359  0  1.032705  0  0  0.121477  0  1.032923  0  0.064759  0  0.085066  0.119491  0  1.0329  0
H  H46  1  0.93697481  0.24852962  0.27283049  1  0  0.101793  0  0.96359  0  0  0.120313  0  1.032683  0  0  0.12143  0  1.032902  0  0.064761  0  0.085044  0.119445  0  1.032878  0
H  H47  1  0.06302497  0.74853180  0.22716933  1  0  0.101813  0  0.963641  0  0  0.120345  0  1.032705  0  0  0.121462  0  1.032924  0  0.064769  0  0.085067  0.119477  0  1.032899  0
H  H48  1  0.29457428  0.07337519  0.62044050  1  0  0.293475  0  0.930519  0  0  0.27254  0  1.001055  0  0  0.280772  0  0.994392  0  0.491452  0  0.305094  0.267213  0  1.004591  0
H  H49  1  0.70542550  0.57337620  0.87955932  1  0  0.293448  0  0.930522  0  0  0.272513  0  1.001059  0  0  0.280746  0  0.994396  0  0.491452  0  0.305082  0.267186  0  1.004595  0
H  H50  1  0.70542550  0.92662334  0.37955932  1  0  0.29343  0  0.930582  0  0  0.272495  0  1.001121  0  0  0.280727  0  0.994458  0  0.49146  0  0.305059  0.267166  0  1.004657  0
H  H51  1  0.29457428  0.42662466  0.12044050  1  0  0.293476  0  0.930512  0  0  0.272555  0  1.001022  0  0  0.280787  0  0.994359  0  0.491451  0  0.3051  0.267228  0  1.004558  0
H  H52  1  0.34333060  0.88684019  0.56384594  1  0  0.297043  0  0.927901  0  0  0.277511  0  0.994624  0  0  0.286033  0  0.987612  0  0.495918  0  0.308076  0.271346  0  0.999892  0
H  H53  1  0.65667061  0.38684151  0.93615479  1  0  0.297062  0  0.927876  0  0  0.277536  0  0.994594  0  0  0.286054  0  0.987584  0  0.495956  0  0.308103  0.271371  0  0.999862  0
H  H54  1  0.65667061  0.11315950  0.43615435  1  0  0.297058  0  0.927881  0  0  0.27753  0  0.994592  0  0  0.286049  0  0.987584  0  0.495946  0  0.308086  0.271364  0  0.999861  0
H  H55  1  0.34332917  0.61315935  0.06384547  1  0  0.297062  0  0.927896  0  0  0.277523  0  0.994615  0  0  0.286043  0  0.987605  0  0.495941  0  0.30809  0.271358  0  0.999883  0
C  C56  1  0.12733890  0.45567415  0.69389447  1  0  -0.143524  0  3.819877  0  0  -0.160479  0  4.069086  0  0  -0.162259  0  4.090122  0  -0.016339  0  -0.108772  -0.160082  0  4.056162  0
C  C57  1  0.87266088  0.95567399  0.80610535  1  0  -0.143552  0  3.819867  0  0  -0.160463  0  4.06906  0  0  -0.16224  0  4.090086  0  -0.016355  0  -0.108803  -0.160061  0  4.05613  0
C  C58  1  0.87265945  0.54432438  0.30610532  1  0  -0.143559  0  3.819916  0  0  -0.160457  0  4.06911  0  0  -0.162235  0  4.090141  0  -0.016371  0  -0.108775  -0.160055  0  4.056184  0
C  C59  1  0.12733890  0.04432686  0.19389491  1  0  -0.143515  0  3.819812  0  0  -0.160422  0  4.069015  0  0  -0.162197  0  4.09004  0  -0.01662  0  -0.10878  -0.16002  0  4.056087  0
C  C60  1  0.22074601  0.09337570  0.53059689  1  0  0.73001  0  3.849258  0  0  0.657469  0  4.157961  0  0  0.692595  0  4.153195  0  1.857028  0  0.333309  0.633992  0  4.160368  0
C  C61  1  0.77925377  0.59337787  0.96940337  1  0  0.729988  0  3.849234  0  0  0.657452  0  4.157948  0  0  0.692573  0  4.153185  0  1.857038  0  0.333319  0.633971  0  4.160357  0
C  C62  1  0.77925520  0.90662516  0.46940296  1  0  0.729994  0  3.849303  0  0  0.657452  0  4.158002  0  0  0.692577  0  4.153238  0  1.857031  0  0.333293  0.633972  0  4.16041  0
C  C63  1  0.22074601  0.40662531  0.03059645  1  0  0.729952  0  3.849324  0  0  0.657398  0  4.158038  0  0  0.692521  0  4.153276  0  1.856953  0  0.333271  0.63392  0  4.160444  0
C  C64  1  0.36805530  0.61001254  0.42960092  1  0  0.136466  0  3.751904  0  0  0.105432  0  4.001812  0  0  0.114831  0  4.020838  0  0.402409  0  0.038366  0.098959  0  3.989001  0
C  C65  1  0.63194448  0.11001618  0.07039890  1  0  0.136438  0  3.751847  0  0  0.105418  0  4.001733  0  0  0.114816  0  4.020757  0  0.402381  0  0.038364  0.098946  0  3.988927  0
C  C66  1  0.63194591  0.38998599  0.57039937  1  0  0.136517  0  3.751717  0  0  0.105494  0  4.00161  0  0  0.114893  0  4.020633  0  0.402435  0  0.038384  0.09902  0  3.988802  0
C  C67  1  0.36805672  0.88998700  0.92960096  1  0  0.13654  0  3.75183  0  0  0.105508  0  4.001738  0  0  0.114907  0  4.020764  0  0.402411  0  0.038394  0.099035  0  3.988928  0
C  C68  1  0.35142593  0.69913228  0.47978073  1  0  -0.218654  0  3.678823  0  0  -0.235179  0  3.927051  0  0  -0.24563  0  3.946989  0  0.084444  0  -0.09275  -0.227963  0  3.913072  0
C  C69  1  0.64857528  0.19913593  0.02021956  1  0  -0.218556  0  3.678774  0  0  -0.235083  0  3.926983  0  0  -0.245531  0  3.946923  0  0.084499  0  -0.092746  -0.227867  0  3.913004  0
C  C70  1  0.64857671  0.30086624  0.52021960  1  0  -0.218632  0  3.678787  0  0  -0.235151  0  3.927008  0  0  -0.2456  0  3.946949  0  0.084445  0  -0.092735  -0.227935  0  3.91303  0
C  C71  1  0.35142593  0.80086725  0.97978073  1  0  -0.218692  0  3.678774  0  0  -0.235212  0  3.927011  0  0  -0.245662  0  3.946951  0  0.084439  0  -0.092756  -0.227997  0  3.913035  0
C  C72  1  0.12125847  0.41717256  0.57141200  1  0  -0.168714  0  3.73511  0  0  -0.189859  0  3.992438  0  0  -0.194672  0  4.013201  0  -0.021912  0  -0.104733  -0.186868  0  3.977653  0
C  C73  1  0.87874274  0.91717357  0.92858785  1  0  -0.16861  0  3.735087  0  0  -0.189802  0  3.992385  0  0  -0.194617  0  4.013151  0  -0.022194  0  -0.104699  -0.186811  0  3.977603  0
C  C74  1  0.87874274  0.58282597  0.42858785  1  0  -0.168606  0  3.735122  0  0  -0.18978  0  3.992422  0  0  -0.194593  0  4.013186  0  -0.022195  0  -0.104701  -0.186788  0  3.97764  0
C  C75  1  0.12125704  0.08282729  0.07141241  1  0  -0.168651  0  3.735068  0  0  -0.189801  0  3.992363  0  0  -0.194615  0  4.013128  0  -0.022201  0  -0.104693  -0.18681  0  3.97758  0
C  C76  1  0.18178839  0.31350826  0.67037604  1  0  -0.1981  0  3.786339  0  0  -0.2128  0  4.037801  0  0  -0.218073  0  4.058206  0  -0.04924  0  -0.1125  -0.209112  0  4.024012  0
C  C77  1  0.81820996  0.81351044  0.82962330  1  0  -0.198239  0  3.786374  0  0  -0.212959  0  4.037823  0  0  -0.21823  0  4.058225  0  -0.049228  0  -0.112571  -0.209272  0  4.024036  0
C  C78  1  0.81820853  0.68648910  0.32962327  1  0  -0.198201  0  3.786434  0  0  -0.212894  0  4.037883  0  0  -0.218166  0  4.058286  0  -0.049228  0  -0.112561  -0.209207  0  4.024095  0
C  C79  1  0.18178839  0.18649159  0.17037648  1  0  -0.198151  0  3.786359  0  0  -0.212863  0  4.037782  0  0  -0.218135  0  4.058187  0  -0.049246  0  -0.112517  -0.209173  0  4.023992  0
C  C80  1  0.28617314  0.81809726  0.36865893  1  0  0.140256  0  3.741017  0  0  0.107821  0  3.997186  0  0  0.117646  0  4.015411  0  0.429214  0  0.036297  0.101636  0  3.985012  0
C  C81  1  0.71382807  0.31809974  0.13134180  1  0  0.140219  0  3.741091  0  0  0.107773  0  3.997269  0  0  0.117598  0  4.015492  0  0.429157  0  0.036269  0.10159  0  3.985091  0
C  C82  1  0.71382807  0.18190010  0.63134136  1  0  0.140277  0  3.741056  0  0  0.107838  0  3.997226  0  0  0.117664  0  4.015448  0  0.429161  0  0.036289  0.101655  0  3.985049  0
C  C83  1  0.28617171  0.68190228  0.86865846  1  0  0.140284  0  3.740986  0  0  0.10785  0  3.997159  0  0  0.117675  0  4.015381  0  0.429219  0  0.036289  0.101668  0  3.984981  0
C  C84  1  0.17784004  0.29197221  0.60858559  1  0  0.263272  0  3.801791  0  0  0.254339  0  4.049512  0  0  0.262571  0  4.071695  0  0.300927  0  0.091477  0.249276  0  4.034424  0
C  C85  1  0.82215974  0.79197322  0.89141467  1  0  0.263121  0  3.80194  0  0  0.254323  0  4.049485  0  0  0.262557  0  4.071666  0  0.300932  0  0.091486  0.249258  0  4.034397  0
C  C86  1  0.82215974  0.70802632  0.39141423  1  0  0.263105  0  3.801874  0  0  0.25424  0  4.049504  0  0  0.262474  0  4.071683  0  0.300937  0  0.091432  0.249175  0  4.034415  0
C  C87  1  0.17783861  0.20802764  0.10858556  1  0  0.263206  0  3.801832  0  0  0.254326  0  4.04948  0  0  0.262557  0  4.071664  0  0.300923  0  0.091453  0.249262  0  4.034392  0
C  C88  1  0.26321041  0.91623687  0.41637002  1  0  -0.2269  0  3.684425  0  0  -0.250169  0  3.946692  0  0  -0.260058  0  3.964804  0  -0.011168  0  -0.102486  -0.244598  0  3.935217  0
C  C89  1  0.73679080  0.41623935  0.08363027  1  0  -0.226994  0  3.684431  0  0  -0.250277  0  3.946657  0  0  -0.260166  0  3.964772  0  -0.011114  0  -0.102517  -0.244704  0  3.935181  0
C  C90  1  0.73679080  0.08376166  0.58362983  1  0  -0.226903  0  3.684383  0  0  -0.25017  0  3.946664  0  0  -0.260058  0  3.964778  0  -0.011131  0  -0.102504  -0.244599  0  3.935189  0
C  C91  1  0.26320898  0.58376384  0.91636999  1  0  -0.226916  0  3.684327  0  0  -0.250179  0  3.946614  0  0  -0.260067  0  3.964727  0  -0.011156  0  -0.102479  -0.244607  0  3.935138  0
C  C92  1  0.29953722  0.85737710  0.47430513  1  0  0.340057  0  3.761519  0  0  0.325401  0  4.01258  0  0  0.340991  0  4.028609  0  0.405371  0  0.124199  0.314734  0  4.002265  0
C  C93  1  0.70046399  0.35737959  0.02569472  1  0  0.340045  0  3.761522  0  0  0.325396  0  4.012577  0  0  0.340981  0  4.02861  0  0.405356  0  0.124176  0.31473  0  4.00226  0
C  C94  1  0.70046399  0.14262259  0.52569472  1  0  0.340038  0  3.76149  0  0  0.325375  0  4.012556  0  0  0.340961  0  4.02859  0  0.405357  0  0.124189  0.314708  0  4.00224  0
C  C95  1  0.29953722  0.64262244  0.97430513  1  0  0.340078  0  3.761492  0  0  0.325387  0  4.012579  0  0  0.340975  0  4.028613  0  0.405365  0  0.12418  0.31472  0  4.002264  0
C  C96  1  0.06589013  0.58005197  0.65707248  1  0  0.11597  0  3.792637  0  0  0.138792  0  4.033268  0  0  0.137598  0  4.059642  0  -0.023777  0  -0.028676  0.139352  0  4.01594  0
C  C97  1  0.93411108  0.08005212  0.84292693  1  0  0.115894  0  3.792597  0  0  0.138726  0  4.033211  0  0  0.137532  0  4.059586  0  -0.023903  0  -0.028689  0.139287  0  4.015888  0
C  C98  1  0.93410965  0.41994656  0.34292734  1  0  0.115951  0  3.792629  0  0  0.138763  0  4.033256  0  0  0.13757  0  4.059629  0  -0.023876  0  -0.028685  0.139323  0  4.015934  0
C  C99  1  0.06589013  0.91994873  0.15707292  1  0  0.115907  0  3.792612  0  0  0.138716  0  4.033252  0  0  0.137522  0  4.059625  0  -0.023547  0  -0.028713  0.139275  0  4.015929  0
C  C100  1  0.06592443  0.55780640  0.59579151  1  0  -0.113883  0  3.738142  0  0  -0.134878  0  3.988144  0  0  -0.13623  0  4.008887  0  -0.045251  0  -0.098462  -0.133145  0  3.973393  0
C  C101  1  0.93407821  0.05780889  0.90420748  1  0  -0.113865  0  3.738065  0  0  -0.134874  0  3.988096  0  0  -0.136225  0  4.00884  0  -0.044941  0  -0.098508  -0.133153  0  3.973357  0
C  C102  1  0.93407821  0.44219096  0.40420793  1  0  -0.113916  0  3.738174  0  0  -0.134922  0  3.98821  0  0  -0.136275  0  4.008958  0  -0.04495  0  -0.098533  -0.133197  0  3.973465  0
C  C103  1  0.06592157  0.94219314  0.09579233  1  0  -0.113951  0  3.738162  0  0  -0.134953  0  3.988187  0  0  -0.136305  0  4.008933  0  -0.044797  0  -0.098528  -0.133222  0  3.97344  0
C  C104  1  0.99779625  0.73037092  0.68229557  1  0  -0.331549  0  3.727939  0  0  -0.410194  0  3.96426  0  0  -0.412575  0  3.974704  0  -0.079578  0  -0.24764  -0.408595  0  3.956755  0
C  C105  1  0.00220353  0.23037223  0.81770424  1  0  -0.33152  0  3.727822  0  0  -0.41019  0  3.964144  0  0  -0.412564  0  3.974586  0  -0.079466  0  -0.247625  -0.40859  0  3.956638  0
C  C106  1  0.00220353  0.26962761  0.31770469  1  0  -0.33155  0  3.727818  0  0  -0.410177  0  3.964136  0  0  -0.412552  0  3.974577  0  -0.079787  0  -0.247621  -0.408575  0  3.956631  0
C  C107  1  0.99779625  0.76962862  0.18229557  1  0  -0.331545  0  3.72794  0  0  -0.410174  0  3.964252  0  0  -0.412557  0  3.9747  0  -0.079519  0  -0.247643  -0.408575  0  3.956747  0
N  N108  1  0.29217640  0.94280829  0.52573630  1  0  -0.493205  0  3.315676  0  0  -0.435098  0  3.559621  0  0  -0.458396  0  3.564157  0  -1.274585  0  -0.401287  -0.418871  0  3.555773  0
N  N109  1  0.70782338  0.44280961  0.97426396  1  0  -0.493199  0  3.315696  0  0  -0.43511  0  3.559651  0  0  -0.458404  0  3.564196  0  -1.274598  0  -0.401296  -0.418884  0  3.555805  0
N  N110  1  0.70782624  0.05719141  0.47426358  1  0  -0.493233  0  3.315736  0  0  -0.435122  0  3.559686  0  0  -0.458407  0  3.564205  0  -1.274588  0  -0.401305  -0.418895  0  3.555838  0
N  N111  1  0.29217497  0.55719242  0.02573627  1  0  -0.493242  0  3.315769  0  0  -0.435086  0  3.559691  0  0  -0.458375  0  3.564213  0  -1.27459  0  -0.401278  -0.418859  0  3.555843  0
N  N112  1  0.23536476  0.14633562  0.58815903  1  0  -0.496933  0  3.336934  0  0  -0.439713  0  3.583208  0  0  -0.463139  0  3.591602  0  -1.264738  0  -0.406511  -0.424447  0  3.575974  0
N  N113  1  0.76463359  0.64633780  0.91184031  1  0  -0.496884  0  3.337003  0  0  -0.439689  0  3.583223  0  0  -0.463117  0  3.59162  0  -1.264735  0  -0.406522  -0.424417  0  3.575981  0
N  N114  1  0.76463502  0.85366174  0.41184079  1  0  -0.496838  0  3.336952  0  0  -0.43962  0  3.583185  0  0  -0.463047  0  3.591578  0  -1.264722  0  -0.406467  -0.42435  0  3.575946  0
N  N115  1  0.23536619  0.35366306  0.08815906  1  0  -0.496917  0  3.336866  0  0  -0.439714  0  3.583119  0  0  -0.463141  0  3.591513  0  -1.264717  0  -0.406523  -0.424448  0  3.575884  0
N  N116  1  0.33922363  0.66742414  0.37402670  1  0  -0.342887  0  3.373781  0  0  -0.25687  0  3.658851  0  0  -0.280156  0  3.678261  0  -1.188059  0  -0.361517  -0.240947  0  3.64516  0
N  N117  1  0.66077615  0.16742779  0.12597356  1  0  -0.342861  0  3.373699  0  0  -0.256868  0  3.6588  0  0  -0.280154  0  3.678209  0  -1.188037  0  -0.361502  -0.240946  0  3.645111  0
N  N118  1  0.66077758  0.33257323  0.62597359  1  0  -0.342907  0  3.373704  0  0  -0.256904  0  3.658786  0  0  -0.28019  0  3.678195  0  -1.188043  0  -0.361502  -0.24098  0  3.645096  0
N  N119  1  0.33922363  0.83257540  0.87402670  1  0  -0.342937  0  3.373693  0  0  -0.256927  0  3.658777  0  0  -0.280214  0  3.67819  0  -1.188049  0  -0.361536  -0.241004  0  3.645084  0
N  N120  1  0.45044189  0.68482307  0.17939860  1  0  0.694794  0  4.116584  0  0  0.730777  0  4.386129  0  0  0.759758  0  4.394528  0  0.83472  0  0.099291  0.711325  0  4.380267  0
N  N121  1  0.54955646  0.18482206  0.32060030  1  0  0.694633  0  4.116641  0  0  0.730595  0  4.386198  0  0  0.759575  0  4.394601  0  0.834728  0  0.099235  0.711141  0  4.380337  0
N  N122  1  0.54955789  0.31517778  0.82060077  1  0  0.69471  0  4.11672  0  0  0.73065  0  4.386301  0  0  0.759627  0  4.394707  0  0.834736  0  0.099272  0.711197  0  4.380438  0
N  N123  1  0.45044189  0.81517763  0.67939949  1  0  0.694636  0  4.116714  0  0  0.730587  0  4.386277  0  0  0.759565  0  4.394681  0  0.834741  0  0.099246  0.711134  0  4.380413  0
O  O124  1  0.39763290  0.54585876  0.18964043  1  0  -0.468482  0  1.826021  0  0  -0.439502  0  2.052072  0  0  -0.458459  0  2.044042  0  -0.558896  0  -0.179818  -0.426504  0  2.057027  0
O  O125  1  0.60236831  0.04585891  0.31035809  1  0  -0.468397  0  1.826064  0  0  -0.439386  0  2.05208  0  0  -0.458341  0  2.044049  0  -0.558913  0  -0.179737  -0.426385  0  2.05703  0
O  O126  1  0.60237116  0.45413977  0.81035860  1  0  -0.468482  0  1.826133  0  0  -0.439439  0  2.052141  0  0  -0.458392  0  2.044112  0  -0.558901  0  -0.179775  -0.426441  0  2.057093  0
O  O127  1  0.39763004  0.95414078  0.68964169  1  0  -0.468404  0  1.826096  0  0  -0.43938  0  2.052109  0  0  -0.458335  0  2.044079  0  -0.558912  0  -0.179738  -0.426382  0  2.057061  0
O  O128  1  0.46403319  0.73216161  0.12734271  1  0  -0.438015  0  1.792872  0  0  -0.426141  0  2.003984  0  0  -0.44024  0  1.997978  0  -0.525276  0  -0.15965  -0.416555  0  2.008105  0
O  O129  1  0.53596373  0.23215710  0.37265704  1  0  -0.437948  0  1.792755  0  0  -0.426079  0  2.003878  0  0  -0.44018  0  1.997874  0  -0.525215  0  -0.159671  -0.416489  0  2.007997  0
O  O130  1  0.53596373  0.26784042  0.87265704  1  0  -0.437933  0  1.79286  0  0  -0.426059  0  2.003988  0  0  -0.440155  0  1.997981  0  -0.525234  0  -0.159633  -0.41647  0  2.008107  0
O  O131  1  0.46403605  0.76784143  0.62734278  1  0  -0.437932  0  1.792874  0  0  -0.426046  0  2.003978  0  0  -0.440142  0  1.99797  0  -0.525222  0  -0.159638  -0.416457  0  2.008097  0
O  O132  1  0.15217363  0.16855206  0.48748430  1  0  -0.582246  0  1.935005  0  0  -0.528731  0  2.151437  0  0  -0.549809  0  2.144701  0  -1.173686  0  -0.294391  -0.513893  0  2.155614  0
O  O133  1  0.84782472  0.66855424  0.01251504  1  0  -0.582204  0  1.935054  0  0  -0.528712  0  2.1515  0  0  -0.549788  0  2.144766  0  -1.173698  0  -0.294382  -0.51387  0  2.155675  0
O  O134  1  0.84782901  0.83144763  0.51251558  1  0  -0.582217  0  1.935011  0  0  -0.528731  0  2.151477  0  0  -0.549812  0  2.144745  0  -1.173699  0  -0.294365  -0.513889  0  2.155654  0
O  O135  1  0.15217363  0.33144662  0.98748475  1  0  -0.582158  0  1.935038  0  0  -0.528654  0  2.151481  0  0  -0.549729  0  2.144744  0  -1.173615  0  -0.294341  -0.513815  0  2.155656  0
O  O136  1  0.49022405  0.77453933  0.22378664  1  0  -0.473357  0  1.903573  0  0  -0.440703  0  2.162633  0  0  -0.462473  0  2.153218  0  -0.543585  0  -0.188722  -0.425314  0  2.168294  0
O  O137  1  0.50977573  0.27453949  0.27621273  1  0  -0.473318  0  1.903611  0  0  -0.440679  0  2.162699  0  0  -0.46245  0  2.153285  0  -0.543617  0  -0.188729  -0.425291  0  2.16836  0
O  O138  1  0.50977573  0.22545920  0.77621273  1  0  -0.473382  0  1.903573  0  0  -0.440737  0  2.162673  0  0  -0.462507  0  2.153259  0  -0.543621  0  -0.188775  -0.425348  0  2.168333  0
O  O139  1  0.49022405  0.72545904  0.72378709  1  0  -0.473363  0  1.90356  0  0  -0.440709  0  2.162632  0  0  -0.462479  0  2.153219  0  -0.543615  0  -0.188768  -0.42532  0  2.168292  0
