# generated using pymatgen
data_AlH10C19BrO7
_symmetry_space_group_name_H-M   'P 1'
_cell_length_a   6.69680938
_cell_length_b   24.97763360
_cell_length_c   27.05423563
_cell_angle_alpha   95.78729577
_cell_angle_beta   90.00069342
_cell_angle_gamma   89.99780779
_symmetry_Int_Tables_number   1
_chemical_formula_structural   AlH10C19BrO7
_chemical_formula_sum   'Al4 H40 C76 Br4 O28'
_cell_volume   4502.30877134
_cell_formula_units_Z   4
loop_
 _symmetry_equiv_pos_site_id
 _symmetry_equiv_pos_as_xyz
  1  'x, y, z'
loop_
 _atom_site_type_symbol
 _atom_site_label
 _atom_site_symmetry_multiplicity
 _atom_site_fract_x
 _atom_site_fract_y
 _atom_site_fract_z
 _atom_site_occupancy
 _atom_site_pbe_bader_charge
 _atom_site_pbe_bader_spin_density
 _atom_site_pbe_cm5_charge
 _atom_site_pbe_ddec_charge
 _atom_site_pbe_ddec_spin_density
 _atom_site_pbe_ddec_sum_bond_order
 _atom_site_pbe_magmom
Al  Al0  1  0.22382514  0.74990482  0.74887292  1  2.50155  0  0.390713  1.643675  0  2.560153  0
Al  Al1  1  0.78187614  0.24897818  0.25102434  1  2.501798  0  0.39642  1.645828  0  2.564007  0
Al  Al2  1  0.72382302  0.75010573  0.75111831  1  2.501489  0  0.390886  1.643905  0  2.559632  0
Al  Al3  1  0.28187815  0.25102663  0.24897366  1  2.501687  0  0.396372  1.645935  0  2.563945  0
H  H4  1  0.74285311  0.38156111  0.04633359  1  0.080021  0  0.100318  0.108768  0  1.01976  0
H  H5  1  0.25943308  0.61746379  0.95277974  1  0.065746  0  0.100749  0.109945  0  1.018851  0
H  H6  1  0.24282669  0.11844022  0.45365325  1  0.08061  0  0.100345  0.108816  0  1.019711  0
H  H7  1  0.75938479  0.88256495  0.54721750  1  0.06522  0  0.100716  0.109987  0  1.018906  0
H  H8  1  0.30547939  0.44582216  0.10309746  1  0.062355  0  0.10201  0.10461  0  1.002782  0
H  H9  1  0.70124479  0.55116397  0.89499809  1  0.051427  0  0.101859  0.103424  0  1.004787  0
H  H10  1  0.80547349  0.05417710  0.39690387  1  0.062324  0  0.102037  0.104655  0  1.002819  0
H  H11  1  0.20115047  0.94884383  0.60499090  1  0.050822  0  0.101849  0.103369  0  1.004551  0
H  H12  1  0.30744149  0.37805857  0.16391195  1  0.110607  0  0.110467  0.11897  0  0.991491  0
H  H13  1  0.70013833  0.61831812  0.83340878  1  0.12148  0  0.108087  0.112793  0  0.997921  0
H  H14  1  0.80744610  0.12193971  0.33608789  1  0.110537  0  0.110446  0.118906  0  0.991539  0
H  H15  1  0.20007231  0.88169042  0.66657946  1  0.122414  0  0.108104  0.112744  0  0.997782  0
H  H16  1  0.33117712  0.46576216  0.02484295  1  0.030239  0  0.099113  0.09567  0  1.024847  0
H  H17  1  0.67221856  0.53305448  0.97445950  1  0.05213  0  0.098904  0.095466  0  1.024524  0
H  H18  1  0.83113156  0.03424592  0.47516546  1  0.030602  0  0.099157  0.09574  0  1.024599  0
H  H19  1  0.17215952  0.96696815  0.52552991  1  0.051797  0  0.098866  0.095352  0  1.024556  0
H  H20  1  0.31412826  0.53280259  0.96451606  1  0.051894  0  0.098265  0.095017  0  1.024441  0
H  H21  1  0.68916588  0.46608761  0.03488393  1  0.061146  0  0.098439  0.095005  0  1.023655  0
H  H22  1  0.81406109  0.96721455  0.53549934  1  0.051858  0  0.098391  0.095172  0  1.024476  0
H  H23  1  0.18914637  0.03392819  0.46510444  1  0.061041  0  0.098504  0.094982  0  1.023895  0
H  H24  1  0.71673632  0.59017172  0.53511314  1  0.090255  0  0.111089  0.11555  0  0.980986  0
H  H25  1  0.30430922  0.46479821  0.41655364  1  0.067584  0  0.110218  0.113952  0  0.982732  0
H  H26  1  0.21679019  0.90981310  0.96490289  1  0.090387  0  0.111025  0.115662  0  0.980935  0
H  H27  1  0.80431718  0.03519544  0.08345139  1  0.067415  0  0.110197  0.11387  0  0.982675  0
H  H28  1  0.69849068  0.66227973  0.60593512  1  0.113878  0  0.113456  0.11736  0  0.991777  0
H  H29  1  0.31095682  0.39273677  0.34612288  1  0.098019  0  0.113371  0.117957  0  0.987647  0
H  H30  1  0.19850799  0.83771500  0.89407388  1  0.113626  0  0.113505  0.117369  0  0.991779  0
H  H31  1  0.81097742  0.10726856  0.15387215  1  0.097878  0  0.113395  0.117862  0  0.987645  0
H  H32  1  0.26420233  0.53206908  0.59508663  1  0.06658  0  0.113711  0.122552  0  0.980048  0
H  H33  1  0.74123731  0.40349638  0.46432414  1  0.081713  0  0.112825  0.122038  0  0.98178  0
H  H34  1  0.76414993  0.96793782  0.90490533  1  0.067002  0  0.113728  0.12261  0  0.980101  0
H  H35  1  0.24123946  0.09650267  0.03567124  1  0.08126  0  0.112806  0.122051  0  0.981718  0
H  H36  1  0.29153398  0.60005167  0.74765732  1  0.614001  0  0.349778  0.391683  0  0.838993  0
H  H37  1  0.66483836  0.24523487  0.40300462  1  0.623594  0  0.331065  0.369335  0  0.888506  0
H  H38  1  0.79130542  0.89996259  0.75232428  1  0.612277  0  0.349664  0.391543  0  0.839879  0
H  H39  1  0.16486715  0.25477592  0.09699784  1  0.623726  0  0.331094  0.36932  0  0.888449  0
H  H40  1  0.48238496  0.68528683  0.72064885  1  0.6246  0  0.331937  0.409417  0  0.910313  0
H  H41  1  0.53373441  0.31610477  0.27484756  1  0.617868  0  0.352515  0.431288  0  0.851609  0
H  H42  1  0.98236168  0.81473096  0.77932869  1  0.625086  0  0.332059  0.409648  0  0.909988  0
H  H43  1  0.03375071  0.18389025  0.22516783  1  0.617781  0  0.352537  0.431304  0  0.851677  0
C  C44  1  0.46862148  0.81679598  0.82038102  1  1.598738  0  0.270001  0.643107  0  4.107537  0
C  C45  1  0.53307933  0.18277882  0.17904528  1  1.566964  0  0.270677  0.64673  0  4.092006  0
C  C46  1  0.96862102  0.68321265  0.67961432  1  1.598071  0  0.270119  0.643274  0  4.106869  0
C  C47  1  0.03307083  0.31722531  0.32095008  1  1.566812  0  0.270564  0.6466  0  4.092214  0
C  C48  1  0.47720725  0.81259679  0.68677402  1  1.593963  0  0.260522  0.644166  0  4.105748  0
C  C49  1  0.52726198  0.18994373  0.31502601  1  1.592853  0  0.258217  0.63631  0  4.122114  0
C  C50  1  0.97721209  0.68741512  0.81321168  1  1.592197  0  0.260631  0.644263  0  4.105765  0
C  C51  1  0.02723338  0.31005939  0.18497047  1  1.592531  0  0.258234  0.636406  0  4.122381  0
C  C52  1  0.86381051  0.34581935  0.10841677  1  -0.12246  0  -0.012919  0.089539  0  3.969649  0
C  C53  1  0.13982709  0.65194856  0.88984059  1  -0.073671  0  -0.008715  0.100468  0  3.950823  0
C  C54  1  0.36378001  0.15418724  0.39157011  1  -0.122997  0  -0.013052  0.089384  0  3.97004  0
C  C55  1  0.63980374  0.84806519  0.61015175  1  -0.073453  0  -0.00871  0.100575  0  3.950534  0
C  C56  1  0.86473897  0.38277727  0.07307900  1  -0.006474  0  -0.101508  -0.195964  0  3.980095  0
C  C57  1  0.13862087  0.61568368  0.92571722  1  0.025519  0  -0.101374  -0.199386  0  3.985458  0
C  C58  1  0.36470466  0.11723339  0.42690863  1  -0.00587  0  -0.101419  -0.195938  0  3.980051  0
C  C59  1  0.63858642  0.88433820  0.57427997  1  0.025574  0  -0.101562  -0.199892  0  3.985278  0
C  C60  1  0.02026311  0.42010264  0.07080205  1  -0.001366  0  -0.001566  0.095053  0  3.999198  0
C  C61  1  0.98346260  0.57820645  0.92806129  1  -0.059608  0  -0.002847  0.092332  0  4.003495  0
C  C62  1  0.52023603  0.07990398  0.42919258  1  -0.002781  0  -0.001309  0.095455  0  3.998704  0
C  C63  1  0.48339699  0.92180824  0.57193631  1  -0.058855  0  -0.002838  0.092571  0  4.003243  0
C  C64  1  0.18189521  0.41750004  0.10371385  1  -0.031366  0  -0.094599  -0.143998  0  3.986948  0
C  C65  1  0.82367020  0.57987728  0.89451478  1  -0.019358  0  -0.0949  -0.143852  0  3.990674  0
C  C66  1  0.68189221  0.08250005  0.39628412  1  -0.030407  0  -0.094676  -0.144176  0  3.986711  0
C  C67  1  0.32360287  0.92013294  0.60547794  1  -0.020042  0  -0.094699  -0.143881  0  3.990331  0
C  C68  1  0.18256451  0.38011051  0.13833828  1  -0.050652  0  -0.080715  -0.072568  0  3.990456  0
C  C69  1  0.82365793  0.61682201  0.85945032  1  -0.011188  0  -0.079581  -0.071654  0  3.993727  0
C  C70  1  0.68256533  0.11988905  0.36165858  1  -0.050658  0  -0.08074  -0.07247  0  3.990338  0
C  C71  1  0.32361813  0.88318918  0.64054018  1  -0.011745  0  -0.079774  -0.071469  0  3.993286  0
C  C72  1  0.02194979  0.34449386  0.14268220  1  -0.018328  0  -0.027413  -0.114304  0  3.96643  0
C  C73  1  0.98291677  0.65276025  0.85525524  1  -0.026038  0  -0.019548  -0.091287  0  3.939506  0
C  C74  1  0.52194648  0.15550749  0.35731204  1  -0.018465  0  -0.027406  -0.11431  0  3.966324  0
C  C75  1  0.48288560  0.84725135  0.64473195  1  -0.026099  0  -0.019502  -0.091501  0  3.939425  0
C  C76  1  0.18590077  0.48095217  0.01454824  1  0.009333  0  -0.08973  -0.123897  0  3.993403  0
C  C77  1  0.81744116  0.51793959  0.98484767  1  -0.059822  0  -0.089495  -0.123657  0  3.991149  0
C  C78  1  0.68585761  0.01906618  0.48546391  1  0.009189  0  -0.089957  -0.1243  0  3.993164  0
C  C79  1  0.31738419  0.98207932  0.51514694  1  -0.059861  0  -0.08957  -0.123779  0  3.991393  0
C  C80  1  0.17619676  0.51889559  0.98041844  1  -0.088482  0  -0.089917  -0.12121  0  3.986911  0
C  C81  1  0.82713471  0.48001494  0.01900724  1  -0.024137  0  -0.089565  -0.120578  0  3.98577  0
C  C82  1  0.67613735  0.98112118  0.51959174  1  -0.087439  0  -0.090127  -0.121589  0  3.986873  0
C  C83  1  0.32709102  0.01999328  0.48098298  1  -0.024516  0  -0.089638  -0.120525  0  3.985801  0
C  C84  1  0.99192538  0.53829099  0.96469251  1  0.009632  0  -0.006302  0.068166  0  3.994956  0
C  C85  1  0.01142402  0.46050059  0.03461135  1  0.022545  0  -0.006785  0.067163  0  3.995545  0
C  C86  1  0.49185869  0.96172535  0.53530658  1  0.0089  0  -0.00595  0.068905  0  3.994676  0
C  C87  1  0.51138759  0.03951507  0.46538813  1  0.022798  0  -0.006769  0.067177  0  3.995507  0
C  C88  1  0.83211008  0.59351551  0.56362721  1  -0.038301  0  -0.074573  -0.119513  0  3.925844  0
C  C89  1  0.18242715  0.43591395  0.41131209  1  0.013906  0  -0.07647  -0.123649  0  3.927397  0
C  C90  1  0.33213376  0.90647626  0.93638143  1  -0.038171  0  -0.074603  -0.119869  0  3.92585  0
C  C91  1  0.68244288  0.06408652  0.08868960  1  0.001607  0  -0.07641  -0.123621  0  3.927376  0
C  C92  1  0.82172092  0.63367726  0.60298413  1  -0.031788  0  -0.069843  -0.065131  0  3.977686  0
C  C93  1  0.18612955  0.39570975  0.37196208  1  -0.025977  0  -0.069067  -0.052417  0  3.968544  0
C  C94  1  0.32172944  0.86631735  0.89701969  1  -0.031646  0  -0.069767  -0.064929  0  3.977508  0
C  C95  1  0.68614550  0.10429614  0.12803442  1  -0.013672  0  -0.069048  -0.052092  0  3.968128  0
C  C96  1  0.97056013  0.63802114  0.63938015  1  0.035181  0  -0.002769  -0.054109  0  3.925451  0
C  C97  1  0.03183544  0.35784903  0.36521646  1  0.030838  0  -0.005596  -0.065025  0  3.928819  0
C  C98  1  0.47054093  0.86197937  0.86061814  1  0.034749  0  -0.002862  -0.054238  0  3.925703  0
C  C99  1  0.53183742  0.14215792  0.13477891  1  0.03172  0  -0.005645  -0.065159  0  3.928489  0
C  C100  1  0.12860286  0.60061672  0.63674578  1  -0.04019  0  -0.00078  -0.027936  0  3.95885  0
C  C101  1  0.87251008  0.36051770  0.39940000  1  0.004373  0  -0.000737  -0.026123  0  3.95653  0
C  C102  1  0.62855608  0.89938888  0.86324765  1  -0.03991  0  -0.000839  -0.02781  0  3.958622  0
C  C103  1  0.37251560  0.13948944  0.10059319  1  0.003567  0  -0.000602  -0.025857  0  3.956273  0
C  C104  1  0.14153200  0.56087658  0.59700988  1  0.006038  0  -0.072556  -0.145038  0  3.899526  0
C  C105  1  0.86562999  0.40152570  0.43823632  1  0.002147  0  -0.074227  -0.149209  0  3.901507  0
C  C106  1  0.64150642  0.93912404  0.90298725  1  0.005687  0  -0.072447  -0.145057  0  3.899512  0
C  C107  1  0.36564288  0.09847676  0.06176094  1  0.002764  0  -0.074177  -0.149317  0  3.901384  0
C  C108  1  0.99314380  0.55694276  0.55979557  1  0.178331  0  0.006337  0.147737  0  4.118354  0
C  C109  1  0.02055860  0.43978819  0.44477517  1  0.104906  0  0.006185  0.149476  0  4.119031  0
C  C110  1  0.49315042  0.94305352  0.94021088  1  0.178325  0  0.006327  0.147746  0  4.118393  0
C  C111  1  0.52057218  0.06021252  0.05522798  1  0.104672  0  0.006132  0.149435  0  4.118961  0
C  C112  1  0.00467520  0.51616314  0.51948510  1  0.128566  0  -0.041296  -0.106319  0  4.111118  0
C  C113  1  0.01292445  0.48097263  0.48481686  1  -0.514516  0  -0.03972  -0.100978  0  4.107238  0
C  C114  1  0.50468663  0.98383047  0.98052387  1  0.12779  0  -0.041315  -0.106346  0  4.111422  0
C  C115  1  0.51293936  0.01902754  0.01518406  1  -0.514044  0  -0.039743  -0.100936  0  4.107232  0
C  C116  1  0.27898641  0.60218117  0.67774642  1  1.492345  0  0.240599  0.589223  0  4.125986  0
C  C117  1  0.70877002  0.31950252  0.39695959  1  1.521827  0  0.237073  0.588783  0  4.123835  0
C  C118  1  0.77887394  0.89783062  0.82223293  1  1.479722  0  0.240597  0.589153  0  4.125922  0
C  C119  1  0.20876688  0.18050566  0.10302727  1  1.521469  0  0.237256  0.588745  0  4.123957  0
Br  Br120  1  0.64710681  0.29652613  0.10455249  1  -0.000679  0  0.055336  -0.020726  0  1.597806  0
Br  Br121  1  0.35906782  0.70084410  0.89298681  1  -0.039276  0  0.049904  -0.032002  0  1.472779  0
Br  Br122  1  0.14704894  0.20347380  0.39542840  1  -0.000897  0  0.055294  -0.020755  0  1.597967  0
Br  Br123  1  0.85904645  0.79916890  0.60701001  1  -0.039132  0  0.049971  -0.031886  0  1.47258  0
O  O124  1  0.64417316  0.80098694  0.70534959  1  -1.250034  0  -0.241182  -0.606252  0  2.424878  0
O  O125  1  0.36132188  0.20250856  0.29673610  1  -1.251689  0  -0.236874  -0.588935  0  2.400451  0
O  O126  1  0.14419168  0.69903128  0.79464388  1  -1.250159  0  -0.241333  -0.606555  0  2.424991  0
O  O127  1  0.86131851  0.29750081  0.20325784  1  -1.25152  0  -0.236908  -0.588853  0  2.400932  0
O  O128  1  0.30107633  0.79935404  0.80406630  1  -1.254366  0  -0.224142  -0.575477  0  2.379141  0
O  O129  1  0.70044716  0.19575690  0.19889747  1  -1.249253  0  -0.228704  -0.584958  0  2.36023  0
O  O130  1  0.80109765  0.70065916  0.69592161  1  -1.25425  0  -0.224163  -0.575467  0  2.379515  0
O  O131  1  0.20045943  0.30424876  0.30109866  1  -1.249047  0  -0.228707  -0.584952  0  2.360035  0
O  O132  1  0.30528934  0.79942842  0.70168006  1  -1.251118  0  -0.235515  -0.582552  0  2.329831  0
O  O133  1  0.70030435  0.20214108  0.29996312  1  -1.248597  0  -0.238494  -0.593868  0  2.361155  0
O  O134  1  0.80530507  0.70057914  0.79830411  1  -1.250272  0  -0.235525  -0.582411  0  2.32985  0
O  O135  1  0.20029463  0.29786541  0.20004081  1  -1.248218  0  -0.238442  -0.593943  0  2.361036  0
O  O136  1  0.13900466  0.70112080  0.69437914  1  -1.258481  0  -0.230003  -0.595765  0  2.389532  0
O  O137  1  0.86337105  0.29948717  0.30537579  1  -1.2578  0  -0.22985  -0.594322  0  2.375834  0
O  O138  1  0.63897613  0.79888398  0.80561540  1  -1.258937  0  -0.22993  -0.595626  0  2.390143  0
O  O139  1  0.36336084  0.20051909  0.19461925  1  -1.257595  0  -0.229974  -0.59447  0  2.375426  0
O  O140  1  0.47418330  0.71674746  0.74506106  1  -1.432874  0  -0.453851  -0.984773  0  2.177091  0
O  O141  1  0.53323810  0.28283029  0.25297846  1  -1.419458  0  -0.447463  -0.979748  0  2.173443  0
O  O142  1  0.97417345  0.78326064  0.75492982  1  -1.433396  0  -0.453923  -0.984988  0  2.177068  0
O  O143  1  0.03324506  0.21717402  0.24702247  1  -1.419326  0  -0.447483  -0.979818  0  2.173635  0
O  O144  1  0.45835037  0.60944676  0.67323739  1  -1.113069  0  -0.275481  -0.480197  0  2.124735  0
O  O145  1  0.19107654  0.59314847  0.72137294  1  -1.108154  0  -0.330051  -0.476308  0  2.221294  0
O  O146  1  0.53305572  0.32913999  0.39016916  1  -1.119813  0  -0.274129  -0.47774  0  2.151098  0
O  O147  1  0.77727130  0.27058801  0.40693730  1  -1.126769  0  -0.329385  -0.467352  0  2.306211  0
O  O148  1  0.95824648  0.89056532  0.82672491  1  -1.113749  0  -0.275571  -0.480155  0  2.125253  0
O  O149  1  0.69088063  0.90685799  0.77861344  1  -1.092841  0  -0.329802  -0.476148  0  2.221822  0
O  O150  1  0.03304516  0.17086987  0.10980468  1  -1.119734  0  -0.274502  -0.477945  0  2.150914  0
O  O151  1  0.27729951  0.22942202  0.09306406  1  -1.126621  0  -0.329311  -0.46724  0  2.306289  0
