# generated using pymatgen
data_Cu3H26C18N6O13
_symmetry_space_group_name_H-M   'P 1'
_cell_length_a   10.97887549
_cell_length_b   10.97909177
_cell_length_c   12.46321788
_cell_angle_alpha   105.44930680
_cell_angle_beta   105.47101534
_cell_angle_gamma   105.39547404
_symmetry_Int_Tables_number   1
_chemical_formula_structural   Cu3H26C18N6O13
_chemical_formula_sum   'Cu6 H52 C36 N12 O26'
_cell_volume   1300.74036317
_cell_formula_units_Z   2
loop_
 _symmetry_equiv_pos_site_id
 _symmetry_equiv_pos_as_xyz
  1  'x, y, z'
loop_
 _atom_site_type_symbol
 _atom_site_label
 _atom_site_symmetry_multiplicity
 _atom_site_fract_x
 _atom_site_fract_y
 _atom_site_fract_z
 _atom_site_occupancy
 _atom_site_pbe_bader_charge
 _atom_site_pbe_bader_spin_density
 _atom_site_pbe_cm5_charge
 _atom_site_pbe_ddec_charge
 _atom_site_pbe_ddec_spin_density
 _atom_site_pbe_ddec_sum_bond_order
 _atom_site_pbe_magmom
Cu  Cu0  1  0.26041998  0.18478951  0.28700644  1  1.018135  0.566855  0.714839  0.838826  0.738386  2.137383  0.565
Cu  Cu1  1  0.81532928  0.73963941  0.21294958  1  1.018541  0.566919  0.714853  0.838847  0.738412  2.137898  0.565
Cu  Cu2  1  0.73961372  0.81524289  0.71300785  1  1.017803  0.566879  0.714953  0.839017  0.738445  2.137586  0.565
Cu  Cu3  1  0.18464827  0.26036226  0.78706845  1  1.018598  0.566923  0.714834  0.838827  0.738397  2.137675  0.565
Cu  Cu4  1  0.65278078  0.34719263  0.74996812  1  1.084156  -0.587317  0.710373  0.910336  -0.774933  2.158078  -0.586
Cu  Cu5  1  0.34715920  0.65276925  0.25001658  1  1.084309  -0.5874  0.710262  0.910852  -0.775044  2.157395  -0.586
H  H6  1  0.16074816  0.94091903  0.13983525  1  0.474607  0.000691  0.289073  0.33714  0.000869  0.95047  0.001
H  H7  1  0.05924138  0.83927655  0.36008805  1  0.473771  0.000695  0.288421  0.336428  0.000873  0.951119  0.001
H  H8  1  0.83932263  0.05914256  0.86017207  1  0.474643  0.000693  0.288999  0.337103  0.00087  0.950624  0.001
H  H9  1  0.94074860  0.16073862  0.63989272  1  0.473141  0.000694  0.288404  0.336243  0.000871  0.951264  0.001
H  H10  1  0.03553173  0.99989745  0.13756059  1  0.478871  0.000517  0.285845  0.339572  0.000846  0.980563  0.001
H  H11  1  0.00026323  0.96449677  0.36229045  1  0.479644  0.000513  0.285673  0.339407  0.000848  0.980313  0.001
H  H12  1  0.96451811  0.00013582  0.86244651  1  0.478458  0.000519  0.285842  0.339521  0.000845  0.980382  0.001
H  H13  1  0.99971851  0.03551469  0.63764340  1  0.479596  0.000518  0.285709  0.339244  0.000849  0.980505  0.001
H  H14  1  0.14390726  0.05128124  0.07266749  1  0.456892  -0.000621  0.288484  0.32471  -7.4e-05  0.956278  -0.001
H  H15  1  0.94893140  0.85621443  0.42727399  1  0.455326  -0.000627  0.288642  0.325038  -7.7e-05  0.955341  -0.001
H  H16  1  0.85614597  0.94879161  0.92735521  1  0.457315  -0.000623  0.288595  0.324904  -7.4e-05  0.956135  -0.001
H  H17  1  0.05109863  0.14388010  0.57273872  1  0.456154  -0.000625  0.288575  0.325108  -7.7e-05  0.955566  -0.001
H  H18  1  0.33549278  0.34816375  0.49950536  1  0.452289  0.000515  0.292269  0.334764  0.000665  0.950995  0.0
H  H19  1  0.65241685  0.66496738  0.00029265  1  0.45043  0.000516  0.292469  0.33527  0.000668  0.951402  0.0
H  H20  1  0.66452273  0.65180975  0.50051818  1  0.452321  0.000515  0.292211  0.334682  0.000666  0.951076  0.0
H  H21  1  0.34771014  0.33520624  0.99971070  1  0.451641  0.000514  0.292422  0.335296  0.000668  0.951248  0.0
H  H22  1  0.47468987  0.32874628  0.47875137  1  0.487912  0.000519  0.285656  0.332868  0.000623  0.971776  0.001
H  H23  1  0.67152030  0.52558211  0.02096629  1  0.488129  0.000517  0.285813  0.333106  0.000626  0.971772  0.001
H  H24  1  0.52532681  0.67125879  0.52126378  1  0.487502  0.00052  0.285675  0.332772  0.000625  0.971964  0.001
H  H25  1  0.32850270  0.47451661  0.97895509  1  0.487308  0.00052  0.285711  0.333052  0.000625  0.971731  0.001
H  H26  1  0.40218108  0.42220424  0.41759860  1  0.433683  -0.000169  0.295325  0.321489  0.000203  0.952736  0.0
H  H27  1  0.57795292  0.59811617  0.08186529  1  0.433271  -0.000188  0.295513  0.322186  0.000199  0.951499  0.0
H  H28  1  0.59781473  0.57782901  0.58246078  1  0.433976  -0.00017  0.295255  0.321487  0.000202  0.95267  0.0
H  H29  1  0.42202500  0.40195635  0.91801133  1  0.433027  -0.000187  0.295415  0.321925  0.000199  0.95174  0.0
H  H30  1  0.43426846  0.15662953  0.72981068  1  0.471813  -0.000515  0.289763  0.335202  -0.000617  0.961197  0.0
H  H31  1  0.84335856  0.56565194  0.77011136  1  0.472118  -0.000506  0.289792  0.33532  -0.000615  0.961058  0.0
H  H32  1  0.56573740  0.84344791  0.27044753  1  0.472946  -0.000516  0.290048  0.335793  -0.000618  0.961182  0.0
H  H33  1  0.15660479  0.43416714  0.22973067  1  0.471201  -0.000514  0.289743  0.335162  -0.000618  0.961334  0.0
H  H34  1  0.44510605  0.13937911  0.59676711  1  0.412474  -0.000748  0.308653  0.345785  -0.000647  0.897091  0.0
H  H35  1  0.86072149  0.55481749  0.90317521  1  0.413351  -0.000751  0.308782  0.345863  -0.000648  0.897142  0.0
H  H36  1  0.55470868  0.86061941  0.40342391  1  0.411651  -0.00075  0.308955  0.346062  -0.000648  0.897229  0.0
H  H37  1  0.13942780  0.44497192  0.09667772  1  0.441282  -0.000621  0.308848  0.346099  -0.000649  0.897085  0.0
H  H38  1  0.54640329  0.09583612  0.68948877  1  0.436674  -0.000401  0.302294  0.33537  -0.000494  0.931261  0.0
H  H39  1  0.90416008  0.45350152  0.81043403  1  0.431911  -0.0004  0.302193  0.335115  -0.000494  0.931563  0.0
H  H40  1  0.45354392  0.90423042  0.31065207  1  0.435429  -0.000418  0.302031  0.335291  -0.000497  0.931137  0.0
H  H41  1  0.09574993  0.54621005  0.18925565  1  0.436098  -0.000411  0.302436  0.335594  -0.000493  0.93106  0.0
H  H42  1  0.42442932  0.44231169  0.71281541  1  0.637371  7.7e-05  0.280447  0.383806  9.7e-05  0.964848  0.0
H  H43  1  0.55777287  0.57562088  0.78690097  1  0.627761  8e-05  0.280632  0.383784  9.8e-05  0.964671  0.0
H  H44  1  0.57558048  0.55775158  0.28717002  1  0.637532  7.7e-05  0.280456  0.38391  9.7e-05  0.964706  0.0
H  H45  1  0.44226794  0.42441756  0.21305381  1  0.627967  8e-05  0.28063  0.383788  9.8e-05  0.964687  0.0
H  H46  1  0.98263325  0.42350767  0.27796725  1  0.069653  0.00059  0.106403  0.101217  0.00044  1.044896  0.0
H  H47  1  0.57662696  0.01731391  0.22204436  1  0.069847  0.000588  0.106376  0.101235  0.00044  1.044961  0.0
H  H48  1  0.01739812  0.57664137  0.72220135  1  0.069001  0.000586  0.10636  0.100891  0.000437  1.045206  0.0
H  H49  1  0.42339158  0.98261318  0.77786553  1  0.069685  0.000585  0.106382  0.101006  0.000437  1.045263  0.0
H  H50  1  0.70000871  0.45368798  0.45465242  1  0.104517  -0.000222  0.10354  0.101264  -0.000202  1.038337  0.0
H  H51  1  0.54629044  0.29998171  0.04535707  1  0.104536  -0.000223  0.10347  0.101102  -0.000203  1.038258  0.0
H  H52  1  0.29987842  0.54616777  0.54540502  1  0.104482  -0.000224  0.103671  0.1014  -0.000203  1.038592  0.0
H  H53  1  0.45374932  0.70007730  0.95469054  1  0.104185  -0.000225  0.103498  0.101165  -0.000203  1.0384  0.0
H  H54  1  0.88207460  0.15440969  0.46201703  1  0.118322  0.000514  0.109643  0.104697  0.000479  1.042568  0.0
H  H55  1  0.84563214  0.11800382  0.03799092  1  0.118204  0.000515  0.109702  0.104672  0.00048  1.042523  0.0
H  H56  1  0.11782859  0.84543033  0.53786156  1  0.11858  0.000513  0.109588  0.104631  0.000479  1.042803  0.0
H  H57  1  0.15444335  0.88210280  0.96202162  1  0.118585  0.000515  0.1096  0.1047  0.00048  1.042623  0.0
C  C58  1  0.94823703  0.28592527  0.37163500  1  0.004186  0.009418  -0.019955  -0.044573  0.006635  3.991822  0.008
C  C59  1  0.71415307  0.05180730  0.12837922  1  0.003262  0.009407  -0.019834  -0.044595  0.006628  3.992079  0.008
C  C60  1  0.05174560  0.71407809  0.62839665  1  0.004996  0.00941  -0.020217  -0.045008  0.00663  3.992394  0.008
C  C61  1  0.28590792  0.94823496  0.87159402  1  0.003169  0.009408  -0.020045  -0.044676  0.006629  3.991597  0.008
C  C62  1  0.92786547  0.38858461  0.33128006  1  -0.032249  -0.000731  -0.068186  -0.08173  -0.000208  3.921868  -0.001
C  C63  1  0.61149138  0.07212087  0.16872546  1  -0.030245  -0.000728  -0.068345  -0.081994  -0.000207  3.921874  -0.001
C  C64  1  0.07212738  0.61147418  0.66882071  1  -0.035684  -0.000728  -0.067836  -0.081192  -0.000207  3.921991  -0.001
C  C65  1  0.38854025  0.92785972  0.83122649  1  -0.03194  -0.000728  -0.06802  -0.08144  -0.000208  3.921845  -0.001
C  C66  1  0.83635737  0.44713907  0.35877299  1  0.013747  0.00901  -0.019813  -0.042193  0.006403  3.995572  0.007
C  C67  1  0.55289910  0.16361439  0.14122059  1  0.011573  0.009023  -0.020058  -0.042394  0.00641  3.995513  0.007
C  C68  1  0.16359437  0.55286368  0.64133073  1  0.016493  0.009011  -0.019999  -0.042333  0.006405  3.99472  0.007
C  C69  1  0.44712817  0.83638182  0.85875886  1  0.013572  0.009012  -0.019989  -0.042457  0.006404  3.995873  0.007
C  C70  1  0.76720710  0.40462463  0.42927410  1  -0.080621  -0.000364  -0.074017  -0.091193  -0.00038  3.924934  0.0
C  C71  1  0.59537753  0.23278261  0.07071504  1  -0.080205  -0.000367  -0.073851  -0.090872  -0.000382  3.925099  0.0
C  C72  1  0.23271102  0.59528477  0.57076782  1  -0.073646  -0.000366  -0.073919  -0.090917  -0.00038  3.924938  0.0
C  C73  1  0.40466554  0.76725949  0.92930050  1  -0.074094  -0.000366  -0.074034  -0.09097  -0.000382  3.925517  0.0
C  C74  1  0.78460238  0.30019366  0.46796790  1  0.013452  -0.006751  -0.020217  -0.033132  -0.004897  3.973257  -0.005
C  C75  1  0.69980204  0.21543499  0.03203009  1  0.012952  -0.006748  -0.020321  -0.033011  -0.004895  3.973349  -0.005
C  C76  1  0.21529333  0.69965536  0.53200411  1  0.008483  -0.006754  -0.020249  -0.033582  -0.0049  3.974917  -0.005
C  C77  1  0.30025944  0.78464436  0.96799285  1  0.007557  -0.006748  -0.020253  -0.033354  -0.004897  3.97375  -0.005
C  C78  1  0.87248337  0.23909357  0.43594187  1  -0.044501  -0.000758  -0.070196  -0.088157  -0.000617  3.925029  0.0
C  C79  1  0.76094967  0.12756631  0.06406241  1  -0.043821  -0.00076  -0.06996  -0.087799  -0.000619  3.924415  0.0
C  C80  1  0.12744333  0.76080909  0.56401383  1  -0.044418  -0.000756  -0.070099  -0.087836  -0.000617  3.925414  0.0
C  C81  1  0.23911771  0.87251118  0.93594463  1  -0.043688  -0.00076  -0.070056  -0.088025  -0.000618  3.925163  0.0
C  C82  1  0.05289407  0.22830160  0.35135355  1  1.541759  -0.002372  0.203096  0.568126  -0.000919  4.208742  -0.004
C  C83  1  0.77181892  0.94719349  0.14869571  1  1.542791  -0.002376  0.202836  0.567992  -0.000926  4.208264  -0.004
C  C84  1  0.94710738  0.77172400  0.64866765  1  1.541103  -0.002373  0.203066  0.56816  -0.00092  4.208945  -0.004
C  C85  1  0.22827486  0.05289547  0.85129211  1  1.54095  -0.002382  0.203174  0.568171  -0.000928  4.208122  -0.004
C  C86  1  0.81346447  0.55635818  0.31548096  1  1.529736  -0.00171  0.201786  0.564849  -0.000307  4.197522  -0.004
C  C87  1  0.44370527  0.18652324  0.18451258  1  1.530712  -0.001721  0.20196  0.565118  -0.00031  4.197404  -0.004
C  C88  1  0.18648476  0.44365607  0.68464812  1  1.530317  -0.001719  0.201687  0.56487  -0.00031  4.197075  -0.004
C  C89  1  0.55632511  0.81347496  0.81548330  1  1.530688  -0.001717  0.201791  0.564901  -0.000311  4.197464  -0.004
C  C90  1  0.72112723  0.26110362  0.55245586  1  1.548033  -0.000402  0.196858  0.563341  -0.001417  4.228527  0.001
C  C91  1  0.73887068  0.27894048  0.94754152  1  1.547556  -0.0004  0.196159  0.562383  -0.001417  4.229057  0.001
C  C92  1  0.27870666  0.73862101  0.44743971  1  1.547956  -0.000387  0.196402  0.563311  -0.0014  4.228617  0.001
C  C93  1  0.26119470  0.72116191  0.05249815  1  1.548475  -0.000392  0.196552  0.563252  -0.001407  4.229105  0.001
N  N94  1  0.13569222  0.02586526  0.14482554  1  -1.199316  0.096618  -0.799255  -0.836651  0.063598  3.194718  0.074
N  N95  1  0.97430331  0.86436293  0.35509119  1  -1.197207  0.096758  -0.798694  -0.836172  0.063681  3.193672  0.074
N  N96  1  0.86435720  0.97418648  0.85518732  1  -1.199045  0.096601  -0.799227  -0.836863  0.063588  3.19495  0.074
N  N97  1  0.02569734  0.13566993  0.64489542  1  -1.197367  0.096718  -0.798666  -0.835928  0.063661  3.194178  0.074
N  N98  1  0.38325317  0.33677439  0.43880131  1  -1.190902  0.077646  -0.792489  -0.84208  0.051592  3.201543  0.06
N  N99  1  0.66353526  0.61702744  0.06090629  1  -1.189198  0.077553  -0.793088  -0.843664  0.051516  3.200358  0.06
N  N100  1  0.61676066  0.66323448  0.56122048  1  -1.190672  0.077696  -0.792514  -0.84207  0.051629  3.201361  0.06
N  N101  1  0.33649670  0.38306859  0.93904625  1  -1.189329  0.07757  -0.792762  -0.843332  0.051527  3.199889  0.06
N  N102  1  0.50054085  0.16529921  0.68495550  1  -1.131028  -0.083846  -0.776253  -0.8347  -0.056911  3.158363  -0.066
N  N103  1  0.83471683  0.49938336  0.81498470  1  -1.127417  -0.08386  -0.776343  -0.834587  -0.056913  3.158453  -0.066
N  N104  1  0.49937243  0.83474109  0.31521379  1  -1.130066  -0.083815  -0.776377  -0.83552  -0.056898  3.158966  -0.066
N  N105  1  0.16528696  0.50042157  0.18484102  1  -1.158491  -0.084004  -0.776502  -0.835239  -0.056938  3.158462  -0.066
O  O106  1  0.11760173  0.27109818  0.28777811  1  -1.124549  0.109053  -0.323939  -0.543366  0.071502  2.267943  0.099
O  O107  1  0.72899465  0.88242560  0.21223159  1  -1.124916  0.109035  -0.32409  -0.543489  0.071491  2.267433  0.099
O  O108  1  0.88240165  0.72892522  0.71225186  1  -1.124295  0.109083  -0.324065  -0.543496  0.071518  2.267706  0.099
O  O109  1  0.27110166  0.11762541  0.78773430  1  -1.124552  0.108933  -0.324208  -0.543663  0.071419  2.267035  0.099
O  O110  1  0.07712860  0.14486580  0.39851739  1  -1.186723  0.006438  -0.319237  -0.57426  0.003954  2.209105  0.007
O  O111  1  0.85529033  0.92300831  0.10157680  1  -1.187372  0.006462  -0.319005  -0.57415  0.003971  2.209279  0.007
O  O112  1  0.92287148  0.85514897  0.60151941  1  -1.186608  0.006418  -0.319165  -0.574046  0.003941  2.209644  0.007
O  O113  1  0.14485293  0.07711867  0.89843309  1  -1.186335  0.006477  -0.319109  -0.574027  0.003981  2.209845  0.007
O  O114  1  0.74213855  0.61908096  0.35308018  1  -1.196918  0.000886  -0.326533  -0.587756  0.000162  2.230104  0.002
O  O115  1  0.38100000  0.25787521  0.14687746  1  -1.197305  0.00092  -0.326469  -0.587828  0.000183  2.23049  0.002
O  O116  1  0.25785412  0.38096935  0.64708917  1  -1.199226  0.000889  -0.326495  -0.587499  0.000164  2.230056  0.002
O  O117  1  0.61904826  0.74214589  0.85312716  1  -1.196773  0.000915  -0.326486  -0.587836  0.00018  2.230613  0.002
O  O118  1  0.86777584  0.58248314  0.24067109  1  -1.103889  0.113172  -0.32162  -0.527322  0.074316  2.231849  0.103
O  O119  1  0.41756977  0.13224292  0.25933974  1  -1.103214  0.113224  -0.321634  -0.527488  0.074351  2.231852  0.103
O  O120  1  0.13211256  0.41751109  0.75942223  1  -1.103409  0.113245  -0.321647  -0.527654  0.074359  2.231967  0.103
O  O121  1  0.58246901  0.86776561  0.74066455  1  -1.104349  0.113174  -0.321597  -0.527332  0.07432  2.231884  0.103
O  O122  1  0.74810678  0.17566277  0.59438606  1  -1.175414  -0.002271  -0.326441  -0.559521  -0.001221  2.109497  -0.002
O  O123  1  0.82436685  0.25206040  0.90569260  1  -1.17565  -0.002279  -0.326176  -0.559052  -0.001226  2.109467  -0.002
O  O124  1  0.25164530  0.82396587  0.40541256  1  -1.173559  -0.002245  -0.326249  -0.559468  -0.001204  2.10945  -0.002
O  O125  1  0.17572678  0.74807397  0.09436758  1  -1.175517  -0.002261  -0.326207  -0.55928  -0.001214  2.109745  -0.002
O  O126  1  0.64628915  0.32857229  0.58275508  1  -1.131283  -0.098965  -0.340801  -0.588599  -0.065592  2.319816  -0.089
O  O127  1  0.67131038  0.35372167  0.91717140  1  -1.130927  -0.099  -0.340554  -0.588709  -0.065608  2.319767  -0.089
O  O128  1  0.35356427  0.67116447  0.41717678  1  -1.133538  -0.098997  -0.340467  -0.588501  -0.065611  2.319466  -0.089
O  O129  1  0.32873881  0.64637634  0.08286026  1  -1.131738  -0.098983  -0.340745  -0.589015  -0.065599  2.319916  -0.089
O  O130  1  0.52478927  0.47535794  0.74946617  1  -1.289302  0.003901  -0.620398  -0.825348  0.002377  2.04178  0.002
O  O131  1  0.47523666  0.52469151  0.25034248  1  -1.289633  0.003903  -0.620444  -0.825472  0.002378  2.041912  0.002
