# generated using pymatgen
data_Zr3H11C39O16
_symmetry_space_group_name_H-M   'P 1'
_cell_length_a   16.82565991
_cell_length_b   16.82651286
_cell_length_c   16.83190467
_cell_angle_alpha   92.68644745
_cell_angle_beta   92.71364939
_cell_angle_gamma   92.70578493
_symmetry_Int_Tables_number   1
_chemical_formula_structural   Zr3H11C39O16
_chemical_formula_sum   'Zr6 H22 C78 O32'
_cell_volume   4748.98889288
_cell_formula_units_Z   2
loop_
 _symmetry_equiv_pos_site_id
 _symmetry_equiv_pos_as_xyz
  1  'x, y, z'
loop_
 _atom_site_type_symbol
 _atom_site_label
 _atom_site_symmetry_multiplicity
 _atom_site_fract_x
 _atom_site_fract_y
 _atom_site_fract_z
 _atom_site_occupancy
 _atom_site_pbe_bader_charge
 _atom_site_pbe_bader_spin_density
 _atom_site_pbe_cm5_charge
 _atom_site_pbe_ddec_charge
 _atom_site_pbe_ddec_spin_density
 _atom_site_pbe_ddec_sum_bond_order
 _atom_site_pbe_magmom
Zr  Zr0  1  0.19816424  0.15699898  0.04244956  1  2.633104  0  1.624145  2.375278  0  2.747235  0
Zr  Zr1  1  0.24886514  0.99292334  0.15528990  1  2.635461  0  1.624102  2.376168  0  2.744465  0
Zr  Zr2  1  0.00164336  0.07378224  0.00924940  1  2.633384  0  1.625933  2.376699  0  2.74763  0
Zr  Zr3  1  0.08527249  0.10614780  0.20632483  1  2.63217  0  1.624139  2.375297  0  2.745312  0
Zr  Zr4  1  0.16520285  0.95995905  0.95898038  1  2.633618  0  1.625303  2.374775  0  2.750139  0
Zr  Zr5  1  0.05155243  0.90986974  0.12257881  1  2.63261  0  1.625431  2.374191  0  2.753384  0
H  H6  1  0.04585691  0.50395193  0.92086440  1  0.096544  0  0.118538  0.12804  0  0.975583  0
H  H7  1  0.09895310  0.64973112  0.72406630  1  0.101554  0  0.118528  0.129163  0  0.973779  0
H  H8  1  0.08902904  0.39309080  0.69142646  1  0.100287  0  0.1163  0.126038  0  0.977415  0
H  H9  1  0.15776309  0.67205959  0.47731004  1  0.091399  0  0.116913  0.126897  0  0.976152  0
H  H10  1  0.14150622  0.41623860  0.43624354  1  0.125657  0  0.117923  0.12962  0  0.973545  0
H  H11  1  0.19488536  0.56751152  0.24366720  1  0.116918  0  0.117816  0.127114  0  0.97554  0
H  H12  1  0.73445412  0.99768813  0.44177598  1  0.096544  0  0.115903  0.125682  0  0.976832  0
H  H13  1  0.76659844  0.00810906  0.69838798  1  0.088035  0  0.117917  0.128988  0  0.971999  0
H  H14  1  0.96374004  0.95446807  0.55331372  1  0.105342  0  0.118329  0.127505  0  0.975576  0
H  H15  1  0.52049935  0.06723143  0.72159051  1  0.100475  0  0.116625  0.126642  0  0.976119  0
H  H16  1  0.47863141  0.04932427  0.46591767  1  0.103177  0  0.118124  0.129286  0  0.974013  0
H  H17  1  0.28607310  0.10217297  0.61735084  1  0.104025  0  0.11763  0.126445  0  0.97565  0
H  H18  1  0.48466757  0.64201583  0.04678919  1  0.112502  0  0.116024  0.125942  0  0.976463  0
H  H19  1  0.74133376  0.67453502  0.05708410  1  0.092605  0  0.118214  0.129242  0  0.973479  0
H  H20  1  0.59580971  0.87142904  0.00348932  1  0.118994  0  0.11839  0.128071  0  0.975273  0
H  H21  1  0.66003731  0.19397770  0.15206036  1  0.09477  0  0.117991  0.129917  0  0.972535  0
H  H22  1  0.50818025  0.38616089  0.09862433  1  0.102839  0  0.118361  0.130135  0  0.972696  0
H  H23  1  0.76388882  0.42848514  0.11675192  1  0.101604  0  0.116906  0.126666  0  0.976673  0
H  H24  1  0.24839129  0.15599001  0.20556701  1  0.608816  0  0.332874  0.424719  0  0.856713  0
H  H25  1  0.11817195  0.10285042  0.89508632  1  0.605516  0  0.332823  0.42499  0  0.856627  0
H  H26  1  0.93759721  0.02660156  0.15187588  1  0.626244  0  0.33268  0.425474  0  0.856859  0
H  H27  1  0.19425021  0.84565689  0.07537526  1  0.630401  0  0.332081  0.424507  0  0.857816  0
C  C28  1  0.06584921  0.43996395  0.80963851  1  0.095357  0  0.006685  0.134037  0  4.139387  0
C  C29  1  0.05889583  0.50906368  0.85853287  1  0.004757  0  -0.06146  -0.152036  0  3.844281  0
C  C30  1  0.07072173  0.58457226  0.82783064  1  0.113155  0  0.005774  0.130384  0  4.14524  0
C  C31  1  0.08891855  0.59109120  0.74754061  1  -0.015921  0  -0.06135  -0.151125  0  3.825822  0
C  C32  1  0.09506980  0.52215514  0.69782776  1  0.082306  0  0.005992  0.145834  0  4.131254  0
C  C33  1  0.08336153  0.44652619  0.72937175  1  -0.034843  0  -0.063217  -0.156209  0  3.836459  0
C  C34  1  0.17822358  0.62856498  0.35734598  1  0.117692  0  0.007118  0.133557  0  4.13779  0
C  C35  1  0.16160902  0.61965637  0.43751517  1  0.067189  0  -0.062926  -0.155252  0  3.832129  0
C  C36  1  0.14849749  0.54312271  0.46663537  1  0.084316  0  0.006467  0.148119  0  4.127365  0
C  C37  1  0.15243225  0.47555166  0.41458129  1  -0.043932  0  -0.061585  -0.153967  0  3.82488  0
C  C38  1  0.16958772  0.48431815  0.33426878  1  0.071431  0  0.005699  0.130654  0  4.142992  0
C  C39  1  0.18266259  0.56073883  0.30598096  1  0.013312  0  -0.061222  -0.15121  0  3.845286  0
C  C40  1  0.85254440  0.97420765  0.48898592  1  0.055405  0  0.007239  0.132999  0  4.141741  0
C  C41  1  0.77228499  0.99205016  0.49533981  1  -0.009191  0  -0.06289  -0.155189  0  3.83546  0
C  C42  1  0.74063648  0.00401967  0.57086252  1  0.130836  0  0.005708  0.146266  0  4.129037  0
C  C43  1  0.79028027  0.99797805  0.63988019  1  0.032106  0  -0.06078  -0.151203  0  3.825127  0
C  C44  1  0.87057137  0.97962545  0.63359732  1  0.055572  0  0.005678  0.130212  0  4.14703  0
C  C45  1  0.90136865  0.96748539  0.55820857  1  0.046998  0  -0.06115  -0.150652  0  3.845377  0
C  C46  1  0.40016194  0.08665307  0.67818740  1  0.085434  0  0.006526  0.131713  0  4.138886  0
C  C47  1  0.48048362  0.07053182  0.66921797  1  0.035293  0  -0.062166  -0.153062  0  3.834514  0
C  C48  1  0.50937663  0.05712348  0.59265419  1  0.087371  0  0.005104  0.144216  0  4.130833  0
C  C49  1  0.45704728  0.06038269  0.52519050  1  -0.040481  0  -0.061711  -0.152996  0  3.826345  0
C  C50  1  0.37660732  0.07702270  0.53399041  1  0.178919  0  0.006352  0.131365  0  4.143102  0
C  C51  1  0.34850109  0.09036631  0.61041867  1  -0.063435  0  -0.061185  -0.150726  0  3.843382  0
C  C52  1  0.53163980  0.76022273  0.02338970  1  0.135379  0  0.007565  0.135387  0  4.138028  0
C  C53  1  0.53813844  0.67996056  0.04113437  1  -0.009306  0  -0.063432  -0.15634  0  3.832818  0
C  C54  1  0.61376655  0.64842076  0.05305710  1  0.08697  0  0.005936  0.146352  0  4.130245  0
C  C55  1  0.68275798  0.69813068  0.04701568  1  -0.016476  0  -0.06127  -0.152765  0  3.826622  0
C  C56  1  0.67629853  0.77842333  0.02872623  1  0.100834  0  0.005966  0.131706  0  4.143737  0
C  C57  1  0.60080999  0.80910036  0.01661360  1  -0.014784  0  -0.061465  -0.152807  0  3.8459  0
C  C58  1  0.72071445  0.30812640  0.13639545  1  0.079257  0  0.006485  0.132001  0  4.13934  0
C  C59  1  0.65304056  0.25637663  0.14017438  1  -0.001663  0  -0.061649  -0.15476  0  3.844621  0
C  C60  1  0.57654832  0.28440416  0.12673860  1  0.115621  0  0.005409  0.130867  0  4.144436  0
C  C61  1  0.56755302  0.36476265  0.10980963  1  0.035307  0  -0.061422  -0.15365  0  3.827027  0
C  C62  1  0.63495656  0.41718548  0.10651658  1  0.102559  0  0.005791  0.146472  0  4.131011  0
C  C63  1  0.71157896  0.38839004  0.12011561  1  -0.041206  0  -0.06228  -0.153817  0  3.833614  0
C  C64  1  0.06641214  0.24191152  0.93715692  1  1.683153  0  0.24437  0.716397  0  4.168573  0
C  C65  1  0.37441645  0.14216621  0.11821174  1  1.664302  0  0.240737  0.71388  0  4.165816  0
C  C66  1  0.16155799  0.28229389  0.19201778  1  1.648259  0  0.242183  0.716275  0  4.161507  0
C  C67  1  0.27751195  0.08951198  0.87892821  1  1.665709  0  0.246635  0.7224  0  4.158667  0
C  C68  1  0.18086752  0.82954869  0.23482732  1  1.6706  0  0.245548  0.719912  0  4.160587  0
C  C69  1  0.87842136  0.92037124  0.03770406  1  1.655207  0  0.242696  0.716706  0  4.162816  0
C  C70  1  0.23460811  0.06841753  0.33167452  1  1.624622  0  0.241085  0.715412  0  4.165383  0
C  C71  1  0.33350092  0.88766703  0.02328576  1  1.674664  0  0.244659  0.717987  0  4.164598  0
C  C72  1  0.01166962  0.98874266  0.83620024  1  1.655549  0  0.241849  0.71641  0  4.169399  0
C  C73  1  0.92196708  0.18618765  0.13889750  1  1.653656  0  0.245774  0.719435  0  4.161805  0
C  C74  1  0.97970700  0.97419697  0.29084310  1  1.660782  0  0.244566  0.716578  0  4.165585  0
C  C75  1  0.07989586  0.78697211  0.96911334  1  1.66248  0  0.24183  0.71496  0  4.165158  0
C  C76  1  0.79642810  0.27497708  0.14550852  1  -0.54871  0  -0.012021  -0.013183  0  4.051027  0
C  C77  1  0.85721431  0.23850496  0.14903994  1  0.306408  0  -0.037066  -0.187785  0  3.917388  0
C  C78  1  0.50900948  0.23082599  0.12805029  1  -0.28997  0  -0.014014  -0.016873  0  4.063432  0
C  C79  1  0.45094729  0.18463195  0.12734449  1  0.003052  0  -0.042411  -0.19409  0  3.935022  0
C  C80  1  0.80324977  0.87590390  0.02515263  1  0.165176  0  -0.041268  -0.192987  0  3.932378  0
C  C81  1  0.74504330  0.83002554  0.02548346  1  -0.4193  0  -0.014117  -0.016948  0  4.059868  0
C  C82  1  0.45747619  0.79660974  0.01552763  1  -0.527224  0  -0.011741  -0.014392  0  4.054988  0
C  C83  1  0.39867872  0.83608352  0.01243251  1  0.253245  0  -0.037763  -0.187918  0  3.921103  0
C  C84  1  0.62039262  0.56749774  0.07198218  1  -0.54585  0  -0.03828  -0.099796  0  4.093651  0
C  C85  1  0.62646064  0.49804777  0.08830737  1  0.186904  0  -0.038869  -0.100421  0  4.092846  0
C  C86  1  0.36673757  0.09577812  0.75372997  1  -0.443246  0  -0.011729  -0.01262  0  4.052077  0
C  C87  1  0.32986284  0.09948422  0.81421974  1  0.1772  0  -0.037571  -0.188984  0  3.917624  0
C  C88  1  0.32311589  0.07814430  0.46635414  1  -0.361421  0  -0.01522  -0.018592  0  4.062395  0
C  C89  1  0.27704003  0.07725993  0.40820410  1  0.123248  0  -0.041654  -0.192918  0  3.934253  0
C  C90  1  0.96733991  0.97617366  0.76102558  1  0.223433  0  -0.040963  -0.192246  0  3.934007  0
C  C91  1  0.92190284  0.97638631  0.70249691  1  -0.49306  0  -0.013843  -0.016895  0  4.062768  0
C  C92  1  0.92815895  0.96330731  0.35596828  1  -0.296943  0  -0.037734  -0.187688  0  3.922723  0
C  C93  1  0.88887839  0.96632968  0.41485763  1  0.045209  0  -0.011915  -0.014038  0  4.05481  0
C  C94  1  0.59029286  0.03919848  0.58409316  1  -0.436209  0  -0.038672  -0.099326  0  4.097514  0
C  C95  1  0.65971231  0.02297910  0.57753957  1  0.077986  0  -0.038781  -0.101042  0  4.096286  0
C  C96  1  0.18707349  0.70412855  0.32387968  1  -0.405249  0  -0.012551  -0.016395  0  4.055634  0
C  C97  1  0.19071363  0.76479157  0.28722632  1  0.118215  0  -0.036298  -0.184665  0  3.919477  0
C  C98  1  0.17081090  0.35871614  0.23462801  1  0.240415  0  -0.041796  -0.194496  0  3.933003  0
C  C99  1  0.17133632  0.41668127  0.28089868  1  -0.511144  0  -0.015085  -0.017459  0  4.060981  0
C  C100  1  0.06734495  0.65335449  0.87928322  1  -0.326939  0  -0.013945  -0.017468  0  4.064151  0
C  C101  1  0.06709591  0.71182571  0.92476456  1  0.048026  0  -0.041113  -0.191582  0  3.934048  0
C  C102  1  0.05837957  0.36574127  0.84593368  1  -0.281258  0  -0.012846  -0.015049  0  4.052306  0
C  C103  1  0.05564626  0.30690523  0.88535170  1  0.046463  0  -0.036951  -0.187084  0  3.923478  0
C  C104  1  0.13014296  0.53482054  0.54745636  1  -0.404269  0  -0.03837  -0.100216  0  4.093371  0
C  C105  1  0.11389580  0.52885389  0.61692066  1  0.040673  0  -0.03906  -0.10036  0  4.094242  0
O  O106  1  0.00903370  0.19170397  0.94533124  1  -1.156427  0  -0.331635  -0.594517  0  2.198264  0
O  O107  1  0.36296533  0.07508255  0.14853848  1  -1.154663  0  -0.331653  -0.597664  0  2.181086  0
O  O108  1  0.19179667  0.27098974  0.12489732  1  -1.156279  0  -0.332651  -0.599086  0  2.177435  0
O  O109  1  0.26846032  0.14725173  0.92836472  1  -1.152456  0  -0.331583  -0.596508  0  2.20027  0
O  O110  1  0.24279608  0.01985153  0.87794347  1  -1.1569  0  -0.359545  -0.615271  0  2.228311  0
O  O111  1  0.12198829  0.23035536  0.22999540  1  -1.152255  0  -0.365099  -0.618605  0  2.249846  0
O  O112  1  0.32253365  0.18023093  0.07864754  1  -1.158964  0  -0.364724  -0.617948  0  2.250192  0
O  O113  1  0.13666889  0.24179998  0.97035683  1  -1.156436  0  -0.357557  -0.612645  0  2.227633  0
O  O114  1  0.22337315  0.03724214  0.04487975  1  -1.198959  0  -0.789124  -1.156188  0  2.129185  0
O  O115  1  0.08771731  0.13162937  0.08665832  1  -1.199963  0  -0.789092  -1.155008  0  2.127367  0
O  O116  1  0.21337989  0.12108452  0.17058011  1  -1.234202  0  -0.692851  -1.074979  0  2.368943  0
O  O117  1  0.12008054  0.08404144  0.94871698  1  -1.234966  0  -0.692936  -1.078199  0  2.360482  0
O  O118  1  0.23874169  0.87885000  0.22572177  1  -1.161956  0  -0.331888  -0.59651  0  2.197516  0
O  O119  1  0.88931040  0.98805896  0.00837927  1  -1.160618  0  -0.333671  -0.599684  0  2.180079  0
O  O120  1  0.16758746  0.09892194  0.32030890  1  -1.156895  0  -0.331657  -0.598472  0  2.178108  0
O  O121  1  0.28320168  0.89585100  0.96600095  1  -1.157248  0  -0.331057  -0.594647  0  2.198429  0
O  O122  1  0.07926503  0.95921498  0.84711237  1  -1.158194  0  -0.333396  -0.600026  0  2.186012  0
O  O123  1  0.97148243  0.17701369  0.19657256  1  -1.162222  0  -0.33155  -0.595085  0  2.196159  0
O  O124  1  0.98761209  0.91697919  0.24043961  1  -1.153875  0  -0.331435  -0.593996  0  2.199028  0
O  O125  1  0.05046466  0.79789465  0.03670867  1  -1.159049  0  -0.333056  -0.59928  0  2.18348  0
O  O126  1  0.01293889  0.04444610  0.29078892  1  -1.153065  0  -0.358037  -0.613167  0  2.226726  0
O  O127  1  0.12364532  0.83737394  0.93351085  1  -1.147865  0  -0.364526  -0.617734  0  2.252447  0
O  O128  1  0.27258511  0.02899904  0.27968137  1  -1.148159  0  -0.36453  -0.619012  0  2.251792  0
O  O129  1  0.92083630  0.15155535  0.06921898  1  -1.144935  0  -0.359508  -0.615012  0  2.229848  0
O  O130  1  0.97606706  0.03237197  0.88666232  1  -1.167869  0  -0.364595  -0.618805  0  2.254428  0
O  O131  1  0.33331308  0.92062577  0.09360421  1  -1.157435  0  -0.358079  -0.613736  0  2.226736  0
O  O132  1  0.11124337  0.82861412  0.20003004  1  -1.156488  0  -0.358967  -0.614601  0  2.230539  0
O  O133  1  0.92895912  0.88463984  0.08120739  1  -1.15974  0  -0.365144  -0.619293  0  2.254448  0
O  O134  1  0.05998821  0.96843604  0.01745982  1  -1.196264  0  -0.790087  -1.154656  0  2.132866  0
O  O135  1  0.12914674  0.99560721  0.18064277  1  -1.200057  0  -0.788844  -1.155102  0  2.12788  0
O  O136  1  0.99126285  0.02847623  0.13313735  1  -1.255173  0  -0.692514  -1.07877  0  2.361301  0
O  O137  1  0.17556342  0.89934401  0.07733409  1  -1.260999  0  -0.691571  -1.076497  0  2.359581  0
