# generated using pymatgen
data_CoH17C24N6O5
_symmetry_space_group_name_H-M   'P 1'
_cell_length_a   10.11057662
_cell_length_b   14.76178206
_cell_length_c   20.12850455
_cell_angle_alpha   100.82901401
_cell_angle_beta   104.84352737
_cell_angle_gamma   89.09194373
_symmetry_Int_Tables_number   1
_chemical_formula_structural   CoH17C24N6O5
_chemical_formula_sum   'Co4 H68 C96 N24 O20'
_cell_volume   2850.56765444
_cell_formula_units_Z   4
loop_
 _symmetry_equiv_pos_site_id
 _symmetry_equiv_pos_as_xyz
  1  'x, y, z'
loop_
 _atom_site_type_symbol
 _atom_site_label
 _atom_site_symmetry_multiplicity
 _atom_site_fract_x
 _atom_site_fract_y
 _atom_site_fract_z
 _atom_site_occupancy
 _atom_site_pbe_bader_charge
 _atom_site_pbe_bader_spin_density
 _atom_site_pbe_cm5_charge
 _atom_site_pbe_ddec_charge
 _atom_site_pbe_ddec_spin_density
 _atom_site_pbe_ddec_sum_bond_order
 _atom_site_pbe_magmom
Co  Co0  1  0.89116174  0.36487937  0.34874177  1  1.290847  2.600081  0.676898  0.876502  2.845881  2.504024  2.579
Co  Co1  1  0.10883128  0.63512429  0.65125686  1  1.290726  2.600087  0.676904  0.876513  2.845875  2.503954  2.579
Co  Co2  1  0.14166405  0.34170190  0.20752063  1  1.306084  2.610524  0.683612  0.892115  2.86404  2.54051  2.59
Co  Co3  1  0.85834292  0.65829616  0.79248253  1  1.306151  2.61054  0.68358  0.892023  2.864015  2.540549  2.59
H  H4  1  0.68627029  0.21253898  0.27741095  1  0.126392  0.001397  0.12227  0.096993  0.000301  1.000014  0.001
H  H5  1  0.31371769  0.78746608  0.72258574  1  0.126366  0.001397  0.122317  0.097114  0.000301  1.000008  0.001
H  H6  1  0.67543411  0.03930805  0.25230861  1  0.119974  0.000899  0.112142  0.12205  0.000434  0.990897  0.0
H  H7  1  0.32455595  0.96069763  0.74768692  1  0.120117  0.000899  0.112175  0.122083  0.000433  0.990783  0.0
H  H8  1  0.34139713  0.22133942  0.27588832  1  0.126  0.001252  0.122734  0.10093  0.00013  1.010864  0.001
H  H9  1  0.65861858  0.77866548  0.72411826  1  0.126256  0.001253  0.122761  0.101012  0.00013  1.010799  0.001
H  H10  1  0.60229773  0.33139872  0.21995697  1  0.148214  0.000529  0.106873  0.125822  0.000236  1.049101  0.0
H  H11  1  0.39770738  0.66861582  0.78004401  1  0.148247  0.00053  0.10684  0.125763  0.000236  1.049157  0.0
H  H12  1  0.42612455  0.37473605  0.33489660  1  0.114747  0.000498  0.107975  0.126691  0.000224  1.047001  0.0
H  H13  1  0.57387210  0.62526075  0.66510511  1  0.114695  0.000497  0.10796  0.126644  0.000224  1.046936  0.0
H  H14  1  0.25941565  0.37463574  0.51144625  1  0.103085  0.000401  0.102907  0.116629  0.000101  1.042074  0.0
H  H15  1  0.74058521  0.62536242  0.48855715  1  0.103035  0.000401  0.102852  0.11652  0.000101  1.04211  0.0
H  H16  1  0.69823378  0.39185195  0.54035948  1  0.093978  0.00041  0.108576  0.126285  0.000152  1.001693  0.0
H  H17  1  0.30176754  0.60815299  0.45964085  1  0.093992  0.000409  0.108576  0.126332  0.000153  1.001676  0.0
H  H18  1  0.77559021  0.32178142  0.04464213  1  0.090204  0.000428  0.103708  0.11999  0.000154  1.033599  0.0
H  H19  1  0.22441578  0.67821794  0.95535759  1  0.090317  0.000427  0.103734  0.120015  0.000154  1.033589  0.0
H  H20  1  0.69398567  0.26087115  0.92344527  1  0.049787  -1e-06  0.097446  0.062825  -6e-06  0.982269  0.0
H  H21  1  0.30603207  0.73913491  0.07655475  1  0.049466  -1e-06  0.09744  0.062813  -6e-06  0.982231  0.0
H  H22  1  0.70917453  0.38392528  0.94880758  1  0.050319  -1e-06  0.104502  0.074541  -1.2e-05  0.97193  0.0
H  H23  1  0.29082696  0.61608176  0.05119402  1  0.050369  -1e-06  0.104493  0.074455  -1.2e-05  0.971958  0.0
H  H24  1  0.02895389  0.48782997  0.11619443  1  0.119103  0.001674  0.121495  0.096632  0.000452  0.974222  0.001
H  H25  1  0.97105053  0.51216124  0.88380855  1  0.119333  0.001673  0.121511  0.096674  0.000451  0.974133  0.001
H  H26  1  0.26318454  0.49946283  0.31883966  1  0.132853  0.001391  0.11885  0.090372  0.000196  1.027792  0.001
H  H27  1  0.73682348  0.50053525  0.68116462  1  0.133062  0.001392  0.118886  0.090452  0.000196  1.027764  0.001
H  H28  1  0.54746348  0.18869701  0.80602211  1  0.054782  4e-06  0.098422  0.098716  5e-06  0.990775  0.0
H  H29  1  0.45253148  0.81130341  0.19398482  1  0.054878  4e-06  0.098475  0.098717  5e-06  0.990759  0.0
H  H30  1  0.59645726  0.48397350  0.86961312  1  0.078726  -6.7e-05  0.099986  0.101391  -0.000111  1.021481  0.0
H  H31  1  0.40354396  0.51603007  0.13038702  1  0.078748  -6.7e-05  0.1  0.101435  -0.000111  1.02148  0.0
H  H32  1  0.33580299  0.32846091  0.01467568  1  0.129812  0.000567  0.110181  0.131594  0.000299  0.988201  0.0
H  H33  1  0.66420410  0.67152662  0.98532023  1  0.129959  0.000567  0.110214  0.131622  0.000299  0.988146  0.0
H  H34  1  0.06078275  0.04813464  0.40870884  1  0.099554  0.000808  0.107858  0.116788  0.000387  1.018759  0.0
H  H35  1  0.93921034  0.95187095  0.59128507  1  0.099446  0.000808  0.107842  0.116811  0.000386  1.018563  0.0
H  H36  1  0.33923867  0.30488203  0.60231709  1  0.058096  -3.7e-05  0.093081  0.055023  -5.5e-05  1.0007  0.0
H  H37  1  0.66077227  0.69511519  0.39768298  1  0.058101  -3.7e-05  0.093127  0.055115  -5.5e-05  1.000589  0.0
H  H38  1  0.33381914  0.42707630  0.63154353  1  0.060834  -5.6e-05  0.103585  0.081505  -0.000167  1.003536  0.0
H  H39  1  0.66618158  0.57291980  0.36846009  1  0.060739  -5.6e-05  0.103563  0.081455  -0.000167  1.003543  0.0
H  H40  1  0.44494458  0.20656768  0.68300494  1  0.048615  -3e-06  0.098014  0.099584  1e-06  0.990174  0.0
H  H41  1  0.55505628  0.79342986  0.31700087  1  0.048624  -3e-06  0.097994  0.099566  1e-06  0.99014  0.0
H  H42  1  0.27060392  0.67007283  0.34333822  1  0.166069  0.000619  0.109423  0.11381  0.000289  1.048743  0.0
H  H43  1  0.72940720  0.32992647  0.65666262  1  0.166073  0.000619  0.109394  0.113724  0.000289  1.048892  0.0
H  H44  1  0.94737281  0.00434388  0.16999893  1  0.07719  0.000895  0.106349  0.1089  0.000436  1.026589  0.0
H  H45  1  0.05265254  0.99565391  0.83000499  1  0.076926  0.000895  0.106348  0.108939  0.000436  1.026559  0.0
H  H46  1  0.02725970  0.71367516  0.42896130  1  0.051338  0.000853  0.106519  0.10466  0.000412  1.031097  0.0
H  H47  1  0.97270820  0.28633557  0.57103011  1  0.051755  0.000853  0.106451  0.104551  0.000412  1.03123  0.0
H  H48  1  0.35439034  0.06410222  0.30719078  1  0.108997  0.000767  0.113216  0.124167  0.000385  0.988692  0.0
H  H49  1  0.64562880  0.93590683  0.69281873  1  0.109287  0.000767  0.11312  0.124056  0.000385  0.988614  0.0
H  H50  1  0.02633692  0.55202740  0.44091441  1  0.163043  0.001529  0.124668  0.112878  0.000382  0.994128  0.001
H  H51  1  0.97364139  0.44798470  0.55908244  1  0.162883  0.001531  0.124661  0.113045  0.000382  0.993903  0.001
H  H52  1  0.95477005  0.16218668  0.14321255  1  0.110065  0.001297  0.12008  0.093612  0.000168  0.987032  0.001
H  H53  1  0.04525091  0.83780766  0.85678841  1  0.110191  0.001297  0.120104  0.093692  0.000168  0.987048  0.001
H  H54  1  0.03015372  0.65973220  0.13105249  1  0.117138  0.000771  0.105447  0.114216  0.000393  1.024801  0.0
H  H55  1  0.96985198  0.34026304  0.86894767  1  0.116856  0.00077  0.105476  0.114243  0.000393  1.024813  0.0
H  H56  1  0.05532780  0.22106717  0.42581972  1  0.129632  0.001312  0.116566  0.090488  0.00017  1.005903  0.001
H  H57  1  0.94465616  0.77893802  0.57417947  1  0.129704  0.001312  0.116562  0.090474  0.00017  1.00592  0.001
H  H58  1  0.49035589  0.50207474  0.74700843  1  0.094658  0.000106  0.107251  0.120675  2.9e-05  1.005505  0.0
H  H59  1  0.50964750  0.49791769  0.25298862  1  0.094599  0.000106  0.10728  0.120779  2.9e-05  1.005551  0.0
H  H60  1  0.94570263  0.82735853  0.14480242  1  0.436875  -4e-06  0.315107  0.287584  -6e-06  0.941646  0.0
H  H61  1  0.05430833  0.17263810  0.85520106  1  0.436858  -4e-06  0.315065  0.287479  -6e-06  0.941732  0.0
H  H62  1  0.07230128  0.87687860  0.12387696  1  0.429888  -7.4e-05  0.316148  0.280272  -7.6e-05  0.941859  0.0
H  H63  1  0.92770876  0.12311943  0.87612657  1  0.430266  -7.4e-05  0.316144  0.280232  -7.6e-05  0.942019  0.0
H  H64  1  0.77700726  0.62983917  0.21634200  1  0.123418  0.000584  0.11764  0.130033  0.000291  0.996225  0.0
H  H65  1  0.22298444  0.37016222  0.78364874  1  0.123574  0.000584  0.11758  0.12998  0.000291  0.996274  0.0
H  H66  1  0.78586394  0.47009785  0.23769342  1  0.112332  0.001284  0.119755  0.087203  -7e-06  1.035087  0.001
H  H67  1  0.21412987  0.52990362  0.76230107  1  0.112381  0.001284  0.119793  0.087264  -7e-06  1.035057  0.001
H  H68  1  0.92165514  0.84712454  0.44464172  1  0.427153  7e-06  0.314081  0.278992  4e-06  0.945118  0.0
H  H69  1  0.07830247  0.15287186  0.55534813  1  0.427183  7e-06  0.314072  0.278987  4e-06  0.945144  0.0
H  H70  1  0.07045169  0.87051366  0.42910522  1  0.459534  -3.2e-05  0.318444  0.290103  -3.4e-05  0.9293  0.0
H  H71  1  0.92951560  0.12948638  0.57089721  1  0.459128  -3.2e-05  0.318506  0.290083  -3.4e-05  0.929182  0.0
C  C72  1  0.76643621  0.17303909  0.30531108  1  0.405355  -0.007958  0.05129  0.106134  -0.008502  3.929955  -0.005
C  C73  1  0.23355671  0.82696381  0.69468496  1  0.405591  -0.007961  0.051123  0.105801  -0.008504  3.930039  -0.005
C  C74  1  0.76078303  0.07728003  0.29175951  1  0.000295  0.0048  -0.079162  -0.161247  0.002183  3.937889  0.004
C  C75  1  0.23920803  0.92272562  0.70823515  1  -0.000585  0.0048  -0.079285  -0.16135  0.002183  3.937628  0.004
C  C76  1  0.86795458  0.02951277  0.32828579  1  0.011811  -0.011324  0.008337  0.065474  -0.01188  4.023744  -0.007
C  C77  1  0.13204034  0.97049003  0.67170801  1  0.011857  -0.011325  0.008384  0.065612  -0.011881  4.023631  -0.007
C  C78  1  0.25760143  0.17029426  0.25324934  1  0.513492  -0.009032  0.048405  0.101821  -0.009757  3.928953  -0.006
C  C79  1  0.74241809  0.82970649  0.74675869  1  0.513679  -0.009032  0.04834  0.101614  -0.009756  3.928952  -0.006
C  C80  1  0.58925163  0.32773602  0.16408758  1  0.019446  -0.002025  -0.093749  -0.151246  -0.002422  3.935764  -0.001
C  C81  1  0.41075291  0.67227095  0.83591289  1  0.019293  -0.002026  -0.09369  -0.151154  -0.002422  3.935763  -0.001
C  C82  1  0.44056658  0.37718917  0.39073998  1  -0.004553  -0.004012  -0.091113  -0.145057  -0.004422  3.926801  -0.002
C  C83  1  0.55942796  0.62280695  0.60926089  1  -0.004605  -0.00401  -0.091064  -0.144972  -0.00442  3.926466  -0.002
C  C84  1  0.32897801  0.37308454  0.41928443  1  -0.023116  0.010852  -0.02366  -0.021039  0.005317  4.023607  0.009
C  C85  1  0.67101954  0.62691084  0.58071623  1  -0.02298  0.010851  -0.023641  -0.021069  0.005316  4.023531  0.009
C  C86  1  0.57370091  0.38448290  0.43499324  1  -0.037821  0.004949  -0.019851  -0.007184  0.002596  4.001953  0.004
C  C87  1  0.42629458  0.61551250  0.56500667  1  -0.038995  0.00495  -0.019835  -0.007095  0.002597  4.001753  0.004
C  C88  1  0.18534174  0.36558615  0.37453404  1  1.513824  -0.006305  0.216522  0.577793  -0.007243  4.166504  -0.001
C  C89  1  0.81465744  0.63441746  0.62546635  1  1.513104  -0.006302  0.216513  0.577841  -0.00724  4.166607  -0.001
C  C90  1  0.84443367  0.32469905  0.18202741  1  1.528352  -0.003556  0.211412  0.565787  -0.004669  4.191572  0.0
C  C91  1  0.15557246  0.67530172  0.81797398  1  1.528382  -0.003555  0.211291  0.56556  -0.004668  4.191882  0.0
C  C92  1  0.70231260  0.32456040  0.13595715  1  -0.050539  0.009734  -0.026421  -0.021692  0.004784  4.026208  0.008
C  C93  1  0.29769378  0.67544380  0.86404370  1  -0.05044  0.009733  -0.02645  -0.021798  0.004783  4.026137  0.008
C  C94  1  0.69478893  0.38713671  0.40571949  1  1.498544  -0.005775  0.191277  0.53806  -0.007448  4.21411  -0.007
C  C95  1  0.30520523  0.61285457  0.59428024  1  1.499716  -0.005775  0.191303  0.538041  -0.007446  4.214011  -0.007
C  C96  1  0.55260922  0.32469648  0.02070307  1  0.407956  0.001405  0.078354  0.25516  0.000578  4.09489  0.001
C  C97  1  0.44739876  0.67530153  0.97929871  1  0.407864  0.001405  0.078369  0.255204  0.000578  4.094816  0.001
C  C98  1  0.34924008  0.37562106  0.49122796  1  -0.028652  -0.005071  -0.105376  -0.235934  -0.005473  3.975442  -0.003
C  C99  1  0.65075975  0.62437710  0.50877482  1  -0.028592  -0.00507  -0.105375  -0.235798  -0.005472  3.975504  -0.003
C  C100  1  0.59454846  0.38649183  0.50645692  1  0.004573  -0.006601  -0.088863  -0.192002  -0.007044  3.924352  -0.004
C  C101  1  0.40545360  0.61350964  0.49354257  1  0.004612  -0.006597  -0.088874  -0.192036  -0.00704  3.924544  -0.004
C  C102  1  0.68457341  0.32330175  0.06419546  1  -0.012687  -0.004197  -0.107639  -0.2413  -0.004673  3.967967  -0.003
C  C103  1  0.31543346  0.67669554  0.93580461  1  -0.012613  -0.004197  -0.107678  -0.241297  -0.004673  3.967919  -0.003
C  C104  1  0.45721071  0.32896871  0.11992159  1  -0.046754  0.004361  -0.020645  -0.008936  0.002296  4.013688  0.003
C  C105  1  0.54279512  0.67102856  0.88007735  1  -0.0469  0.004362  -0.020652  -0.008877  0.002296  4.013799  0.003
C  C106  1  0.63811299  0.32542018  0.91991940  1  0.42558  9e-06  -0.058219  -0.008465  8e-06  3.927594  0.0
C  C107  1  0.36189528  0.67458254  0.08007902  1  0.425941  9e-06  -0.058215  -0.008278  8e-06  3.927534  0.0
C  C108  1  0.33617655  0.33384187  0.14994993  1  1.552886  -0.005691  0.190301  0.539323  -0.007397  4.218482  -0.007
C  C109  1  0.66383004  0.66615134  0.85005159  1  1.553191  -0.005692  0.190304  0.539102  -0.007397  4.218613  -0.007
C  C110  1  0.08074735  0.53133735  0.16590611  1  0.411687  -0.008918  0.046851  0.095016  -0.009424  3.948676  -0.006
C  C111  1  0.91925541  0.46865873  0.83409777  1  0.411375  -0.008921  0.046802  0.094883  -0.009427  3.948443  -0.006
C  C112  1  0.16065909  0.78068857  0.25943643  1  0.909976  0.000161  0.22058  0.173657  -0.000333  3.998272  0.001
C  C113  1  0.83934144  0.21930543  0.74056542  1  0.910051  0.00016  0.220699  0.173871  -0.000333  3.998404  0.001
C  C114  1  0.88283444  0.77964699  0.30352344  1  0.925727  0.000305  0.215668  0.155164  -0.000468  4.022827  0.001
C  C115  1  0.11715148  0.22035806  0.69647199  1  0.926642  0.000305  0.215622  0.155145  -0.000469  4.022911  0.001
C  C116  1  0.48214384  0.38120070  0.53438783  1  0.458465  0.001959  0.080121  0.252899  0.000863  4.08861  0.002
C  C117  1  0.51785498  0.61879749  0.46561532  1  0.458625  0.001958  0.08012  0.252809  0.000862  4.08889  0.002
C  C118  1  0.15332687  0.01989200  0.23971666  1  0.038749  -0.0127  0.002338  0.05799  -0.013298  4.04975  -0.008
C  C119  1  0.84669553  0.98010661  0.76029047  1  0.036357  -0.012696  0.002365  0.057994  -0.013294  4.049802  -0.008
C  C120  1  0.20941880  0.53717049  0.27912000  1  0.571961  -0.007757  0.044098  0.099363  -0.008255  3.941328  -0.005
C  C121  1  0.79058278  0.46282353  0.72088347  1  0.571978  -0.007752  0.043952  0.099022  -0.00825  3.941518  -0.005
C  C122  1  0.16246013  0.93006996  0.26058605  1  0.904819  8.7e-05  0.209725  0.153253  -0.000468  4.039846  0.001
C  C123  1  0.83755709  0.06992800  0.73941936  1  0.903983  8.6e-05  0.209793  0.153497  -0.000468  4.039736  0.001
C  C124  1  0.57973593  0.33515776  0.84541788  1  0.022191  7.6e-05  -0.017132  0.073243  3.8e-05  4.006348  0.0
C  C125  1  0.42026540  0.66484720  0.15458294  1  0.022286  7.6e-05  -0.017151  0.073244  3.8e-05  4.00636  0.0
C  C126  1  0.45993779  0.35538685  0.70746554  1  0.016012  -0.000255  -0.017075  0.073208  -0.000271  3.998679  0.0
C  C127  1  0.54006378  0.64460776  0.29253453  1  0.016125  -0.000256  -0.017063  0.073296  -0.000272  3.998668  0.0
C  C128  1  0.53621424  0.25735282  0.79287036  1  0.003917  -0.000243  -0.091652  -0.121091  -0.000259  3.989044  0.0
C  C129  1  0.46378275  0.74264754  0.20713581  1  0.004133  -0.000244  -0.091664  -0.121069  -0.000259  3.988961  0.0
C  C130  1  0.56282585  0.42321157  0.82857106  1  -0.070283  -0.000159  -0.086293  -0.116189  -0.0002  3.959028  0.0
C  C131  1  0.43716921  0.57679205  0.17142732  1  -0.070574  -0.000159  -0.086278  -0.116224  -0.000201  3.959288  0.0
C  C132  1  0.43861790  0.32717037  0.04861303  1  -0.043669  -0.004252  -0.090066  -0.19834  -0.004603  3.926443  -0.002
C  C133  1  0.56138547  0.67282142  0.95138542  1  -0.043821  -0.004252  -0.090103  -0.198385  -0.004603  3.926265  -0.002
C  C134  1  0.97469525  0.08150584  0.37926445  1  -0.063287  0.004384  -0.086734  -0.169869  0.001943  3.959645  0.004
C  C135  1  0.02529461  0.91849710  0.62073122  1  -0.06304  0.004385  -0.086715  -0.169856  0.001943  3.959209  0.004
C  C136  1  0.14853696  0.68019473  0.23995379  1  0.014586  -0.011663  0.009018  0.064695  -0.012311  4.004955  -0.008
C  C137  1  0.85145848  0.31979937  0.76004893  1  0.014634  -0.011663  0.009033  0.064588  -0.012312  4.004685  -0.008
C  C138  1  0.39986256  0.36705919  0.63358323  1  0.381753  -0.00014  -0.063016  -0.01723  -0.0002  3.910183  0.0
C  C139  1  0.60014203  0.63293532  0.36641472  1  0.38177  -0.00014  -0.063068  -0.017316  -0.0002  3.910099  0.0
C  C140  1  0.47710193  0.26748916  0.72415507  1  -0.143653  3.2e-05  -0.091602  -0.120171  -1.3e-05  3.989412  0.0
C  C141  1  0.52290065  0.73250422  0.27585044  1  -0.143875  3.2e-05  -0.091574  -0.120165  -1.3e-05  3.989301  0.0
C  C142  1  0.21354021  0.63243499  0.29268313  1  -0.122964  0.004541  -0.078484  -0.152951  0.002073  3.953811  0.004
C  C143  1  0.78645663  0.36756455  0.70731795  1  -0.122947  0.004541  -0.078458  -0.152754  0.002073  3.95374  0.004
C  C144  1  0.03938950  0.04843420  0.19284903  1  -0.02756  0.005179  -0.091431  -0.191687  0.002251  3.980597  0.004
C  C145  1  0.96063379  0.95156297  0.80715605  1  -0.024314  0.005179  -0.091313  -0.191578  0.002251  3.980584  0.004
C  C146  1  0.97012174  0.66361997  0.38438964  1  -0.026449  0.006599  -0.087974  -0.178688  0.002914  3.953876  0.005
C  C147  1  0.02985415  0.33638793  0.61560341  1  -0.027377  0.006599  -0.087847  -0.178582  0.002914  3.953897  0.005
C  C148  1  0.26434442  0.08328454  0.27022595  1  -0.050177  0.004252  -0.081234  -0.159221  0.001838  3.935706  0.004
C  C149  1  0.73567428  0.91671898  0.72978233  1  -0.050357  0.004251  -0.081155  -0.159053  0.001838  3.935734  0.004
C  C150  1  0.86583868  0.92937185  0.30680054  1  0.952303  -0.000554  0.222105  0.18323  -0.000957  4.00296  0.0
C  C151  1  0.13416132  0.07063023  0.69319479  1  0.952205  -0.000553  0.222148  0.183186  -0.000957  4.003271  0.0
C  C152  1  0.89934578  0.68752791  0.32050021  1  0.015567  -0.016625  0.006951  0.052934  -0.017471  4.026133  -0.011
C  C153  1  0.10062955  0.31247305  0.67949042  1  0.015485  -0.016625  0.006909  0.052966  -0.01747  4.026047  -0.011
C  C154  1  0.97157199  0.57130634  0.39163916  1  0.455049  -0.011988  0.05098  0.10055  -0.012306  3.902978  -0.007
C  C155  1  0.02840817  0.42870299  0.60835858  1  0.455297  -0.011986  0.05105  0.100483  -0.012304  3.90307  -0.007
C  C156  1  0.04180954  0.13719552  0.17873570  1  0.47903  -0.008813  0.051366  0.111817  -0.009332  3.936274  -0.006
C  C157  1  0.95821274  0.86280230  0.82126734  1  0.478486  -0.008809  0.0513  0.111602  -0.009329  3.936475  -0.006
C  C158  1  0.08117242  0.62729983  0.17457644  1  0.030897  0.005962  -0.084726  -0.16767  0.002817  3.943416  0.005
C  C159  1  0.91882592  0.37269214  0.82542589  1  0.030975  0.005962  -0.084751  -0.167629  0.002817  3.943302  0.005
C  C160  1  0.97222789  0.17733819  0.38895354  1  0.51863  -0.007161  0.045876  0.093583  -0.007726  3.940659  -0.005
C  C161  1  0.02776188  0.82266341  0.61104344  1  0.518453  -0.007161  0.045799  0.093486  -0.007727  3.940711  -0.005
C  C162  1  0.50311560  0.43345322  0.76013923  1  -0.027343  -3.5e-05  -0.083717  -0.113908  -0.00012  3.944801  0.0
C  C163  1  0.49688159  0.56653859  0.23985647  1  -0.027332  -3.5e-05  -0.08385  -0.114159  -0.00012  3.9449  0.0
C  C164  1  0.83453060  0.61501185  0.26649102  1  0.057549  0.004108  -0.072136  -0.146681  0.001695  3.936471  0.004
C  C165  1  0.16545594  0.38498892  0.73349950  1  0.057716  0.004108  -0.071989  -0.146637  0.001695  3.936519  0.004
C  C166  1  0.84044972  0.52577729  0.27827227  1  0.431428  -0.01012  0.048464  0.102597  -0.010875  3.936545  -0.006
C  C167  1  0.15953710  0.47422633  0.72172161  1  0.430091  -0.010119  0.048359  0.102477  -0.010874  3.936584  -0.006
N  N168  1  0.87191874  0.22287502  0.35209772  1  -1.204387  0.049545  -0.318258  -0.225586  0.0262  3.544436  0.046
N  N169  1  0.12807017  0.77712866  0.64789941  1  -1.204235  0.049544  -0.318062  -0.225349  0.026199  3.54452  0.046
N  N170  1  0.14812335  0.19770455  0.20810071  1  -1.220512  0.046936  -0.316091  -0.235671  0.024304  3.541034  0.045
N  N171  1  0.85189494  0.80229407  0.79190442  1  -1.221287  0.046937  -0.316129  -0.235577  0.024305  3.541011  0.045
N  N172  1  0.14256998  0.48609900  0.21712170  1  -1.220146  0.053634  -0.324515  -0.248001  0.028557  3.580846  0.05
N  N173  1  0.85742774  0.51389786  0.78288264  1  -1.219896  0.053628  -0.324338  -0.247671  0.028556  3.580608  0.05
N  N174  1  0.90721067  0.50267508  0.33960344  1  -1.207218  0.047395  -0.323368  -0.251054  0.025026  3.58425  0.045
N  N175  1  0.09277213  0.49732931  0.66039103  1  -1.205911  0.047399  -0.323462  -0.251102  0.025027  3.584543  0.045
N  N176  1  0.81821953  0.88643077  0.24054995  1  -0.668781  -0.005513  -0.23699  -0.279159  -0.005564  3.245059  -0.004
N  N177  1  0.18178361  0.11357322  0.75944154  1  -0.668536  -0.005513  -0.236956  -0.279091  -0.005563  3.245257  -0.004
N  N178  1  0.82853882  0.79347911  0.23864995  1  -0.690459  -0.00878  -0.22066  -0.233879  -0.008938  3.252892  -0.007
N  N179  1  0.17145927  0.20652564  0.76134150  1  -0.691101  -0.008778  -0.220675  -0.233807  -0.008936  3.252815  -0.007
N  N180  1  0.22025671  0.82457570  0.32454945  1  -0.70194  -0.0065  -0.232892  -0.255307  -0.006588  3.240872  -0.005
N  N181  1  0.77974702  0.17541969  0.67545496  1  -0.702282  -0.006499  -0.232888  -0.255212  -0.006587  3.240983  -0.005
N  N182  1  0.22379265  0.91719435  0.32486354  1  -0.669102  -0.005623  -0.239058  -0.261128  -0.005686  3.237458  -0.004
N  N183  1  0.77621616  0.08280030  0.67514191  1  -0.668558  -0.005622  -0.239123  -0.261345  -0.005686  3.237557  -0.004
N  N184  1  0.11989707  0.84545651  0.21797846  1  -0.868225  -0.000982  -0.139489  0.102369  -0.001041  3.726374  -0.001
N  N185  1  0.88011120  0.15454499  0.78202528  1  -0.867833  -0.000981  -0.139652  0.10193  -0.00104  3.726494  -0.001
N  N186  1  0.90962214  0.86463365  0.34805786  1  -0.870879  -0.001639  -0.139176  0.102529  -0.001729  3.716631  -0.002
N  N187  1  0.09036170  0.13537137  0.65193533  1  -0.87047  -0.001639  -0.13918  0.102426  -0.001729  3.716619  -0.002
N  N188  1  0.04840196  0.82567734  0.14706236  1  -0.707909  0.000145  -0.482374  -0.496405  3.1e-05  3.121163  0.0
N  N189  1  0.95160920  0.17432142  0.85294339  1  -0.708268  0.000145  -0.482281  -0.496132  3.1e-05  3.121191  0.0
N  N190  1  0.96915126  0.88640581  0.42029315  1  -0.736799  0.000134  -0.489117  -0.509346  -8e-06  3.140383  0.0
N  N191  1  0.03081380  0.11359337  0.57970194  1  -0.736736  0.000134  -0.489151  -0.509256  -8e-06  3.140436  0.0
O  O192  1  0.08839099  0.36721792  0.40507956  1  -1.146886  0.082858  -0.310179  -0.540911  0.043723  2.360852  0.068
O  O193  1  0.91160599  0.63279802  0.59491761  1  -1.146128  0.082862  -0.31023  -0.54099  0.043727  2.360864  0.068
O  O194  1  0.94341663  0.33109740  0.15412119  1  -1.150063  0.089506  -0.309127  -0.540253  0.047388  2.373493  0.075
O  O195  1  0.05658945  0.66890270  0.84588062  1  -1.150062  0.0895  -0.309123  -0.540166  0.047383  2.373624  0.074
O  O196  1  0.81646050  0.39078669  0.44510592  1  -1.15233  0.083319  -0.314526  -0.544186  0.043095  2.175201  0.072
O  O197  1  0.18353590  0.60920731  0.55489393  1  -1.152404  0.083321  -0.314575  -0.544201  0.043096  2.17529  0.072
O  O198  1  0.35643219  0.33905864  0.21612184  1  -1.158602  0.090398  -0.309083  -0.542408  0.046806  2.28425  0.079
O  O199  1  0.64357821  0.66095794  0.78388105  1  -1.158733  0.090397  -0.309107  -0.542404  0.046809  2.284228  0.079
O  O200  1  0.67603647  0.38262013  0.33971292  1  -1.130624  0.086733  -0.311025  -0.543174  0.044743  2.255549  0.076
O  O201  1  0.32395747  0.61736838  0.66028594  1  -1.130598  0.086725  -0.310989  -0.543194  0.04474  2.255406  0.076
O  O202  1  0.21445978  0.33334734  0.11144250  1  -1.147406  0.085057  -0.325189  -0.551401  0.043925  2.139696  0.073
O  O203  1  0.78554274  0.66663218  0.88855979  1  -1.147572  0.085051  -0.325182  -0.551234  0.043918  2.13969  0.073
O  O204  1  0.16443655  0.35758429  0.30883035  1  -1.155176  0.100167  -0.309189  -0.569553  0.053007  2.563713  0.085
O  O205  1  0.83556807  0.64241028  0.69116959  1  -1.155214  0.100147  -0.309147  -0.569579  0.052997  2.563792  0.085
O  O206  1  0.51225529  0.38146647  0.60444950  1  -1.066745  0.000563  -0.172176  -0.189722  0.000306  2.561547  0.0
O  O207  1  0.48774688  0.61853576  0.39555258  1  -1.066802  0.000563  -0.172148  -0.189705  0.000306  2.56145  0.0
O  O208  1  0.52401349  0.32452003  0.95058546  1  -1.068393  0.000458  -0.184949  -0.204846  0.000227  2.520942  0.0
O  O209  1  0.47599948  0.67547652  0.04941626  1  -1.068487  0.000458  -0.184873  -0.204867  0.000227  2.521058  0.0
O  O210  1  0.86038970  0.31783827  0.24567626  1  -1.169632  0.080752  -0.316451  -0.578444  0.042382  2.503482  0.067
O  O211  1  0.13961536  0.68216185  0.75432542  1  -1.169748  0.080748  -0.316367  -0.578314  0.042378  2.503601  0.067
