# generated using pymatgen
data_Zn4H19C32(N5O6)3
_symmetry_space_group_name_H-M   'P 1'
_cell_length_a   13.64650064
_cell_length_b   13.64649134
_cell_length_c   14.15453138
_cell_angle_alpha   88.39667937
_cell_angle_beta   88.39664851
_cell_angle_gamma   60.16180621
_symmetry_Int_Tables_number   1
_chemical_formula_structural   Zn4H19C32(N5O6)3
_chemical_formula_sum   'Zn8 H38 C64 N30 O36'
_cell_volume   2285.32027816
_cell_formula_units_Z   2
loop_
 _symmetry_equiv_pos_site_id
 _symmetry_equiv_pos_as_xyz
  1  'x, y, z'
loop_
 _atom_site_type_symbol
 _atom_site_label
 _atom_site_symmetry_multiplicity
 _atom_site_fract_x
 _atom_site_fract_y
 _atom_site_fract_z
 _atom_site_occupancy
 _atom_site_pbe_bader_charge
 _atom_site_pbe_bader_spin_density
 _atom_site_pbe_cm5_charge
 _atom_site_pbe_ddec_charge
 _atom_site_pbe_ddec_spin_density
 _atom_site_pbe_ddec_sum_bond_order
 _atom_site_pbe_magmom
Zn  Zn0  1  0.53250607  0.84869366  0.00913438  1  1.244555  0  0.719845  0.69142  0  2.465318  0
Zn  Zn1  1  0.15130579  0.46749341  0.49086482  1  1.244532  0  0.719859  0.691419  0  2.465303  0
Zn  Zn2  1  0.46749428  0.15130645  0.99086619  1  1.244474  0  0.719853  0.691447  0  2.46531  0
Zn  Zn3  1  0.84869456  0.53250596  0.50913437  1  1.244556  0  0.719887  0.691485  0  2.465291  0
Zn  Zn4  1  0.55934993  0.02201245  0.39141764  1  1.244241  0  0.734607  0.701665  0  2.487078  0
Zn  Zn5  1  0.97798770  0.44064917  0.10858203  1  1.244244  0  0.734608  0.701625  0  2.487147  0
Zn  Zn6  1  0.44064958  0.97798735  0.60858298  1  1.244253  0  0.734599  0.701624  0  2.487165  0
Zn  Zn7  1  0.02201266  0.55935020  0.89141787  1  1.244263  0  0.734606  0.70164  0  2.487097  0
H  H8  1  0.56389286  0.83359346  0.23782135  1  0.203461  0  0.138321  0.114672  0  1.021362  0
H  H9  1  0.16640474  0.43610857  0.26217781  1  0.203461  0  0.13832  0.114678  0  1.021377  0
H  H10  1  0.43610665  0.16640633  0.76217926  1  0.203472  0  0.138328  0.114679  0  1.021333  0
H  H11  1  0.83359307  0.56389425  0.73782135  1  0.203457  0  0.138315  0.114656  0  1.021351  0
H  H12  1  0.44379863  0.18465019  0.21328095  1  0.200988  0  0.133614  0.103906  0  1.057349  0
H  H13  1  0.81534951  0.55620063  0.28671951  1  0.200981  0  0.133652  0.103967  0  1.057417  0
H  H14  1  0.55620088  0.81534960  0.78671967  1  0.200986  0  0.133613  0.103921  0  1.057347  0
H  H15  1  0.18464999  0.44379989  0.71328038  1  0.200988  0  0.133616  0.103922  0  1.057343  0
H  H16  1  0.38538120  0.29608087  0.37918129  1  0.186598  0  0.143036  0.124659  0  1.011418  0
H  H17  1  0.70391941  0.61461816  0.12081919  1  0.186589  0  0.14304  0.124654  0  1.011451  0
H  H18  1  0.61461831  0.70391893  0.62081933  1  0.186569  0  0.143031  0.124642  0  1.011444  0
H  H19  1  0.29608094  0.38538122  0.87918070  1  0.186581  0  0.143026  0.124646  0  1.01144  0
H  H20  1  0.23066607  0.23306458  0.61600714  1  0.134842  0  0.149954  0.116257  0  0.955855  0
H  H21  1  0.76693540  0.76933404  0.88399426  1  0.134851  0  0.149955  0.116249  0  0.95584  0
H  H22  1  0.76933344  0.76693521  0.38399277  1  0.134858  0  0.149947  0.116245  0  0.955841  0
H  H23  1  0.23306580  0.23066566  0.11600701  1  0.134834  0  0.149942  0.116219  0  0.955871  0
H  H24  1  0.49247205  0.54127689  0.13424264  1  0.130111  0  0.114897  0.123843  0  1.00839  0
H  H25  1  0.45872325  0.50752717  0.36575718  1  0.13009  0  0.114894  0.123817  0  1.008391  0
H  H26  1  0.50752660  0.45872332  0.86575658  1  0.130092  0  0.114889  0.123808  0  1.008406  0
H  H27  1  0.54127711  0.49247220  0.63424342  1  0.130103  0  0.114888  0.123826  0  1.008393  0
H  H28  1  0.17386507  0.54729840  0.13179478  1  0.119339  0  0.112141  0.11326  0  1.038542  0
H  H29  1  0.45270316  0.82613323  0.36820582  1  0.119342  0  0.112136  0.113258  0  1.038536  0
H  H30  1  0.82613360  0.45270328  0.86820581  1  0.119335  0  0.112129  0.113231  0  1.038545  0
H  H31  1  0.54729886  0.17386455  0.63179124  1  0.119399  0  0.11215  0.113257  0  1.038543  0
H  H32  1  0.19853508  0.83226649  0.02157938  1  0.184869  0  0.122305  0.137302  0  0.984703  0
H  H33  1  0.16773462  0.80146385  0.47842129  1  0.184875  0  0.122308  0.137295  0  0.984712  0
H  H34  1  0.80146443  0.16773551  0.97842117  1  0.184894  0  0.122332  0.137324  0  0.984701  0
H  H35  1  0.83226658  0.19853656  0.52157854  1  0.184866  0  0.122311  0.137303  0  0.984691  0
H  H36  1  0.70606228  0.29393872  0.25000051  1  0.13095  0  0.11845  0.125081  0  1.016746  0
H  H37  1  0.29393892  0.70606170  0.75000003  1  0.130943  0  0.118435  0.125081  0  1.016742  0
H  H38  1  0.89442792  0.93645580  0.31190214  1  0.163605  0  0.12165  0.135975  0  0.993837  0
H  H39  1  0.06354472  0.10557077  0.18809698  1  0.163596  0  0.121639  0.135961  0  0.993851  0
H  H40  1  0.10557075  0.06354515  0.68809847  1  0.163604  0  0.121641  0.135966  0  0.99384  0
H  H41  1  0.93645479  0.89442829  0.81190296  1  0.163587  0  0.121637  0.135959  0  0.993846  0
H  H42  1  0.53651783  0.30163268  0.23865731  1  0.680355  0  0.304336  0.368783  0  0.977148  0
H  H43  1  0.69836759  0.46348000  0.26134248  1  0.680361  0  0.304275  0.36866  0  0.977299  0
H  H44  1  0.46347999  0.69836868  0.76134260  1  0.680354  0  0.304314  0.368756  0  0.97719  0
H  H45  1  0.30163276  0.53651790  0.73865677  1  0.680368  0  0.304282  0.36868  0  0.977275  0
C  C46  1  0.53283981  0.91905783  0.20993124  1  0.972709  0  0.157155  0.163245  0  3.90252  0
C  C47  1  0.08094178  0.46716213  0.29006648  1  0.972702  0  0.157135  0.163229  0  3.902485  0
C  C48  1  0.46715971  0.08094197  0.79007008  1  0.972761  0  0.157196  0.163304  0  3.90241  0
C  C49  1  0.91905856  0.53283943  0.70993123  1  0.972751  0  0.157143  0.163268  0  3.902475  0
C  C50  1  0.47210982  0.09684226  0.19759719  1  0.978587  0  0.149035  0.157718  0  3.927787  0
C  C51  1  0.90315634  0.52789076  0.30240111  1  0.97875  0  0.148988  0.157623  0  3.927837  0
C  C52  1  0.52788969  0.90315753  0.80240343  1  0.978581  0  0.148976  0.157577  0  3.927799  0
C  C53  1  0.09684231  0.47211091  0.69759735  1  0.978573  0  0.148952  0.157562  0  3.927714  0
C  C54  1  0.36778278  0.25411481  0.43788295  1  1.021434  0  0.161713  0.169199  0  3.897274  0
C  C55  1  0.74588533  0.63221676  0.06211753  1  1.02143  0  0.161709  0.16923  0  3.897274  0
C  C56  1  0.63221758  0.74588529  0.56211763  1  1.021533  0  0.161715  0.169201  0  3.897278  0
C  C57  1  0.25411502  0.36778188  0.93788310  1  1.021535  0  0.161719  0.169181  0  3.89733  0
C  C58  1  0.28902527  0.22265990  0.55848535  1  1.052136  0  0.164789  0.174559  0  3.939732  0
C  C59  1  0.77733988  0.71097461  0.94151534  1  1.052151  0  0.164857  0.174719  0  3.93967  0
C  C60  1  0.71097424  0.77733990  0.44151527  1  1.052252  0  0.164825  0.174613  0  3.939718  0
C  C61  1  0.22266047  0.28902477  0.05848526  1  1.052148  0  0.164884  0.174742  0  3.939668  0
C  C62  1  0.35411092  0.69076860  0.07379690  1  -0.009286  0  -0.003078  -0.002907  0  3.942292  0
C  C63  1  0.30923119  0.64588829  0.42620231  1  -0.009226  0  -0.00306  -0.0029  0  3.942292  0
C  C64  1  0.64588858  0.30923192  0.92620158  1  -0.00939  0  -0.003064  -0.002887  0  3.942268  0
C  C65  1  0.69076915  0.35411107  0.57379688  1  -0.009442  0  -0.003066  -0.002857  0  3.942318  0
C  C66  1  0.40383370  0.58280414  0.11535041  1  -0.014513  0  -0.05618  -0.074213  0  3.867493  0
C  C67  1  0.41719627  0.59616531  0.38464874  1  -0.014604  0  -0.056213  -0.074246  0  3.8675  0
C  C68  1  0.59616580  0.41719564  0.88464880  1  -0.014607  0  -0.056193  -0.07422  0  3.867503  0
C  C69  1  0.58280407  0.40383406  0.61535045  1  -0.014501  0  -0.056169  -0.074181  0  3.867468  0
C  C70  1  0.34079522  0.52896907  0.13427816  1  -0.037973  0  -0.01012  -0.029898  0  3.961228  0
C  C71  1  0.47103157  0.65920348  0.36572170  1  -0.037981  0  -0.01011  -0.029841  0  3.96118  0
C  C72  1  0.65920344  0.47103187  0.86572103  1  -0.037957  0  -0.01009  -0.029801  0  3.961098  0
C  C73  1  0.52896963  0.34079474  0.63427821  1  -0.037899  0  -0.0101  -0.029914  0  3.961266  0
C  C74  1  0.22555001  0.58563405  0.11481157  1  0.09802  0  -0.063514  -0.110266  0  3.916826  0
C  C75  1  0.41436758  0.77444877  0.38518971  1  0.097987  0  -0.063497  -0.110237  0  3.916759  0
C  C76  1  0.77444950  0.41436648  0.88518902  1  0.098032  0  -0.063513  -0.110237  0  3.916689  0
C  C77  1  0.58563531  0.22554935  0.61481085  1  0.097946  0  -0.063499  -0.110171  0  3.916729  0
C  C78  1  0.17662307  0.69431521  0.07590987  1  0.145008  0  0.07385  0.056368  0  3.944308  0
C  C79  1  0.30568609  0.82337524  0.42409148  1  0.145073  0  0.07384  0.056295  0  3.944343  0
C  C80  1  0.82337560  0.30568647  0.92409071  1  0.144997  0  0.073836  0.056294  0  3.944325  0
C  C81  1  0.69431595  0.17662328  0.57590768  1  0.145049  0  0.073783  0.056247  0  3.944112  0
C  C82  1  0.23922647  0.74746198  0.05253772  1  0.045726  0  -0.058961  -0.112496  0  3.893259  0
C  C83  1  0.25253851  0.76077298  0.44746291  1  0.045687  0  -0.05895  -0.112441  0  3.893273  0
C  C84  1  0.76077303  0.25253928  0.94746214  1  0.045696  0  -0.058952  -0.112447  0  3.893232  0
C  C85  1  0.74746184  0.23922785  0.55253623  1  0.045706  0  -0.058923  -0.112465  0  3.893141  0
C  C86  1  0.42665033  0.74409743  0.06023168  1  1.545831  0  0.198798  0.567239  0  4.197781  0
C  C87  1  0.25590172  0.57334994  0.43976821  1  1.545818  0  0.198788  0.567223  0  4.197818  0
C  C88  1  0.57335002  0.25590194  0.93976822  1  1.545976  0  0.198763  0.567141  0  4.197931  0
C  C89  1  0.74409948  0.42664974  0.56023235  1  1.545992  0  0.198772  0.567164  0  4.197942  0
C  C90  1  0.39421042  0.41442368  0.18001254  1  1.540761  0  0.236381  0.595277  0  4.11146  0
C  C91  1  0.58557628  0.60578751  0.31998732  1  1.540772  0  0.236364  0.595267  0  4.11145  0
C  C92  1  0.60578739  0.58557695  0.81998669  1  1.540633  0  0.236275  0.595114  0  4.11147  0
C  C93  1  0.41442407  0.39421039  0.68001192  1  1.540692  0  0.236338  0.595182  0  4.111551  0
C  C94  1  0.78871873  0.11537027  0.28359166  1  0.006948  0  -0.0085  -0.025017  0  3.95391  0
C  C95  1  0.88463127  0.21128077  0.21640791  1  0.006978  0  -0.00847  -0.024976  0  3.953837  0
C  C96  1  0.21128078  0.88463025  0.71640894  1  0.00696  0  -0.008462  -0.024991  0  3.953977  0
C  C97  1  0.11536993  0.78871892  0.78359336  1  0.006977  0  -0.008483  -0.025005  0  3.953817  0
C  C98  1  0.78563372  0.21436613  0.25000053  1  -0.024872  0  -0.051608  -0.068509  0  3.851753  0
C  C99  1  0.21436664  0.78563398  0.75000005  1  -0.024875  0  -0.051594  -0.068482  0  3.851789  0
C  C100  1  0.98798138  0.01201758  0.24999980  1  0.215728  0  0.080983  0.063666  0  3.952925  0
C  C101  1  0.01201728  0.98798190  0.75000015  1  0.215675  0  0.08099  0.063697  0  3.952946  0
C  C102  1  0.89105037  0.01321146  0.28445038  1  0.016329  0  -0.054254  -0.096821  0  3.887794  0
C  C103  1  0.98679009  0.10894760  0.21554918  1  0.016322  0  -0.054265  -0.096847  0  3.887764  0
C  C104  1  0.10894829  0.98678948  0.71555023  1  0.016335  0  -0.054286  -0.09687  0  3.887848  0
C  C105  1  0.01321027  0.89105177  0.78445142  1  0.016366  0  -0.054261  -0.09684  0  3.887772  0
C  C106  1  0.68428388  0.11545501  0.31901023  1  1.565707  0  0.215143  0.58035  0  4.180833  0
C  C107  1  0.88454587  0.31571532  0.18099010  1  1.565697  0  0.215149  0.580372  0  4.180795  0
C  C108  1  0.31571564  0.88454625  0.68099104  1  1.565712  0  0.215154  0.580361  0  4.180762  0
C  C109  1  0.11545533  0.68428363  0.81901048  1  1.565708  0  0.215155  0.580368  0  4.180789  0
N  N110  1  0.51294875  0.94701530  0.11879444  1  -0.788481  0  -0.253646  -0.182601  0  3.525035  0
N  N111  1  0.05298420  0.48705183  0.38120476  1  -0.788425  0  -0.253614  -0.182598  0  3.525  0
N  N112  1  0.48705076  0.05298523  0.88120616  1  -0.788536  0  -0.253678  -0.182681  0  3.525072  0
N  N113  1  0.94701446  0.51294911  0.61879444  1  -0.788505  0  -0.253649  -0.182652  0  3.525056  0
N  N114  1  0.47433515  0.06094589  0.11083082  1  -0.817545  0  -0.254642  -0.194833  0  3.490243  0
N  N115  1  0.93905430  0.52566505  0.38916884  1  -0.817716  0  -0.254629  -0.194806  0  3.490189  0
N  N116  1  0.52566436  0.93905463  0.88916977  1  -0.817553  0  -0.254591  -0.194713  0  3.490132  0
N  N117  1  0.06094520  0.47433547  0.61083034  1  -0.817525  0  -0.254571  -0.194692  0  3.490048  0
N  N118  1  0.50857110  0.01080300  0.26171934  1  -1.259135  0  -0.358527  -0.317267  0  3.53777  0
N  N119  1  0.98919500  0.49143069  0.23827961  1  -1.259141  0  -0.358545  -0.317233  0  3.537793  0
N  N120  1  0.49142841  0.98919679  0.73828128  1  -1.259145  0  -0.358519  -0.317208  0  3.537692  0
N  N121  1  0.01080281  0.50857214  0.76171884  1  -1.259175  0  -0.358504  -0.31721  0  3.537736  0
N  N122  1  0.43304965  0.14596213  0.46245607  1  -0.801685  0  -0.257456  -0.191517  0  3.541551  0
N  N123  1  0.85403844  0.56695025  0.03754363  1  -0.801703  0  -0.257461  -0.191519  0  3.54155  0
N  N124  1  0.56695070  0.85403797  0.53754381  1  -0.801683  0  -0.25747  -0.191506  0  3.541553  0
N  N125  1  0.14596276  0.43304943  0.96245623  1  -0.801682  0  -0.257427  -0.191446  0  3.541498  0
N  N126  1  0.38257982  0.12591809  0.54005952  1  -0.801882  0  -0.257282  -0.188224  0  3.535172  0
N  N127  1  0.87408148  0.61742062  0.95994111  1  -0.801986  0  -0.257372  -0.188343  0  3.535333  0
N  N128  1  0.61741968  0.87408170  0.45994039  1  -0.802076  0  -0.257285  -0.188235  0  3.535194  0
N  N129  1  0.12591888  0.38257948  0.04005947  1  -0.80205  0  -0.257341  -0.188291  0  3.535262  0
N  N130  1  0.27678827  0.30490024  0.49655548  1  -1.261758  0  -0.351728  -0.308588  0  3.55817  0
N  N131  1  0.69509900  0.72321138  0.00344506  1  -1.261657  0  -0.351704  -0.30866  0  3.558159  0
N  N132  1  0.72321209  0.69509913  0.50344513  1  -1.261775  0  -0.351743  -0.308624  0  3.558176  0
N  N133  1  0.30490135  0.27678799  0.99655483  1  -1.261681  0  -0.351752  -0.30867  0  3.558178  0
N  N134  1  0.05301612  0.75739400  0.06432107  1  0.396651  0  0.05538  0.51853  0  4.209048  0
N  N135  1  0.24260735  0.94698256  0.43567961  1  0.396611  0  0.055349  0.518507  0  4.209061  0
N  N136  1  0.94698170  0.24260957  0.93567948  1  0.396615  0  0.055367  0.518496  0  4.209003  0
N  N137  1  0.75739469  0.05301670  0.56431952  1  0.396632  0  0.055316  0.5185  0  4.209071  0
N  N138  1  0.09551443  0.90448437  0.25000004  1  0.363712  0  0.060002  0.516325  0  4.192274  0
N  N139  1  0.90448508  0.09551469  0.74999919  1  0.363767  0  0.060023  0.516307  0  4.192185  0
O  O140  1  0.40487239  0.81691535  0.99207751  1  -1.158292  0  -0.33979  -0.533975  0  2.198748  0
O  O141  1  0.18308487  0.59512752  0.50792258  1  -1.158291  0  -0.339774  -0.533949  0  2.198751  0
O  O142  1  0.59512881  0.18308507  0.00792232  1  -1.158199  0  -0.339775  -0.533925  0  2.198799  0
O  O143  1  0.81691634  0.40487217  0.49207869  1  -1.158297  0  -0.339768  -0.53393  0  2.198883  0
O  O144  1  0.50740136  0.71513379  0.11575637  1  -1.165733  0  -0.317354  -0.54876  0  2.166492  0
O  O145  1  0.28486569  0.49259809  0.38424351  1  -1.165734  0  -0.31738  -0.548781  0  2.1665  0
O  O146  1  0.49259815  0.28486600  0.88424425  1  -1.165722  0  -0.317363  -0.548749  0  2.166543  0
O  O147  1  0.71513467  0.50740129  0.61575710  1  -1.165748  0  -0.317384  -0.548784  0  2.166522  0
O  O148  1  0.50203141  0.37538595  0.19948369  1  -1.193217  0  -0.327048  -0.486652  0  2.342362  0
O  O149  1  0.62461513  0.49796665  0.30051750  1  -1.193407  0  -0.327001  -0.486558  0  2.342404  0
O  O150  1  0.49796725  0.62461500  0.80051692  1  -1.1934  0  -0.327024  -0.486601  0  2.342392  0
O  O151  1  0.37538692  0.50203042  0.69948312  1  -1.193214  0  -0.326986  -0.486534  0  2.342445  0
O  O152  1  0.34238409  0.36279574  0.19731792  1  -1.15664  0  -0.295759  -0.518568  0  2.175799  0
O  O153  1  0.63720490  0.65761489  0.30268188  1  -1.156606  0  -0.295749  -0.518566  0  2.175767  0
O  O154  1  0.65761458  0.63720594  0.80268196  1  -1.156487  0  -0.295686  -0.518481  0  2.175722  0
O  O155  1  0.36279545  0.34238447  0.69731731  1  -1.156627  0  -0.295739  -0.51851  0  2.175768  0
O  O156  1  0.99996647  0.70656629  0.08181082  1  -0.478266  0  -0.14793  -0.361751  0  1.954708  0
O  O157  1  0.29343509  0.00003230  0.41819029  1  -0.478259  0  -0.147925  -0.361756  0  1.954725  0
O  O158  1  0.00003136  0.29343654  0.91819045  1  -0.478272  0  -0.147928  -0.361748  0  1.954763  0
O  O159  1  0.70656695  0.99996696  0.58180884  1  -0.478215  0  -0.147914  -0.361764  0  1.954716  0
O  O160  1  0.00872714  0.85810631  0.03943345  1  -0.460747  0  -0.134236  -0.332852  0  1.905642  0
O  O161  1  0.14189453  0.99127210  0.46056585  1  -0.460713  0  -0.134202  -0.332804  0  1.905633  0
O  O162  1  0.99127237  0.14189495  0.96056711  1  -0.460686  0  -0.134211  -0.3328  0  1.905527  0
O  O163  1  0.85810666  0.00872758  0.53943330  1  -0.460783  0  -0.134202  -0.332817  0  1.905679  0
O  O164  1  0.70031442  0.02399181  0.36127764  1  -1.161196  0  -0.324701  -0.52712  0  2.338399  0
O  O165  1  0.97600812  0.29968553  0.13872338  1  -1.161206  0  -0.324702  -0.527099  0  2.338432  0
O  O166  1  0.29968594  0.97600830  0.63872364  1  -1.161201  0  -0.324696  -0.527106  0  2.338432  0
O  O167  1  0.02399308  0.70031343  0.86127721  1  -1.161188  0  -0.324721  -0.527133  0  2.338387  0
O  O168  1  0.58706796  0.20007355  0.30772695  1  -1.195842  0  -0.307353  -0.554704  0  2.245055  0
O  O169  1  0.79992696  0.41293210  0.19227342  1  -1.195829  0  -0.307356  -0.55472  0  2.245025  0
O  O170  1  0.41293240  0.79992656  0.69227433  1  -1.195838  0  -0.307353  -0.554714  0  2.244989  0
O  O171  1  0.20007424  0.58706759  0.80772644  1  -1.195871  0  -0.307363  -0.554707  0  2.245061  0
O  O172  1  0.18296005  0.90696848  0.22778893  1  -0.459253  0  -0.128856  -0.333532  0  1.924063  0
O  O173  1  0.09302848  0.81703925  0.27221189  1  -0.45932  0  -0.128772  -0.333467  0  1.924127  0
O  O174  1  0.81704030  0.09302942  0.77221102  1  -0.459305  0  -0.12882  -0.333482  0  1.924025  0
O  O175  1  0.90697103  0.18295981  0.72778805  1  -0.459318  0  -0.128813  -0.333488  0  1.924059  0
