# generated using pymatgen
data_ZnH12C15NO5
_symmetry_space_group_name_H-M   'P 1'
_cell_length_a   10.45132450
_cell_length_b   12.39226986
_cell_length_c   12.39243612
_cell_angle_alpha   74.52204833
_cell_angle_beta   87.34323016
_cell_angle_gamma   87.34361312
_symmetry_Int_Tables_number   1
_chemical_formula_structural   ZnH12C15NO5
_chemical_formula_sum   'Zn4 H48 C60 N4 O20'
_cell_volume   1544.18032017
_cell_formula_units_Z   4
loop_
 _symmetry_equiv_pos_site_id
 _symmetry_equiv_pos_as_xyz
  1  'x, y, z'
loop_
 _atom_site_type_symbol
 _atom_site_label
 _atom_site_symmetry_multiplicity
 _atom_site_fract_x
 _atom_site_fract_y
 _atom_site_fract_z
 _atom_site_occupancy
 _atom_site_pbe_bader_charge
 _atom_site_pbe_bader_spin_density
 _atom_site_pbe_cm5_charge
 _atom_site_pbe_ddec_charge
 _atom_site_pbe_ddec_spin_density
 _atom_site_pbe_ddec_sum_bond_order
 _atom_site_pbe_magmom
Zn  Zn0  1  0.09590546  0.41983760  0.97745969  1  1.295386  0  0.673347  0.830354  0  2.404964  0
Zn  Zn1  1  0.40407987  0.02254517  0.58014962  1  1.295587  0  0.673389  0.830435  0  2.404966  0
Zn  Zn2  1  0.90409463  0.58015379  0.02254759  1  1.295436  0  0.673384  0.830395  0  2.404926  0
Zn  Zn3  1  0.59590462  0.97745089  0.41984246  1  1.295297  0  0.673386  0.830445  0  2.404954  0
H  H4  1  0.22913203  0.60204329  0.64339226  1  0.080471  0  0.103164  0.107048  0  1.002667  0
H  H5  1  0.27191632  0.73512354  0.45940186  1  0.061118  0  0.104188  0.119847  0  1.006451  0
H  H6  1  0.91695230  0.91756488  0.49886748  1  0.120452  0  0.106354  0.130291  0  1.013956  0
H  H7  1  0.87936840  0.78570044  0.68566235  1  0.093056  0  0.102789  0.106418  0  1.003936  0
H  H8  1  0.25430965  0.83480960  0.28655786  1  0.063237  0  0.103478  0.081258  0  1.003566  0
H  H9  1  0.21610821  0.97929103  0.22599622  1  0.063484  0  0.114518  0.105316  0  0.984409  0
H  H10  1  0.25387128  0.33915888  0.80603599  1  0.126062  0  0.125105  0.098342  0  0.974442  0
H  H11  1  0.42649099  0.18973524  0.80684021  1  0.118633  0  0.1111  0.126402  0  1.001451  0
H  H12  1  0.44315321  0.14023807  0.16438930  1  0.131801  0  0.109849  0.130945  0  1.009539  0
H  H13  1  0.26898915  0.28976172  0.14894758  1  0.113425  0  0.119633  0.094066  0  1.01915  0
H  H14  1  0.59709228  0.06742268  0.91476947  1  0.070549  0  0.096796  0.097987  0  0.997985  0
H  H15  1  0.60090903  0.04251445  0.06339544  1  0.040075  0  0.098322  0.103751  0  0.979166  0
H  H16  1  0.27085188  0.35664198  0.39794910  1  0.080543  0  0.103178  0.107079  0  1.002651  0
H  H17  1  0.22809184  0.54063095  0.26486581  1  0.061052  0  0.104226  0.11995  0  1.006433  0
H  H18  1  0.58305312  0.50113271  0.08242387  1  0.120307  0  0.106334  0.13024  0  1.013881  0
H  H19  1  0.62061424  0.31434174  0.21429523  1  0.093118  0  0.102779  0.106397  0  1.004046  0
H  H20  1  0.24570115  0.71346977  0.16517062  1  0.063032  0  0.103507  0.081288  0  1.003495  0
H  H21  1  0.28388362  0.77401531  0.02069164  1  0.063151  0  0.114582  0.105427  0  0.984271  0
H  H22  1  0.24613212  0.19397476  0.66084260  1  0.125935  0  0.125142  0.098338  0  0.974559  0
H  H23  1  0.07352110  0.19316347  0.81027079  1  0.118685  0  0.111136  0.126452  0  1.001404  0
H  H24  1  0.05685624  0.83560554  0.85975751  1  0.131813  0  0.109813  0.130939  0  1.009469  0
H  H25  1  0.23101677  0.85106017  0.71022959  1  0.113481  0  0.1196  0.093967  0  1.019316  0
H  H26  1  0.90292121  0.08522572  0.93257486  1  0.070829  0  0.096731  0.097861  0  0.998124  0
H  H27  1  0.89910983  0.93659584  0.95748013  1  0.039933  0  0.098324  0.103763  0  0.9791  0
H  H28  1  0.77085237  0.39793568  0.35662813  1  0.080607  0  0.103139  0.107025  0  1.002832  0
H  H29  1  0.72808990  0.26485958  0.54061157  1  0.061215  0  0.104236  0.119916  0  1.006469  0
H  H30  1  0.08306004  0.08242961  0.50112467  1  0.120294  0  0.106308  0.130179  0  1.013931  0
H  H31  1  0.12061772  0.21430238  0.31433015  1  0.093081  0  0.102768  0.106398  0  1.00398  0
H  H32  1  0.74570033  0.16517517  0.71345333  1  0.063476  0  0.103485  0.081209  0  1.003481  0
H  H33  1  0.78389130  0.02069101  0.77400731  1  0.063306  0  0.114506  0.105342  0  0.984173  0
H  H34  1  0.74613524  0.66083829  0.19396452  1  0.125999  0  0.125117  0.09835  0  0.97449  0
H  H35  1  0.57352292  0.81026778  0.19315670  1  0.118693  0  0.11114  0.126471  0  1.00142  0
H  H36  1  0.55685435  0.85975646  0.83560548  1  0.131796  0  0.109814  0.13092  0  1.009462  0
H  H37  1  0.73102060  0.71022703  0.85105279  1  0.113325  0  0.119671  0.09423  0  1.019031  0
H  H38  1  0.40292951  0.93257530  0.08522694  1  0.070844  0  0.096717  0.09784  0  0.998207  0
H  H39  1  0.39910698  0.95748435  0.93660098  1  0.040292  0  0.098306  0.103748  0  0.979008  0
H  H40  1  0.72912940  0.64338545  0.60205189  1  0.080633  0  0.103158  0.107059  0  1.002687  0
H  H41  1  0.77190773  0.45939291  0.73512251  1  0.061239  0  0.10421  0.119963  0  1.006489  0
H  H42  1  0.41694680  0.49886190  0.91757604  1  0.120387  0  0.106313  0.130208  0  1.013903  0
H  H43  1  0.37936726  0.68565885  0.78571182  1  0.092859  0  0.102804  0.106404  0  1.003908  0
H  H44  1  0.75430350  0.28654735  0.83481699  1  0.062893  0  0.10348  0.081236  0  1.003498  0
H  H45  1  0.71611203  0.22598831  0.97929700  1  0.063306  0  0.114553  0.105411  0  0.984185  0
H  H46  1  0.75386628  0.80603341  0.33916156  1  0.125991  0  0.125075  0.09829  0  0.974469  0
H  H47  1  0.92647857  0.80683809  0.18973925  1  0.11875  0  0.111124  0.12646  0  1.001419  0
H  H48  1  0.94314239  0.16439659  0.14023949  1  0.131785  0  0.109845  0.130958  0  1.009462  0
H  H49  1  0.76898248  0.14894950  0.28976523  1  0.113342  0  0.119689  0.094239  0  1.01908  0
H  H50  1  0.09708057  0.91477067  0.06742931  1  0.070694  0  0.096701  0.097809  0  0.998185  0
H  H51  1  0.10089775  0.06339879  0.04251945  1  0.040063  0  0.09833  0.103805  0  0.979145  0
C  C52  1  0.03124775  0.60862153  0.79088595  1  1.548593  0  0.211159  0.590286  0  4.181709  0
C  C53  1  0.05115019  0.68417836  0.67644087  1  -0.002007  0  -0.037437  -0.084947  0  4.021419  0
C  C54  1  0.16031000  0.67052712  0.61066273  1  -0.013617  0  -0.085132  -0.064826  0  3.998805  0
C  C55  1  0.18370744  0.74542257  0.50650242  1  -0.051036  0  -0.114112  -0.226487  0  4.005666  0
C  C56  1  0.09529608  0.83423924  0.46605323  1  0.487422  0  0.087264  0.268962  0  4.046276  0
C  C57  1  0.98422200  0.84755973  0.53008330  1  -0.070829  0  -0.103091  -0.202519  0  3.972986  0
C  C58  1  0.96374835  0.77371573  0.63462569  1  -0.069039  0  -0.084475  -0.067857  0  4.000776  0
C  C59  1  0.22870931  0.91519894  0.30569756  1  0.429252  0  -0.065537  -0.122812  0  3.915138  0
C  C60  1  0.33911652  0.94877154  0.36579092  1  1.604742  0  0.20527  0.590753  0  4.190311  0
C  C61  1  0.29749012  0.29109310  0.88334301  1  0.454289  0  0.052283  0.095039  0  3.95053  0
C  C62  1  0.39270516  0.20905470  0.88447479  1  -0.047856  0  -0.083217  -0.187527  0  3.947485  0
C  C63  1  0.44479810  0.15081194  0.98662263  1  -0.043867  0  0.014878  0.171089  0  3.959711  0
C  C64  1  0.40209595  0.18089884  0.08355596  1  -0.001308  0  -0.082624  -0.18464  0  3.917893  0
C  C65  1  0.30629901  0.26378178  0.07585315  1  0.461502  0  0.053603  0.10792  0  3.917738  0
C  C66  1  0.53756805  0.05403565  0.99241155  1  -0.023898  0  -0.151891  -0.195302  0  3.930943  0
C  C67  1  0.46872177  0.20912442  0.39138229  1  1.549269  0  0.211446  0.590666  0  4.180937  0
C  C68  1  0.44883907  0.32357440  0.31581696  1  -0.001495  0  -0.037553  -0.084877  0  4.020917  0
C  C69  1  0.33969169  0.38936003  0.32947897  1  -0.014189  0  -0.085002  -0.064774  0  3.998463  0
C  C70  1  0.31629729  0.49352900  0.25457833  1  -0.051094  0  -0.114284  -0.226855  0  4.00568  0
C  C71  1  0.40471163  0.53396736  0.16575561  1  0.488026  0  0.087288  0.269185  0  4.046322  0
C  C72  1  0.51577265  0.46993145  0.15243131  1  -0.070653  0  -0.103107  -0.202607  0  3.973027  0
C  C73  1  0.53624280  0.36538787  0.22627569  1  -0.069395  0  -0.084453  -0.067834  0  4.000887  0
C  C74  1  0.27128937  0.69431786  0.08478883  1  0.429648  0  -0.065637  -0.122853  0  3.915075  0
C  C75  1  0.16089344  0.63419770  0.05123065  1  1.604874  0  0.205063  0.590399  0  4.190593  0
C  C76  1  0.20251599  0.11666425  0.70890870  1  0.454417  0  0.052295  0.095156  0  3.950813  0
C  C77  1  0.10730795  0.11552732  0.79095131  1  -0.047861  0  -0.083336  -0.187709  0  3.947707  0
C  C78  1  0.05521769  0.01337661  0.84918800  1  -0.044798  0  0.014969  0.171313  0  3.9597  0
C  C79  1  0.09791074  0.91644274  0.81909598  1  -0.000974  0  -0.082528  -0.184701  0  3.917617  0
C  C80  1  0.19370645  0.92415010  0.73621014  1  0.46088  0  0.053617  0.108068  0  3.917808  0
C  C81  1  0.96244842  0.00758179  0.94596484  1  -0.047157  0  -0.151841  -0.195208  0  3.931039  0
C  C82  1  0.96871889  0.39139088  0.20912480  1  1.549319  0  0.21135  0.590556  0  4.181204  0
C  C83  1  0.94884306  0.31581638  0.32356655  1  -0.001573  0  -0.037566  -0.084996  0  4.021386  0
C  C84  1  0.83968881  0.32947188  0.38934566  1  -0.013893  0  -0.085032  -0.064706  0  3.998701  0
C  C85  1  0.81629552  0.25456982  0.49351172  1  -0.05133  0  -0.114128  -0.226675  0  4.005598  0
C  C86  1  0.90471435  0.16575632  0.53395000  1  0.487868  0  0.087203  0.268947  0  4.046465  0
C  C87  1  0.01578069  0.15243742  0.46991658  1  -0.070721  0  -0.102999  -0.202336  0  3.973116  0
C  C88  1  0.03624764  0.22628146  0.36537769  1  -0.069406  0  -0.084449  -0.067827  0  4.000937  0
C  C89  1  0.77129574  0.08478818  0.69430590  1  0.429055  0  -0.065462  -0.122539  0  3.914521  0
C  C90  1  0.66089355  0.05123037  0.63419356  1  1.604781  0  0.204938  0.590134  0  4.190212  0
C  C91  1  0.70251820  0.70890659  0.11665671  1  0.454244  0  0.052211  0.094973  0  3.950617  0
C  C92  1  0.60730333  0.79094072  0.11552210  1  -0.047668  0  -0.083197  -0.187528  0  3.947628  0
C  C93  1  0.55521525  0.84918178  0.01337294  1  -0.04414  0  0.014861  0.171143  0  3.959598  0
C  C94  1  0.59791364  0.81909316  0.91643865  1  -0.00089  0  -0.082553  -0.184644  0  3.917581  0
C  C95  1  0.69370779  0.73620859  0.92414446  1  0.460984  0  0.053497  0.107726  0  3.917685  0
C  C96  1  0.46245182  0.94596228  0.00758253  1  -0.047971  0  -0.151788  -0.195138  0  3.930989  0
C  C97  1  0.53125013  0.79087501  0.60861178  1  1.548729  0  0.211383  0.590632  0  4.18139  0
C  C98  1  0.55114130  0.67642942  0.68418357  1  -0.001965  0  -0.037557  -0.084981  0  4.021428  0
C  C99  1  0.66030063  0.61065666  0.67053027  1  -0.014012  0  -0.085059  -0.064724  0  3.998756  0
C  C100  1  0.68369798  0.50648502  0.74542349  1  -0.051367  0  -0.114128  -0.22674  0  4.005792  0
C  C101  1  0.59528572  0.46604238  0.83424330  1  0.487981  0  0.08722  0.269013  0  4.04632  0
C  C102  1  0.48422186  0.53007745  0.84756797  1  -0.070978  0  -0.103002  -0.202466  0  3.973176  0
C  C103  1  0.46374420  0.63461768  0.77372567  1  -0.068657  0  -0.084514  -0.067858  0  4.001151  0
C  C104  1  0.72870704  0.30569095  0.91520555  1  0.429657  0  -0.065569  -0.122813  0  3.914946  0
C  C105  1  0.83911251  0.36579116  0.94877550  1  1.604997  0  0.205071  0.590433  0  4.190225  0
C  C106  1  0.79748234  0.88334556  0.29109338  1  0.454327  0  0.052359  0.095102  0  3.95065  0
C  C107  1  0.89269451  0.88447592  0.20905813  1  -0.048092  0  -0.083248  -0.187622  0  3.947615  0
C  C108  1  0.94478771  0.98662487  0.15081697  1  -0.044048  0  0.014907  0.171273  0  3.959534  0
C  C109  1  0.90209180  0.08355777  0.18090375  1  -0.000983  0  -0.082615  -0.184746  0  3.917725  0
C  C110  1  0.80629479  0.07585793  0.26378668  1  0.461036  0  0.053526  0.107725  0  3.917718  0
C  C111  1  0.03755815  0.99241458  0.05403752  1  -0.024013  0  -0.151842  -0.195251  0  3.931106  0
N  N112  1  0.25277782  0.31613022  0.97784285  1  -1.245197  0  -0.332896  -0.228104  0  3.549088  0
N  N113  1  0.24722120  0.02216564  0.68386424  1  -1.245059  0  -0.332954  -0.228299  0  3.549414  0
N  N114  1  0.74722785  0.68386442  0.02215762  1  -1.245148  0  -0.332843  -0.228106  0  3.549091  0
N  N115  1  0.75277423  0.97784407  0.31613315  1  -1.24501  0  -0.332898  -0.228079  0  3.549103  0
O  O116  1  0.09514727  0.51549665  0.81637744  1  -1.17359  0  -0.323102  -0.54623  0  2.32141  0
O  O117  1  0.95209145  0.64387952  0.85678162  1  -1.180373  0  -0.320392  -0.569617  0  2.393359  0
O  O118  1  0.10885704  0.91230283  0.36503163  1  -1.07578  0  -0.176469  -0.180479  0  2.605824  0
O  O119  1  0.45088783  0.93849650  0.32360990  1  -1.176825  0  -0.32622  -0.557602  0  2.269211  0
O  O120  1  0.30868508  0.98455129  0.44998791  1  -1.176035  0  -0.306503  -0.537117  0  2.370579  0
O  O121  1  0.40483967  0.18363316  0.48448731  1  -1.174034  0  -0.323166  -0.546349  0  2.321956  0
O  O122  1  0.54789243  0.14322257  0.35611200  1  -1.180549  0  -0.320591  -0.569956  0  2.392446  0
O  O123  1  0.39115084  0.63498783  0.08768896  1  -1.076466  0  -0.176449  -0.180553  0  2.605772  0
O  O124  1  0.04912292  0.67638251  0.06150870  1  -1.17668  0  -0.326146  -0.557443  0  2.269225  0
O  O125  1  0.19133149  0.55000641  0.01544927  1  -1.176283  0  -0.306387  -0.536947  0  2.370375  0
O  O126  1  0.90483742  0.48449638  0.18363003  1  -1.17429  0  -0.323079  -0.546229  0  2.322141  0
O  O127  1  0.04790319  0.35612695  0.14322238  1  -1.180496  0  -0.32058  -0.569954  0  2.392459  0
O  O128  1  0.89115922  0.08769110  0.63497344  1  -1.075679  0  -0.176508  -0.180568  0  2.605626  0
O  O129  1  0.54912472  0.06151467  0.67637424  1  -1.176573  0  -0.32616  -0.557448  0  2.269276  0
O  O130  1  0.69131825  0.01545138  0.54999422  1  -1.17628  0  -0.306312  -0.53683  0  2.370028  0
O  O131  1  0.59514564  0.81636633  0.51550698  1  -1.173981  0  -0.323064  -0.546286  0  2.322004  0
O  O132  1  0.45208221  0.85677921  0.64387321  1  -1.180144  0  -0.320587  -0.569892  0  2.39277  0
O  O133  1  0.60885153  0.36501590  0.91230339  1  -1.076385  0  -0.176478  -0.180482  0  2.605793  0
O  O134  1  0.95087723  0.32360820  0.93850604  1  -1.176844  0  -0.326144  -0.557415  0  2.269461  0
O  O135  1  0.80867641  0.45000239  0.98454301  1  -1.176223  0  -0.306416  -0.537058  0  2.37001  0
