# generated using pymatgen
data_Mg2H12C17(NO2)4
_symmetry_space_group_name_H-M   'P 1'
_cell_length_a   6.93716675
_cell_length_b   32.64124137
_cell_length_c   32.63650069
_cell_angle_alpha   119.51271418
_cell_angle_beta   94.05727798
_cell_angle_gamma   94.07260157
_symmetry_Int_Tables_number   1
_chemical_formula_structural   Mg2H12C17(NO2)4
_chemical_formula_sum   'Mg6 H36 C51 N12 O24'
_cell_volume   6367.22686953
_cell_formula_units_Z   3
loop_
 _symmetry_equiv_pos_site_id
 _symmetry_equiv_pos_as_xyz
  1  'x, y, z'
loop_
 _atom_site_type_symbol
 _atom_site_label
 _atom_site_symmetry_multiplicity
 _atom_site_fract_x
 _atom_site_fract_y
 _atom_site_fract_z
 _atom_site_occupancy
 _atom_site_pbe_bader_charge
 _atom_site_pbe_bader_spin_density
 _atom_site_pbe_cm5_charge
 _atom_site_pbe_ddec_charge
 _atom_site_pbe_ddec_spin_density
 _atom_site_pbe_ddec_sum_bond_order
 _atom_site_pbe_magmom
Mg  Mg0  1  0.28203848  0.66993132  0.30273534  1  1.685829  0  0.908448  1.413352  0  1.318853  0
Mg  Mg1  1  0.68807031  0.33012975  0.69681937  1  1.684968  0  0.90254  1.408956  0  1.323077  0
Mg  Mg2  1  0.97919461  0.69733334  0.36730097  1  1.684166  0  0.907854  1.412263  0  1.320002  0
Mg  Mg3  1  0.99097357  0.30310312  0.63321236  1  1.682616  0  0.902755  1.408914  0  1.323825  0
Mg  Mg4  1  0.61225160  0.63277835  0.33010998  1  1.684844  0  0.908282  1.412747  0  1.320091  0
Mg  Mg5  1  0.35788981  0.36667807  0.66976236  1  1.684921  0  0.902581  1.409285  0  1.323435  0
H  H6  1  0.93185326  0.19148746  0.61160699  1  0.065772  0  0.105796  0.130117  0  1.017462  0
H  H7  1  0.93980416  0.11366221  0.56569749  1  0.433619  0  0.324455  0.27726  0  0.931948  0
H  H8  1  0.00993631  0.04074111  0.53641786  1  0.420388  0  0.324779  0.282722  0  0.928554  0
H  H9  1  0.75017627  0.97439522  0.44872346  1  0.081388  0  0.117627  0.067018  0  0.974751  0
H  H10  1  0.82045998  0.95767757  0.49166634  1  0.105438  0  0.126332  0.082338  0  0.971039  0
H  H11  1  0.10144859  0.97581297  0.43690151  1  0.4402  0  0.322227  0.281764  0  0.926991  0
H  H12  1  0.34324094  0.93044050  0.42621747  1  0.438606  0  0.320121  0.276574  0  0.934946  0
H  H13  1  0.05620233  0.81378886  0.38046674  1  0.123386  0  0.110734  0.141652  0  1.000067  0
H  H14  1  0.77090502  0.82777273  0.42024173  1  0.131987  0  0.106175  0.118811  0  1.031849  0
H  H15  1  0.61552804  0.89963005  0.43962351  1  0.044169  0  0.092782  0.093681  0  1.071652  0
H  H16  1  0.40937767  0.09946795  0.52636661  1  0.138722  0  0.098141  0.122029  0  1.046711  0
H  H17  1  0.22731559  0.17019786  0.55965767  1  0.072546  0  0.099665  0.099504  0  1.013045  0
H  H18  1  0.32039739  0.38832583  0.57978550  1  0.054488  0  0.105925  0.129986  0  1.017007  0
H  H19  1  0.37447142  0.43428117  0.54792985  1  0.428442  0  0.324529  0.276964  0  0.931923  0
H  H20  1  0.47357057  0.46353548  0.50418936  1  0.427765  0  0.324397  0.281794  0  0.928771  0
H  H21  1  0.30116698  0.55117828  0.52557963  1  0.070257  0  0.117508  0.067556  0  0.974308  0
H  H22  1  0.32916501  0.50831657  0.46590608  1  0.141225  0  0.126174  0.08245  0  0.971129  0
H  H23  1  0.66427394  0.56320414  0.53899549  1  0.447814  0  0.322278  0.281518  0  0.927317  0
H  H24  1  0.91763476  0.57375007  0.50431962  1  0.442232  0  0.319718  0.276599  0  0.934944  0
H  H25  1  0.67662505  0.61956642  0.43349590  1  0.09886  0  0.110655  0.141161  0  1.000462  0
H  H26  1  0.35150296  0.57992433  0.40761866  1  0.128296  0  0.106377  0.119  0  1.031812  0
H  H27  1  0.17701395  0.56049250  0.46009950  1  0.041669  0  0.09261  0.093844  0  1.072271  0
H  H28  1  0.88350996  0.47366447  0.57319025  1  0.126691  0  0.098025  0.121953  0  1.046743  0
H  H29  1  0.66817237  0.44038991  0.61067119  1  0.079726  0  0.09962  0.099173  0  1.013252  0
H  H30  1  0.74078316  0.42005004  0.80843664  1  0.048464  0  0.105796  0.129705  0  1.017442  0
H  H31  1  0.82661376  0.45194007  0.88627370  1  0.43796  0  0.324207  0.276899  0  0.931678  0
H  H32  1  0.96946398  0.49575588  0.95927042  1  0.42091  0  0.324277  0.281481  0  0.928932  0
H  H33  1  0.77568087  0.47440337  0.02555300  1  0.063133  0  0.117507  0.067235  0  0.975153  0
H  H34  1  0.86291416  0.53408794  0.04235078  1  0.101958  0  0.126467  0.082711  0  0.97087  0
H  H35  1  0.12537270  0.46112692  0.02421162  1  0.443918  0  0.3225  0.281927  0  0.926147  0
H  H36  1  0.41295894  0.49583988  0.06948842  1  0.428835  0  0.31957  0.276277  0  0.934607  0
H  H37  1  0.24280404  0.56674847  0.18618921  1  0.114243  0  0.110829  0.141346  0  1.000764  0
H  H38  1  0.94365462  0.59241087  0.17225695  1  0.141088  0  0.106373  0.119469  0  1.03093  0
H  H39  1  0.71632344  0.53999850  0.10038243  1  0.073596  0  0.092684  0.093487  0  1.072331  0
H  H40  1  0.31030463  0.42678792  0.90041000  1  0.126078  0  0.0983  0.122612  0  1.046619  0
H  H41  1  0.05749607  0.38927907  0.82963528  1  0.090061  0  0.099722  0.099541  0  1.012808  0
C  C42  1  0.67672739  0.22625280  0.61919461  1  0.582794  0  0.093889  0.387228  0  4.095122  0
C  C43  1  0.77575486  0.18598895  0.60028270  1  0.039389  0  -0.124063  -0.34813  0  3.938563  0
C  C44  1  0.68254329  0.14071322  0.56747234  1  0.302004  0  0.105406  0.304766  0  4.055694  0
C  C45  1  0.74812960  0.05670082  0.51565627  1  1.836577  0  0.325463  0.633472  0  4.218447  0
C  C46  1  0.86722666  0.97910256  0.47580162  1  0.681692  0  0.042409  0.160156  0  3.955711  0
C  C47  1  0.08621888  0.91796929  0.44734904  1  1.820414  0  0.324563  0.626052  0  4.226168  0
C  C48  1  0.32573932  0.86130973  0.41135726  1  0.310318  0  0.093197  0.281109  0  4.07118  0
C  C49  1  0.21298321  0.81712536  0.38915333  1  0.001282  0  -0.110861  -0.310327  0  3.890684  0
C  C50  1  0.30017720  0.77519591  0.37596797  1  0.630979  0  0.096736  0.383751  0  4.081446  0
C  C51  1  0.50674424  0.77968324  0.38796715  1  -0.054075  0  -0.048829  -0.226168  0  3.974327  0
C  C52  1  0.61513614  0.82480106  0.41063148  1  -0.059178  0  -0.086343  -0.044184  0  4.026667  0
C  C53  1  0.52826221  0.86510482  0.42169917  1  -0.012978  0  -0.123772  -0.236352  0  4.048509  0
C  C54  1  0.61591608  0.73946304  0.37799427  1  1.517346  0  0.235625  0.67915  0  4.133078  0
C  C55  1  0.48098661  0.13440476  0.55262128  1  0.012332  0  -0.122356  -0.236364  0  4.008943  0
C  C56  1  0.38197422  0.17383620  0.57133332  1  -0.152776  0  -0.090799  -0.05605  0  4.063511  0
C  C57  1  0.47156139  0.21997761  0.60435886  1  0.041859  0  -0.053174  -0.230812  0  3.977867  0
C  C58  1  0.35232698  0.25925079  0.62007165  1  1.501096  0  0.231539  0.673895  0  4.134644  0
C  C59  1  0.05783566  0.38075995  0.60703078  1  0.63285  0  0.093889  0.3877  0  4.096978  0
C  C60  1  0.17573572  0.39969045  0.58568210  1  -0.018689  0  -0.124341  -0.347587  0  3.938788  0
C  C61  1  0.11546828  0.43254674  0.57327378  1  0.325679  0  0.104788  0.30295  0  4.055908  0
C  C62  1  0.23289565  0.48434160  0.54107063  1  1.84411  0  0.324844  0.631621  0  4.221305  0
C  C63  1  0.39141924  0.52417022  0.50322703  1  0.658125  0  0.042858  0.159886  0  3.953555  0
C  C64  1  0.63946723  0.55267556  0.47065855  1  1.818763  0  0.324885  0.626565  0  4.22649  0
C  C65  1  0.91533286  0.58869940  0.45008622  1  0.29031  0  0.09277  0.280592  0  4.070796  0
C  C66  1  0.82473429  0.61091720  0.42812612  1  0.036783  0  -0.110714  -0.309438  0  3.890052  0
C  C67  1  0.92492706  0.62411824  0.39936902  1  0.604822  0  0.096464  0.384274  0  4.079827  0
C  C68  1  0.11957745  0.61218434  0.39185887  1  -0.02242  0  -0.048878  -0.22635  0  3.974508  0
C  C69  1  0.20534780  0.58951397  0.41427881  1  -0.093371  0  -0.086306  -0.043279  0  4.02809  0
C  C70  1  0.10757263  0.57842398  0.44352429  1  0.036615  0  -0.123417  -0.237176  0  4.049867  0
C  C71  1  0.23848392  0.62214499  0.36158225  1  1.496598  0  0.235544  0.679465  0  4.132344  0
C  C72  1  0.92883841  0.44741858  0.58187510  1  0.020205  0  -0.121931  -0.235828  0  4.00651  0
C  C73  1  0.81115672  0.42871001  0.60261298  1  -0.088784  0  -0.090987  -0.05567  0  4.061688  0
C  C74  1  0.86768444  0.39565336  0.61568098  1  -0.015368  0  -0.052947  -0.231385  0  3.978532  0
C  C75  1  0.73257939  0.37991158  0.63918117  1  1.49745  0  0.231964  0.674772  0  4.134894  0
C  C76  1  0.45090376  0.39285871  0.77362452  1  0.585905  0  0.094104  0.388295  0  4.096262  0
C  C77  1  0.59017506  0.41418445  0.81390811  1  0.040885  0  -0.12387  -0.347213  0  3.938223  0
C  C78  1  0.54222797  0.42663849  0.85918586  1  0.329177  0  0.104391  0.302803  0  4.056923  0
C  C79  1  0.69165699  0.45897212  0.94323909  1  1.828635  0  0.324949  0.631848  0  4.220922  0
C  C80  1  0.88808236  0.49678731  0.02089980  1  0.727191  0  0.043163  0.16048  0  3.954036  0
C  C81  1  0.16837243  0.52943964  0.08202316  1  1.822053  0  0.324934  0.627176  0  4.223623  0
C  C82  1  0.46478634  0.55008221  0.13867355  1  0.343021  0  0.093064  0.280328  0  4.072448  0
C  C83  1  0.39628022  0.57207923  0.18287580  1  -0.03045  0  -0.111031  -0.309954  0  3.891351  0
C  C84  1  0.52540936  0.60076349  0.22482246  1  0.618771  0  0.097143  0.384723  0  4.083158  0
C  C85  1  0.72752496  0.60822649  0.22034500  1  -0.076994  0  -0.049651  -0.227612  0  3.97767  0
C  C86  1  0.79082526  0.58578059  0.17522446  1  -0.025378  0  -0.086088  -0.043787  0  4.026226  0
C  C87  1  0.66359532  0.55657206  0.13491008  1  -0.047794  0  -0.124155  -0.236907  0  4.049003  0
C  C88  1  0.87681405  0.63846570  0.26059035  1  1.519519  0  0.23599  0.679754  0  4.131319  0
C  C89  1  0.34697770  0.41807679  0.86546818  1  0.003102  0  -0.122315  -0.236852  0  4.00832  0
C  C90  1  0.20856641  0.39733175  0.82601679  1  -0.094442  0  -0.090698  -0.05532  0  4.060892  0
C  C91  1  0.25209304  0.38423735  0.77987836  1  -0.017165  0  -0.053704  -0.232571  0  3.978805  0
C  C92  1  0.09348537  0.36073627  0.74061663  1  1.48977  0  0.232435  0.675768  0  4.134401  0
N  N93  1  0.79799162  0.10374626  0.55132532  1  -1.221177  0  -0.405008  -0.422566  0  3.539512  0
N  N94  1  0.89797190  0.02953416  0.51007972  1  -1.175356  0  -0.439511  -0.458505  0  3.507149  0
N  N95  1  0.04502788  0.96262067  0.45650684  1  -1.201962  0  -0.446017  -0.465939  0  3.502846  0
N  N96  1  0.24569567  0.90377316  0.42263769  1  -1.223558  0  -0.416833  -0.446083  0  3.529967  0
N  N97  1  0.24713220  0.44868499  0.55244732  1  -1.236171  0  -0.403942  -0.420028  0  3.539072  0
N  N98  1  0.38789427  0.48985102  0.51932615  1  -1.195275  0  -0.439081  -0.457309  0  3.506745  0
N  N99  1  0.58855126  0.54357731  0.50615809  1  -1.190478  0  -0.445939  -0.465605  0  3.502047  0
N  N100  1  0.82384371  0.57734415  0.48121349  1  -1.224169  0  -0.416207  -0.446346  0  3.528948  0
N  N101  1  0.69465600  0.44748309  0.89616495  1  -1.233685  0  -0.403497  -0.419986  0  3.53876  0
N  N102  1  0.86852895  0.48064889  0.97046179  1  -1.194321  0  -0.439297  -0.457361  0  3.506212  0
N  N103  1  0.08230802  0.49393571  0.03738676  1  -1.203329  0  -0.446522  -0.466435  0  3.50164  0
N  N104  1  0.34219004  0.51893879  0.09618398  1  -1.212752  0  -0.416169  -0.44582  0  3.528464  0
O  O105  1  0.79461884  0.74612844  0.39437322  1  -1.249504  0  -0.360261  -0.648201  0  2.14876  0
O  O106  1  0.52620907  0.69701667  0.35146256  1  -1.302114  0  -0.409281  -0.771443  0  2.430355  0
O  O107  1  0.18845092  0.73313715  0.35216544  1  -1.313114  0  -0.436294  -0.77215  0  2.285596  0
O  O108  1  0.17176291  0.25244647  0.60467002  1  -1.253157  0  -0.360049  -0.654974  0  2.151784  0
O  O109  1  0.43512293  0.30163835  0.65041555  1  -1.29626  0  -0.407233  -0.772308  0  2.415833  0
O  O110  1  0.78111219  0.26824106  0.64951701  1  -1.315979  0  -0.445937  -0.771817  0  2.289842  0
O  O111  1  0.58860677  0.04084359  0.49078387  1  -1.166374  0  -0.323602  -0.543227  0  2.057895  0
O  O112  1  0.99105379  0.89428104  0.46053842  1  -1.147318  0  -0.298211  -0.509222  0  2.108548  0
O  O113  1  0.40065494  0.60573192  0.35177927  1  -1.243475  0  -0.360774  -0.648907  0  2.149228  0
O  O114  1  0.17501168  0.64864630  0.34567335  1  -1.295536  0  -0.409013  -0.770989  0  2.429333  0
O  O115  1  0.83671364  0.64786270  0.38109129  1  -1.30688  0  -0.43629  -0.7728  0  2.284794  0
O  O116  1  0.56745787  0.39532855  0.64777382  1  -1.249411  0  -0.360136  -0.655203  0  2.151427  0
O  O117  1  0.78471663  0.34950578  0.65115589  1  -1.304994  0  -0.408053  -0.77312  0  2.415923  0
O  O118  1  0.13170600  0.35037009  0.61859873  1  -1.306764  0  -0.445571  -0.771996  0  2.290697  0
O  O119  1  0.09847186  0.50927293  0.55021753  1  -1.161938  0  -0.323599  -0.542897  0  2.059543  0
O  O120  1  0.53145085  0.53945376  0.43371977  1  -1.162299  0  -0.298502  -0.509622  0  2.108483  0
O  O121  1  0.04886228  0.64819762  0.25395055  1  -1.245923  0  -0.36059  -0.648534  0  2.148339  0
O  O122  1  0.82942186  0.65437124  0.30303217  1  -1.298234  0  -0.409438  -0.771265  0  2.429356  0
O  O123  1  0.45574604  0.61903378  0.26687966  1  -1.310516  0  -0.436219  -0.772293  0  2.28661  0
O  O124  1  0.91980412  0.35210591  0.74743321  1  -1.245353  0  -0.359885  -0.654969  0  2.151597  0
O  O125  1  0.13364034  0.34877583  0.69823320  1  -1.300826  0  -0.408164  -0.773773  0  2.416268  0
O  O126  1  0.51325283  0.38128425  0.73165170  1  -1.306879  0  -0.4457  -0.772202  0  2.290148  0
O  O127  1  0.54796051  0.44994528  0.95908187  1  -1.164222  0  -0.323697  -0.542987  0  2.059338  0
O  O128  1  0.09702346  0.56633436  0.10572946  1  -1.160525  0  -0.298598  -0.510064  0  2.107027  0
