# generated using pymatgen
data_ErH22(C3O)11
_symmetry_space_group_name_H-M   'P 1'
_cell_length_a   9.86662890
_cell_length_b   10.17987290
_cell_length_c   15.45519033
_cell_angle_alpha   96.63145724
_cell_angle_beta   97.19196166
_cell_angle_gamma   113.59264222
_symmetry_Int_Tables_number   1
_chemical_formula_structural   ErH22(C3O)11
_chemical_formula_sum   'Er2 H44 C66 O22'
_cell_volume   1387.78440408
_cell_formula_units_Z   2
loop_
 _symmetry_equiv_pos_site_id
 _symmetry_equiv_pos_as_xyz
  1  'x, y, z'
loop_
 _atom_site_type_symbol
 _atom_site_label
 _atom_site_symmetry_multiplicity
 _atom_site_fract_x
 _atom_site_fract_y
 _atom_site_fract_z
 _atom_site_occupancy
 _atom_site_hle17_bader_spin_density
 _atom_site_hle17_ddec_charge
 _atom_site_hle17_ddec_spin_density
 _atom_site_hle17_ddec_sum_bond_order
 _atom_site_hle17_magmom
 _atom_site_hse06_10hf_bader_spin_density
 _atom_site_hse06_10hf_ddec_charge
 _atom_site_hse06_10hf_ddec_spin_density
 _atom_site_hse06_10hf_ddec_sum_bond_order
 _atom_site_hse06_10hf_magmom
 _atom_site_hse06_bader_spin_density
 _atom_site_hse06_ddec_charge
 _atom_site_hse06_ddec_spin_density
 _atom_site_hse06_ddec_sum_bond_order
 _atom_site_hse06_magmom
 _atom_site_pbe_bader_spin_density
 _atom_site_pbe_cm5_charge
 _atom_site_pbe_ddec_charge
 _atom_site_pbe_ddec_spin_density
 _atom_site_pbe_ddec_sum_bond_order
 _atom_site_pbe_magmom
Er  Er0  1  0.43650989  0.63624804  0.58971827  1  0  2.271506  0  1.615159  0  0  2.12934  0  2.092248  0  0  2.262777  0  1.891988  0  0  1.515372  2.093663  0  2.122733  0
Er  Er1  1  0.56350189  0.36375757  0.41027911  1  0  2.271524  0  1.615175  0  0  2.12931  0  2.092327  0  0  2.262776  0  1.89202  0  0  1.515327  2.093663  0  2.122774  0
H  H2  1  0.51877204  0.13717069  0.58771315  1  0  0.130088  0  0.929682  0  0  0.13727  0  0.992593  0  0  0.142019  0  0.988508  0  0  0.119396  0.133775  0  0.995568  0
H  H3  1  0.48122589  0.86283596  0.41227801  1  0  0.1302  0  0.929692  0  0  0.137316  0  0.992654  0  0  0.142072  0  0.988563  0  0  0.119408  0.133827  0  0.995624  0
H  H4  1  0.74877967  0.31274700  0.90653583  1  0  0.101399  0  0.975032  0  0  0.109469  0  1.041289  0  0  0.112806  0  1.040073  0  0  0.105299  0.106843  0  1.042739  0
H  H5  1  0.25120876  0.68724003  0.09345506  1  0  0.101409  0  0.974828  0  0  0.109435  0  1.041155  0  0  0.112774  0  1.039934  0  0  0.10526  0.10681  0  1.042604  0
H  H6  1  0.82150142  0.82035230  0.86723956  1  0  0.099329  0  0.968638  0  0  0.107145  0  1.034176  0  0  0.110594  0  1.030959  0  0  0.105102  0.104402  0  1.03686  0
H  H7  1  0.17848708  0.17964672  0.13275610  1  0  0.09932  0  0.968703  0  0  0.10712  0  1.03426  0  0  0.110582  0  1.031025  0  0  0.105082  0.104378  0  1.036943  0
H  H8  1  0.99608950  0.01387653  0.80167778  1  0  0.090444  0  0.977072  0  0  0.098685  0  1.041035  0  0  0.10031  0  1.042885  0  0  0.097311  0.097824  0  1.039316  0
H  H9  1  0.00390986  0.98611926  0.19832111  1  0  0.090472  0  0.97712  0  0  0.098699  0  1.041092  0  0  0.100323  0  1.042942  0  0  0.097305  0.097839  0  1.039372  0
H  H10  1  0.12950046  0.95060050  0.68709786  1  0  0.075302  0  0.964059  0  0  0.086981  0  1.025335  0  0  0.088753  0  1.025873  0  0  0.094943  0.085733  0  1.024949  0
H  H11  1  0.87050732  0.04938881  0.31290769  1  0  0.075229  0  0.964204  0  0  0.086937  0  1.02545  0  0  0.08871  0  1.025997  0  0  0.094941  0.085687  0  1.025067  0
H  H12  1  0.08469971  0.69238287  0.63994912  1  0  0.10361  0  0.982102  0  0  0.11334  0  1.041889  0  0  0.117289  0  1.039101  0  0  0.098904  0.110444  0  1.044043  0
H  H13  1  0.91530847  0.30760973  0.36006124  1  0  0.103604  0  0.982113  0  0  0.113341  0  1.041893  0  0  0.117293  0  1.039106  0  0  0.09891  0.110445  0  1.044048  0
H  H14  1  0.90421086  0.49819699  0.70164674  1  0  0.083236  0  1.000746  0  0  0.088078  0  1.07495  0  0  0.091153  0  1.073301  0  0  0.093615  0.086041  0  1.075612  0
H  H15  1  0.09578654  0.50179666  0.29835960  1  0  0.083171  0  1.000856  0  0  0.088004  0  1.075063  0  0  0.091071  0  1.073426  0  0  0.093619  0.085967  0  1.075727  0
H  H16  1  0.65072861  0.79976716  0.93737730  1  0  0.100209  0  0.968846  0  0  0.10661  0  1.037081  0  0  0.110261  0  1.033677  0  0  0.105281  0.103884  0  1.039722  0
H  H17  1  0.34926303  0.20022967  0.06261458  1  0  0.100267  0  0.968878  0  0  0.106695  0  1.037066  0  0  0.110349  0  1.033659  0  0  0.105333  0.103966  0  1.039705  0
H  H18  1  0.42595477  0.60828247  0.97717644  1  0  0.099608  0  0.956843  0  0  0.108277  0  1.020149  0  0  0.11117  0  1.019068  0  0  0.101821  0.106263  0  1.020903  0
H  H19  1  0.57403798  0.39171222  0.02282118  1  0  0.099604  0  0.956874  0  0  0.108289  0  1.020174  0  0  0.111179  0  1.019092  0  0  0.101796  0.106274  0  1.020929  0
H  H20  1  0.17834484  0.62153156  0.94930830  1  0  0.080444  0  0.953496  0  0  0.093541  0  1.01143  0  0  0.095925  0  1.010361  0  0  0.098839  0.09183  0  1.012279  0
H  H21  1  0.82164869  0.37846969  0.05069505  1  0  0.080477  0  0.953397  0  0  0.093519  0  1.011402  0  0  0.095903  0  1.010333  0  0  0.098853  0.091809  0  1.012252  0
H  H22  1  0.15574808  0.82716095  0.88673089  1  0  0.090523  0  0.978635  0  0  0.100767  0  1.037786  0  0  0.102456  0  1.039034  0  0  0.09961  0.09948  0  1.037119  0
H  H23  1  0.84424994  0.17284359  0.11327630  1  0  0.09057  0  0.978509  0  0  0.100794  0  1.037673  0  0  0.102483  0  1.038922  0  0  0.099635  0.099508  0  1.037005  0
H  H24  1  0.37648065  0.01201834  0.84261697  1  0  0.083137  0  0.972928  0  0  0.091851  0  1.040678  0  0  0.093608  0  1.041675  0  0  0.097763  0.090806  0  1.03973  0
H  H25  1  0.62350989  0.98798070  0.15738274  1  0  0.083212  0  0.972921  0  0  0.091902  0  1.040672  0  0  0.093658  0  1.04167  0  0  0.097785  0.090858  0  1.039722  0
H  H26  1  0.82122419  0.97957383  0.60238274  1  0  0.124395  0  0.930508  0  0  0.133404  0  0.989699  0  0  0.137277  0  0.987508  0  0  0.118238  0.130682  0  0.991187  0
H  H27  1  0.17878129  0.02043613  0.39761510  1  0  0.124383  0  0.930584  0  0  0.133391  0  0.989762  0  0  0.137267  0  0.98757  0  0  0.11827  0.130671  0  0.991252  0
H  H28  1  0.06035025  0.67164440  0.23054505  1  0  0.091866  0  0.989664  0  0  0.097781  0  1.060572  0  0  0.099256  0  1.061643  0  0  0.100203  0.097271  0  1.058921  0
H  H29  1  0.93964801  0.32835359  0.76945779  1  0  0.091899  0  0.989571  0  0  0.097823  0  1.060473  0  0  0.099299  0  1.061543  0  0  0.100226  0.097314  0  1.058821  0
H  H30  1  0.94327550  0.65101951  0.07364897  1  0  0.096442  0  0.934279  0  0  0.108992  0  0.988768  0  0  0.111916  0  0.987496  0  0  0.106597  0.106351  0  0.990715  0
H  H31  1  0.05671985  0.34897412  0.92635396  1  0  0.096412  0  0.934194  0  0  0.108939  0  0.988721  0  0  0.111895  0  0.98741  0  0  0.106585  0.1063  0  0.990665  0
H  H32  1  0.70888094  0.68351815  0.04153132  1  0  0.10293  0  0.965897  0  0  0.112576  0  1.027486  0  0  0.115507  0  1.025401  0  0  0.108007  0.11024  0  1.029184  0
H  H33  1  0.29111605  0.31648637  0.95847126  1  0  0.102924  0  0.966041  0  0  0.112592  0  1.027583  0  0  0.115541  0  1.025474  0  0  0.108038  0.110258  0  1.029271  0
H  H34  1  0.59304835  0.74680157  0.16551451  1  0  0.088832  0  0.973053  0  0  0.099007  0  1.035515  0  0  0.100752  0  1.036641  0  0  0.099902  0.097866  0  1.034774  0
H  H35  1  0.40695863  0.25320952  0.83449325  1  0  0.08883  0  0.973058  0  0  0.09903  0  1.035485  0  0  0.100775  0  1.03661  0  0  0.0999  0.097869  0  1.034765  0
H  H36  1  0.71760823  0.78206635  0.32167576  1  0  0.092703  0  0.958197  0  0  0.101723  0  1.023502  0  0  0.103481  0  1.023571  0  0  0.10382  0.10036  0  1.023631  0
H  H37  1  0.28240292  0.21794256  0.67832893  1  0  0.092728  0  0.95821  0  0  0.101711  0  1.023544  0  0  0.103468  0  1.023615  0  0  0.103828  0.100341  0  1.023698  0
H  H38  1  0.12911782  0.50242149  0.51272287  1  0  0.431341  0  0.832167  0  0  0.406149  0  0.899777  0  0  0.414894  0  0.891241  0  0  0.318065  0.399966  0  0.906657  0
H  H39  1  0.87088004  0.49758743  0.48729110  1  0  0.431355  0  0.832035  0  0  0.406149  0  0.899699  0  0  0.4149  0  0.891151  0  0  0.318086  0.399964  0  0.906578  0
H  H40  1  0.15733267  0.65586475  0.48858394  1  0  0.445721  0  0.841948  0  0  0.415978  0  0.901937  0  0  0.427224  0  0.885479  0  0  0.308753  0.408346  0  0.913198  0
H  H41  1  0.84268061  0.34414200  0.51142205  1  0  0.445663  0  0.842022  0  0  0.415965  0  0.901941  0  0  0.427208  0  0.885487  0  0  0.308751  0.408356  0  0.91318  0
H  H42  1  0.38618641  0.66148594  0.77126373  1  0  0.44072  0  0.826227  0  0  0.415126  0  0.895151  0  0  0.422826  0  0.88503  0  0  0.321316  0.409785  0  0.900754  0
H  H43  1  0.61383223  0.33851429  0.22874351  1  0  0.440763  0  0.826219  0  0  0.415089  0  0.895211  0  0  0.422788  0  0.88506  0  0  0.321335  0.409746  0  0.900814  0
H  H44  1  0.24295401  0.51947038  0.72619417  1  0  0.427048  0  0.846988  0  0  0.402544  0  0.913016  0  0  0.409964  0  0.902957  0  0  0.313516  0.397711  0  0.919394  0
H  H45  1  0.75706509  0.48053095  0.27381319  1  0  0.426955  0  0.847094  0  0  0.402448  0  0.913147  0  0  0.409866  0  0.903091  0  0  0.313477  0.397614  0  0.919508  0
C  C46  1  0.53292593  0.92178430  0.66788392  1  0  0.628962  0  3.951252  0  0  0.585968  0  4.240307  0  0  0.61808  0  4.242859  0  0  0.189447  0.563396  0  4.243834  0
C  C47  1  0.46707562  0.07822126  0.33210681  1  0  0.629386  0  3.951167  0  0  0.586426  0  4.240157  0  0  0.618556  0  4.242683  0  0  0.189646  0.563852  0  4.24369  0
C  C48  1  0.58202200  0.42081454  0.63845689  1  0  0.718392  0  3.881976  0  0  0.671419  0  4.172611  0  0  0.706798  0  4.167291  0  0  0.229914  0.648045  0  4.179482  0
C  C49  1  0.41797444  0.57919103  0.36153731  1  0  0.718063  0  3.882542  0  0  0.671393  0  4.172813  0  0  0.706761  0  4.167505  0  0  0.229836  0.648009  0  4.179695  0
C  C50  1  0.58046125  0.07695112  0.71038976  1  0  -0.067055  0  3.706127  0  0  -0.051781  0  3.941761  0  0  -0.057564  0  3.960614  0  0  -0.006658  -0.047774  0  3.928575  0
C  C51  1  0.41953424  0.92305225  0.28960097  1  0  -0.067258  0  3.706413  0  0  -0.051995  0  3.941999  0  0  -0.057789  0  3.960849  0  0  -0.006694  -0.047977  0  3.92881  0
C  C52  1  0.56727873  0.17621164  0.65816620  1  0  -0.053443  0  3.647739  0  0  -0.089343  0  3.898702  0  0  -0.0866  0  3.913125  0  0  -0.065254  -0.091201  0  3.888637  0
C  C53  1  0.43271724  0.82379284  0.34182788  1  0  -0.053588  0  3.647906  0  0  -0.089416  0  3.898954  0  0  -0.08668  0  3.913374  0  0  -0.065296  -0.09128  0  3.888885  0
C  C54  1  0.61490141  0.32315924  0.69491151  1  0  -0.075299  0  3.697651  0  0  -0.060271  0  3.934528  0  0  -0.065733  0  3.951859  0  0  -0.00396  -0.05632  0  3.92163  0
C  C55  1  0.38509668  0.67684308  0.30508582  1  0  -0.074999  0  3.697695  0  0  -0.060161  0  3.934646  0  0  -0.065628  0  3.951964  0  0  -0.003897  -0.056201  0  3.921749  0
C  C56  1  0.68301304  0.37383391  0.78510272  1  0  -0.011829  0  3.710972  0  0  -0.006969  0  3.949469  0  0  -0.007181  0  3.966999  0  0  -0.000653  -0.006309  0  3.936803  0
C  C57  1  0.31697515  0.62615968  0.21489511  1  0  -0.011932  0  3.711048  0  0  -0.00704  0  3.949562  0  0  -0.007201  0  3.967027  0  0  -0.000605  -0.00638  0  3.936894  0
C  C58  1  0.69662794  0.27417248  0.83677103  1  0  -0.11407  0  3.707422  0  0  -0.144196  0  3.963917  0  0  -0.146738  0  3.981609  0  0  -0.077596  -0.142672  0  3.952187  0
C  C59  1  0.30335585  0.72581564  0.16322345  1  0  -0.113921  0  3.707041  0  0  -0.144012  0  3.963503  0  0  -0.146573  0  3.981182  0  0  -0.077495  -0.14249  0  3.951777  0
C  C60  1  0.64422558  0.12610640  0.80130343  1  0  -0.005725  0  3.695962  0  0  0.000404  0  3.93452  0  0  0.000758  0  3.952742  0  0  0.002808  0.000123  0  3.922343  0
C  C61  1  0.35576142  0.87389150  0.19868621  1  0  -0.005772  0  3.696018  0  0  0.000455  0  3.934583  0  0  0.000817  0  3.952804  0  0  0.002774  0.000157  0  3.922409  0
C  C62  1  0.74297551  0.53113876  0.82960387  1  0  0.399884  0  3.712665  0  0  0.383899  0  3.968548  0  0  0.406243  0  3.96962  0  0  0.167238  0.368414  0  3.967634  0
C  C63  1  0.25701158  0.46885700  0.17039467  1  0  0.399807  0  3.712743  0  0  0.383882  0  3.968567  0  0  0.406219  0  3.969628  0  0  0.167275  0.368399  0  3.967649  0
C  C64  1  0.84891913  0.64542518  0.78892483  1  0  -0.046566  0  3.775273  0  0  -0.027313  0  4.003761  0  0  -0.035098  0  4.029334  0  0  -0.021387  -0.022319  0  3.986445  0
C  C65  1  0.15107512  0.35457061  0.21107688  1  0  -0.046455  0  3.775176  0  0  -0.027203  0  4.003634  0  0  -0.034995  0  4.029213  0  0  -0.021375  -0.022205  0  3.986313  0
C  C66  1  0.87785421  0.79202962  0.81694500  1  0  -0.035545  0  3.666453  0  0  -0.06056  0  3.911286  0  0  -0.058336  0  3.927813  0  0  -0.069035  -0.061808  0  3.900251  0
C  C67  1  0.12213799  0.20796615  0.18305267  1  0  -0.035531  0  3.666463  0  0  -0.060538  0  3.911325  0  0  -0.058318  0  3.927842  0  0  -0.069022  -0.061787  0  3.900289  0
C  C68  1  0.97668412  0.90114185  0.77973350  1  0  -0.070999  0  3.734909  0  0  -0.080509  0  3.982824  0  0  -0.08373  0  4.004139  0  0  -0.085512  -0.078452  0  3.967684  0
C  C69  1  0.02331840  0.09885179  0.22026742  1  0  -0.071187  0  3.734906  0  0  -0.08071  0  3.982873  0  0  -0.083935  0  4.0042  0  0  -0.085575  -0.078653  0  3.967734  0
C  C70  1  0.05042420  0.86526254  0.71554210  1  0  -0.04443  0  3.750924  0  0  -0.061187  0  4.001584  0  0  -0.062078  0  4.023812  0  0  -0.082187  -0.059852  0  3.985638  0
C  C71  1  0.94958548  0.13473114  0.28446523  1  0  -0.044254  0  3.750895  0  0  -0.060994  0  4.001504  0  0  -0.061897  0  4.023745  0  0  -0.082165  -0.059662  0  3.985561  0
C  C72  1  0.02449256  0.72035878  0.68814755  1  0  -0.075825  0  3.745661  0  0  -0.087142  0  3.995111  0  0  -0.090101  0  4.015152  0  0  -0.096082  -0.08509  0  3.981089  0
C  C73  1  0.97551554  0.27963599  0.31186167  1  0  -0.075842  0  3.74569  0  0  -0.087187  0  3.995183  0  0  -0.09015  0  4.01523  0  0  -0.096094  -0.085133  0  3.981158  0
C  C74  1  0.92309025  0.61066713  0.72398360  1  0  -0.080947  0  3.724139  0  0  -0.104125  0  3.974398  0  0  -0.105076  0  3.996221  0  0  -0.087628  -0.103231  0  3.958768  0
C  C75  1  0.07691274  0.38932762  0.27602197  1  0  -0.080868  0  3.724097  0  0  -0.104019  0  3.974355  0  0  -0.104964  0  3.99618  0  0  -0.087571  -0.103127  0  3.958724  0
C  C76  1  0.66411148  0.02873574  0.86379426  1  0  0.409222  0  3.702311  0  0  0.388094  0  3.96701  0  0  0.409389  0  3.968427  0  0  0.171319  0.37361  0  3.965558  0
C  C77  1  0.33588260  0.97126437  0.13619740  1  0  0.409176  0  3.702291  0  0  0.387837  0  3.967332  0  0  0.409126  0  3.968751  0  0  0.171308  0.37338  0  3.965848  0
C  C78  1  0.52803485  0.91735946  0.88705959  1  0  -0.037892  0  3.77958  0  0  -0.018572  0  4.008564  0  0  -0.024078  0  4.032288  0  0  -0.019358  -0.014678  0  3.992003  0
C  C79  1  0.47195215  0.08263846  0.11293329  1  0  -0.037687  0  3.779498  0  0  -0.018351  0  4.008564  0  0  -0.023857  0  4.032303  0  0  -0.019374  -0.01447  0  3.992007  0
C  C80  1  0.54158769  0.80407443  0.92617686  1  0  -0.077244  0  3.720372  0  0  -0.100487  0  3.96757  0  0  -0.100356  0  3.986176  0  0  -0.081126  -0.100093  0  3.95433  0
C  C81  1  0.45840097  0.19592023  0.07381784  1  0  -0.077403  0  3.720443  0  0  -0.10066  0  3.967664  0  0  -0.100531  0  3.986271  0  0  -0.081186  -0.100259  0  3.954426  0
C  C82  1  0.41632530  0.69759839  0.94820867  1  0  -0.092881  0  3.780853  0  0  -0.10386  0  4.032123  0  0  -0.10735  0  4.054783  0  0  -0.093572  -0.101355  0  4.016109  0
C  C83  1  0.58366690  0.30239738  0.05178770  1  0  -0.092917  0  3.780822  0  0  -0.103939  0  4.032122  0  0  -0.107425  0  4.054779  0  0  -0.09367  -0.101433  0  4.01611  0
C  C84  1  0.27710758  0.70579280  0.93322266  1  0  -0.064336  0  3.769316  0  0  -0.082425  0  4.022913  0  0  -0.083958  0  4.044601  0  0  -0.089091  -0.080981  0  4.007339  0
C  C85  1  0.72288557  0.29420516  0.06677783  1  0  -0.064374  0  3.769205  0  0  -0.082411  0  4.022798  0  0  -0.08394  0  4.044486  0  0  -0.089064  -0.080966  0  4.007226  0
C  C86  1  0.26351973  0.82003968  0.89692188  1  0  -0.057255  0  3.755644  0  0  -0.068914  0  4.00235  0  0  -0.070741  0  4.024141  0  0  -0.087282  -0.067566  0  3.987384  0
C  C87  1  0.73647043  0.17995611  0.10308015  1  0  -0.05719  0  3.755578  0  0  -0.068822  0  4.002223  0  0  -0.070647  0  4.024012  0  0  -0.08724  -0.067475  0  3.987258  0
C  C88  1  0.38823854  0.92454624  0.87268790  1  0  -0.077566  0  3.722172  0  0  -0.099719  0  3.968113  0  0  -0.101263  0  3.990338  0  0  -0.081824  -0.098752  0  3.952847  0
C  C89  1  0.61175004  0.07545062  0.12731214  1  0  -0.077712  0  3.722162  0  0  -0.099826  0  3.968098  0  0  -0.101375  0  3.990327  0  0  -0.081808  -0.098858  0  3.952835  0
C  C90  1  0.75495606  0.72321189  0.50385443  1  0  0.716627  0  3.863631  0  0  0.669194  0  4.155529  0  0  0.705153  0  4.148663  0  0  0.235398  0.645294  0  4.162217  0
C  C91  1  0.24505863  0.27679809  0.49614480  1  0  0.716974  0  3.86317  0  0  0.669281  0  4.155508  0  0  0.705242  0  4.14864  0  0  0.235434  0.64538  0  4.162194  0
C  C92  1  0.88233953  0.86508405  0.50076229  1  0  -0.070028  0  3.71327  0  0  -0.058433  0  3.95134  0  0  -0.063139  0  3.969195  0  0  -0.004352  -0.055364  0  3.938517  0
C  C93  1  0.11766698  0.13492591  0.49923628  1  0  -0.070207  0  3.713173  0  0  -0.058648  0  3.951469  0  0  -0.063352  0  3.969321  0  0  -0.004399  -0.055576  0  3.938646  0
C  C94  1  0.89989766  0.99071396  0.55716900  1  0  -0.071479  0  3.673933  0  0  -0.10311  0  3.925816  0  0  -0.103033  0  3.943117  0  0  -0.066217  -0.103343  0  3.913854  0
C  C95  1  0.10010538  0.00929271  0.44282582  1  0  -0.071418  0  3.673754  0  0  -0.103005  0  3.925672  0  0  -0.10293  0  3.942973  0  0  -0.066219  -0.10325  0  3.913727  0
C  C96  1  0.98357124  0.87440780  0.44301619  1  0  -0.026057  0  3.72706  0  0  -0.019136  0  3.969698  0  0  -0.021487  0  3.988798  0  0  -0.003184  -0.017149  0  3.9564  0
C  C97  1  0.01643236  0.12559779  0.55698183  1  0  -0.026006  0  3.72714  0  0  -0.019031  0  3.969758  0  0  -0.021381  0  3.988858  0  0  -0.003189  -0.017042  0  3.956453  0
C  C98  1  0.97753761  0.74988696  0.37766156  1  0  0.44269  0  3.684655  0  0  0.414105  0  3.95558  0  0  0.438788  0  3.953644  0  0  0.18169  0.396991  0  3.957036  0
C  C99  1  0.02246867  0.25011541  0.62234225  1  0  0.44256  0  3.684571  0  0  0.414006  0  3.955478  0  0  0.438691  0  3.953536  0  0  0.181627  0.396889  0  3.956946  0
C  C100  1  0.89592129  0.72661523  0.28586811  1  0  -0.084074  0  3.807007  0  0  -0.059852  0  4.037078  0  0  -0.067833  0  4.059759  0  0  -0.024223  -0.054883  0  4.022121  0
C  C101  1  0.10408366  0.27338171  0.71413843  1  0  -0.083981  0  3.807026  0  0  -0.059751  0  4.037074  0  0  -0.067732  0  4.059754  0  0  -0.024172  -0.054787  0  4.02213  0
C  C102  1  0.95744838  0.68668161  0.21540605  1  0  -0.078537  0  3.726946  0  0  -0.103249  0  3.977236  0  0  -0.102289  0  3.997461  0  0  -0.08014  -0.103222  0  3.96197  0
C  C103  1  0.04254956  0.31331093  0.78459572  1  0  -0.078651  0  3.726801  0  0  -0.103367  0  3.977088  0  0  -0.102407  0  3.997321  0  0  -0.080227  -0.103339  0  3.961826  0
C  C104  1  0.89134086  0.67425117  0.12813199  1  0  -0.055698  0  3.751921  0  0  -0.070156  0  4.007327  0  0  -0.073365  0  4.027679  0  0  -0.080145  -0.06811  0  3.993679  0
C  C105  1  0.10865465  0.32573811  0.87187063  1  0  -0.055534  0  3.751566  0  0  -0.069974  0  4.006974  0  0  -0.073212  0  4.02733  0  0  -0.080037  -0.06793  0  3.993327  0
C  C106  1  0.76014997  0.69567032  0.11023471  1  0  -0.033438  0  3.696553  0  0  -0.050391  0  3.941811  0  0  -0.050115  0  3.961587  0  0  -0.069286  -0.04986  0  3.927851  0
C  C107  1  0.23985097  0.30432441  0.88976940  1  0  -0.033504  0  3.696708  0  0  -0.050453  0  3.941933  0  0  -0.050201  0  3.961724  0  0  -0.069351  -0.049917  0  3.92797  0
C  C108  1  0.69673279  0.73260450  0.17988396  1  0  -0.065896  0  3.737185  0  0  -0.07738  0  3.986387  0  0  -0.080967  0  4.008196  0  0  -0.084028  -0.075324  0  3.971499  0
C  C109  1  0.30326948  0.26739568  0.82012001  1  0  -0.065893  0  3.737297  0  0  -0.077388  0  3.986481  0  0  -0.080979  0  4.008293  0  0  -0.084016  -0.075318  0  3.971599  0
C  C110  1  0.76581301  0.75146531  0.26741578  1  0  -0.064157  0  3.725891  0  0  -0.090343  0  3.978383  0  0  -0.089216  0  3.998293  0  0  -0.076364  -0.091365  0  3.965705  0
C  C111  1  0.23419374  0.24853815  0.73258880  1  0  -0.064235  0  3.72601  0  0  -0.090388  0  3.978492  0  0  -0.089259  0  3.998406  0  0  -0.076411  -0.091409  0  3.965799  0
O  O112  1  0.57522199  0.84008439  0.71033395  1  0  -0.67205  0  1.980371  0  0  -0.621808  0  2.214267  0  0  -0.656166  0  2.209222  0  0  -0.357896  -0.604014  0  2.217323  0
O  O113  1  0.42478326  0.15991792  0.28965619  1  0  -0.672239  0  1.980571  0  0  -0.621934  0  2.214309  0  0  -0.656296  0  2.209256  0  0  -0.357914  -0.604146  0  2.217372  0
O  O114  1  0.45259359  0.87335225  0.58973516  1  0  -0.688331  0  1.91689  0  0  -0.643146  0  2.146281  0  0  -0.677117  0  2.13481  0  0  -0.388552  -0.625822  0  2.152193  0
O  O115  1  0.54740805  0.12665114  0.41025671  1  0  -0.688515  0  1.916951  0  0  -0.643335  0  2.146324  0  0  -0.677317  0  2.134839  0  0  -0.388701  -0.626022  0  2.152254  0
O  O116  1  0.58813043  0.39815106  0.55694343  1  0  -0.787131  0  2.169094  0  0  -0.736248  0  2.439937  0  0  -0.777469  0  2.427171  0  0  -0.416577  -0.718742  0  2.44817  0
O  O117  1  0.41187198  0.60185887  0.44305029  1  0  -0.787085  0  2.169268  0  0  -0.736254  0  2.439871  0  0  -0.777474  0  2.427106  0  0  -0.416592  -0.718753  0  2.448123  0
O  O118  1  0.54398215  0.51595966  0.67465356  1  0  -0.707057  0  2.031894  0  0  -0.660433  0  2.280163  0  0  -0.696854  0  2.26911  0  0  -0.376103  -0.643216  0  2.285809  0
O  O119  1  0.45602035  0.48404813  0.32534647  1  0  -0.706967  0  2.031984  0  0  -0.660411  0  2.280094  0  0  -0.696838  0  2.269034  0  0  -0.37604  -0.643207  0  2.285757  0
O  O120  1  0.70792763  0.55908895  0.90141402  1  0  -0.465412  0  1.915873  0  0  -0.423151  0  2.120108  0  0  -0.440673  0  2.116496  0  0  -0.258574  -0.410743  0  2.122551  0
O  O121  1  0.29205899  0.44090572  0.09858376  1  0  -0.465362  0  1.915873  0  0  -0.423188  0  2.120125  0  0  -0.44072  0  2.116513  0  0  -0.258644  -0.410785  0  2.122565  0
O  O122  1  0.79265580  0.05189428  0.89907198  1  0  -0.439687  0  1.907435  0  0  -0.400551  0  2.108222  0  0  -0.417154  0  2.105747  0  0  -0.249469  -0.38864  0  2.10969  0
O  O123  1  0.20732728  0.94809927  0.10092090  1  0  -0.439716  0  1.907354  0  0  -0.400514  0  2.108229  0  0  -0.417113  0  2.105751  0  0  -0.249459  -0.388611  0  2.109687  0
O  O124  1  0.67289930  0.72450522  0.56005119  1  0  -0.719604  0  2.107917  0  0  -0.67152  0  2.368347  0  0  -0.71022  0  2.357316  0  0  -0.387054  -0.653484  0  2.373889  0
O  O125  1  0.32710076  0.27549925  0.43993934  1  0  -0.719703  0  2.107659  0  0  -0.671494  0  2.368183  0  0  -0.710189  0  2.357131  0  0  -0.386998  -0.653463  0  2.37373  0
O  O126  1  0.73914033  0.61234002  0.44838401  1  0  -0.73683  0  2.061358  0  0  -0.680112  0  2.314136  0  0  -0.718131  0  2.302408  0  0  -0.366844  -0.660338  0  2.319196  0
O  O127  1  0.26088727  0.38766676  0.55162185  1  0  -0.736939  0  2.061381  0  0  -0.680151  0  2.314275  0  0  -0.718167  0  2.302543  0  0  -0.36689  -0.660382  0  2.319354  0
O  O128  1  0.05878391  0.68625484  0.39545939  1  0  -0.473291  0  1.979412  0  0  -0.417164  0  2.183032  0  0  -0.43558  0  2.176146  0  0  -0.242189  -0.404953  0  2.18773  0
O  O129  1  0.94121977  0.31374861  0.60454494  1  0  -0.473154  0  1.979342  0  0  -0.417118  0  2.183019  0  0  -0.435536  0  2.176125  0  0  -0.242124  -0.404912  0  2.18773  0
O  O130  1  0.18174234  0.60681288  0.53611488  1  0  -0.875838  0  1.885653  0  0  -0.827772  0  2.080673  0  0  -0.855876  0  2.04868  0  0  -0.61609  -0.814519  0  2.099364  0
O  O131  1  0.81827644  0.39319715  0.46389116  1  0  -0.875841  0  1.885504  0  0  -0.827803  0  2.080503  0  0  -0.855909  0  2.048508  0  0  -0.616118  -0.814577  0  2.099132  0
O  O132  1  0.31500281  0.61227280  0.71544891  1  0  -0.863141  0  1.887775  0  0  -0.816423  0  2.089587  0  0  -0.844805  0  2.059298  0  0  -0.614026  -0.8039  0  2.103949  0
O  O133  1  0.68501842  0.38772635  0.28455717  1  0  -0.863068  0  1.887856  0  0  -0.816256  0  2.089915  0  0  -0.844634  0  2.059564  0  0  -0.613982  -0.803737  0  2.104262  0
