# generated using pymatgen
data_Zn4H16C11N16O9
_symmetry_space_group_name_H-M   'P 1'
_cell_length_a   9.13153639
_cell_length_b   9.57862478
_cell_length_c   17.56316982
_cell_angle_alpha   94.42120795
_cell_angle_beta   105.04014018
_cell_angle_gamma   89.99498330
_symmetry_Int_Tables_number   1
_chemical_formula_structural   Zn4H16C11N16O9
_chemical_formula_sum   'Zn8 H32 C22 N32 O18'
_cell_volume   1478.85251994
_cell_formula_units_Z   2
loop_
 _symmetry_equiv_pos_site_id
 _symmetry_equiv_pos_as_xyz
  1  'x, y, z'
loop_
 _atom_site_type_symbol
 _atom_site_label
 _atom_site_symmetry_multiplicity
 _atom_site_fract_x
 _atom_site_fract_y
 _atom_site_fract_z
 _atom_site_occupancy
 _atom_site_hle17_bader_spin_density
 _atom_site_hle17_ddec_charge
 _atom_site_hle17_ddec_spin_density
 _atom_site_hle17_ddec_sum_bond_order
 _atom_site_hle17_magmom
 _atom_site_hse06_10hf_bader_spin_density
 _atom_site_hse06_10hf_ddec_charge
 _atom_site_hse06_10hf_ddec_spin_density
 _atom_site_hse06_10hf_ddec_sum_bond_order
 _atom_site_hse06_10hf_magmom
 _atom_site_hse06_bader_spin_density
 _atom_site_hse06_ddec_charge
 _atom_site_hse06_ddec_spin_density
 _atom_site_hse06_ddec_sum_bond_order
 _atom_site_hse06_magmom
 _atom_site_pbe_bader_spin_density
 _atom_site_pbe_cm5_charge
 _atom_site_pbe_ddec_charge
 _atom_site_pbe_ddec_spin_density
 _atom_site_pbe_ddec_sum_bond_order
 _atom_site_pbe_magmom
Zn  Zn0  1  0.62119387  0.23654776  0.83466977  1  0  0.943014  0  1.998686  0  0  0.746089  0  2.492816  0  0  0.786128  0  2.444064  0  0  0.723067  0.718236  0  2.525958  0
Zn  Zn1  1  0.78648168  0.26335028  0.16527567  1  0  0.942676  0  1.998938  0  0  0.745627  0  2.493208  0  0  0.785627  0  2.444552  0  0  0.722486  0.71776  0  2.526394  0
Zn  Zn2  1  0.37880471  0.76345007  0.16532869  1  0  0.94293  0  1.998766  0  0  0.746019  0  2.492868  0  0  0.786061  0  2.444115  0  0  0.723026  0.71814  0  2.526086  0
Zn  Zn3  1  0.21351699  0.73665174  0.83472468  1  0  0.942817  0  1.998814  0  0  0.745733  0  2.493134  0  0  0.78573  0  2.444475  0  0  0.722494  0.717858  0  2.526307  0
Zn  Zn4  1  0.62087378  0.44522383  0.65891412  1  0  0.97541  0  1.888416  0  0  0.782965  0  2.352625  0  0  0.825523  0  2.307994  0  0  0.702792  0.753159  0  2.383137  0
Zn  Zn5  1  0.96172240  0.05483229  0.34109116  1  0  0.974649  0  1.890705  0  0  0.782451  0  2.354949  0  0  0.824973  0  2.310359  0  0  0.702604  0.752674  0  2.385441  0
Zn  Zn6  1  0.37913280  0.55477712  0.34109352  1  0  0.975386  0  1.888435  0  0  0.782925  0  2.35266  0  0  0.825481  0  2.308033  0  0  0.702818  0.753126  0  2.383189  0
Zn  Zn7  1  0.03828093  0.94517496  0.65891118  1  0  0.974589  0  1.890784  0  0  0.782412  0  2.355016  0  0  0.82493  0  2.310431  0  0  0.702621  0.752631  0  2.385499  0
H  H8  1  0.45366913  0.36123903  0.94437399  1  0  0.341624  0  0.928886  0  0  0.323288  0  0.99581  0  0  0.331302  0  0.988321  0  0  0.291308  0.317597  0  1.001125  0
H  H9  1  0.50974335  0.13870737  0.05564753  1  0  0.341685  0  0.928353  0  0  0.3234  0  0.995201  0  0  0.331419  0  0.987735  0  0  0.291395  0.317709  0  1.000472  0
H  H10  1  0.54632949  0.63876089  0.05562513  1  0  0.34161  0  0.928836  0  0  0.323271  0  0.995765  0  0  0.331284  0  0.988277  0  0  0.291293  0.31758  0  1.001079  0
H  H11  1  0.49025529  0.86129360  0.94435277  1  0  0.341722  0  0.928266  0  0  0.32343  0  0.995117  0  0  0.331444  0  0.987658  0  0  0.291402  0.31774  0  1.000392  0
H  H12  1  0.34537786  0.50871737  0.94779731  1  0  0.326897  0  0.89964  0  0  0.31533  0  0.956514  0  0  0.321277  0  0.952052  0  0  0.305977  0.311075  0  0.95968  0
H  H13  1  0.39795798  0.99124767  0.05224141  1  0  0.327261  0  0.898937  0  0  0.315521  0  0.955923  0  0  0.321461  0  0.951456  0  0  0.306223  0.311271  0  0.959092  0
H  H14  1  0.65462081  0.49128465  0.05220304  1  0  0.326902  0  0.899666  0  0  0.315333  0  0.956539  0  0  0.321281  0  0.952076  0  0  0.305977  0.311078  0  0.959701  0
H  H15  1  0.60204962  0.00874807  0.94775533  1  0  0.327258  0  0.898881  0  0  0.315518  0  0.955872  0  0  0.321458  0  0.951405  0  0  0.3062  0.311267  0  0.959046  0
H  H16  1  0.97085766  0.94351967  0.82271268  1  0  0.334317  0  0.903018  0  0  0.314513  0  0.974615  0  0  0.321262  0  0.968576  0  0  0.307084  0.309798  0  0.978846  0
H  H17  1  0.14804471  0.55649137  0.17715477  1  0  0.335038  0  0.90237  0  0  0.314844  0  0.974352  0  0  0.321552  0  0.968385  0  0  0.307527  0.310178  0  0.978471  0
H  H18  1  0.02914550  0.05648025  0.17728705  1  0  0.334206  0  0.903173  0  0  0.31444  0  0.974739  0  0  0.321192  0  0.968693  0  0  0.307033  0.309729  0  0.978968  0
H  H19  1  0.85195396  0.44351065  0.82284160  1  0  0.335017  0  0.902368  0  0  0.314832  0  0.974342  0  0  0.321541  0  0.968378  0  0  0.307521  0.31016  0  0.978468  0
H  H20  1  0.89039731  0.06433893  0.87862932  1  0  0.350575  0  0.883859  0  0  0.335592  0  0.941663  0  0  0.343121  0  0.934759  0  0  0.309306  0.330226  0  0.9466  0
H  H21  1  0.01187057  0.43561774  0.12121904  1  0  0.351105  0  0.881708  0  0  0.336335  0  0.939201  0  0  0.343856  0  0.932306  0  0  0.309806  0.330997  0  0.944081  0
H  H22  1  0.10960018  0.93566100  0.12136851  1  0  0.350529  0  0.883886  0  0  0.335541  0  0.941696  0  0  0.343071  0  0.934793  0  0  0.309272  0.330178  0  0.946629  0
H  H23  1  0.98812696  0.56438428  0.87877945  1  0  0.351126  0  0.881678  0  0  0.336355  0  0.939182  0  0  0.343875  0  0.932286  0  0  0.309801  0.331011  0  0.944069  0
H  H24  1  0.39371146  0.67244437  0.70682134  1  0  0.100624  0  0.948195  0  0  0.111116  0  1.009892  0  0  0.113531  0  1.005903  0  0  0.137934  0.109188  0  1.013015  0
H  H25  1  0.68670834  0.82756426  0.29331173  1  0  0.100705  0  0.948317  0  0  0.111321  0  1.009879  0  0  0.11374  0  1.005881  0  0  0.138073  0.109384  0  1.013028  0
H  H26  1  0.60628362  0.32754927  0.29317590  1  0  0.100645  0  0.948141  0  0  0.111133  0  1.00985  0  0  0.113549  0  1.005859  0  0  0.137939  0.109206  0  1.012973  0
H  H27  1  0.31328697  0.17243985  0.70668883  1  0  0.100664  0  0.948359  0  0  0.111275  0  1.009926  0  0  0.113695  0  1.005925  0  0  0.138055  0.109335  0  1.013073  0
H  H28  1  0.81661782  0.20137430  0.58953166  1  0  0.102205  0  0.933625  0  0  0.109735  0  0.999444  0  0  0.112435  0  0.994884  0  0  0.135203  0.10763  0  1.002845  0
H  H29  1  0.22637549  0.29891312  0.41043041  1  0  0.10246  0  0.933984  0  0  0.110123  0  0.999699  0  0  0.112845  0  0.9951  0  0  0.135421  0.108014  0  1.003098  0
H  H30  1  0.18338425  0.79862772  0.41046972  1  0  0.102233  0  0.933475  0  0  0.109763  0  0.999306  0  0  0.112463  0  0.994748  0  0  0.135233  0.107658  0  1.002703  0
H  H31  1  0.77362444  0.70109413  0.58956920  1  0  0.102481  0  0.933902  0  0  0.110134  0  0.99965  0  0  0.112859  0  0.99504  0  0  0.135398  0.108024  0  1.003057  0
H  H32  1  0.28018382  0.21270022  0.58496200  1  0  0.416062  0  0.882912  0  0  0.38618  0  0.945168  0  0  0.39722  0  0.928763  0  0  0.281603  0.378294  0  0.956895  0
H  H33  1  0.69485546  0.28727195  0.41491995  1  0  0.416033  0  0.883255  0  0  0.386404  0  0.945076  0  0  0.397398  0  0.928713  0  0  0.281737  0.378546  0  0.956785  0
H  H34  1  0.71981369  0.78730075  0.41504100  1  0  0.415972  0  0.882997  0  0  0.38615  0  0.94519  0  0  0.397187  0  0.928785  0  0  0.281509  0.378265  0  0.956917  0
H  H35  1  0.30514545  0.71272902  0.58507895  1  0  0.416106  0  0.883162  0  0  0.386427  0  0.945079  0  0  0.39742  0  0.928715  0  0  0.281762  0.37856  0  0.956795  0
H  H36  1  0.44119395  0.19829927  0.57197612  1  0  0.40429  0  0.846076  0  0  0.388599  0  0.903875  0  0  0.396431  0  0.894743  0  0  0.304253  0.383069  0  0.910338  0
H  H37  1  0.86887523  0.30130496  0.42800926  1  0  0.404014  0  0.847663  0  0  0.388557  0  0.90513  0  0  0.396365  0  0.896051  0  0  0.304314  0.383027  0  0.911597  0
H  H38  1  0.55880247  0.80170380  0.42802056  1  0  0.404306  0  0.84605  0  0  0.388622  0  0.903837  0  0  0.396454  0  0.894706  0  0  0.304206  0.383097  0  0.910295  0
H  H39  1  0.13112684  0.69869706  0.57199155  1  0  0.404023  0  0.847596  0  0  0.388561  0  0.905076  0  0  0.396369  0  0.895993  0  0  0.304312  0.383028  0  0.911548  0
C  C40  1  0.41833883  0.47899569  0.84978483  1  0  0.597141  0  3.844222  0  0  0.551158  0  4.117969  0  0  0.575672  0  4.126877  0  0  0.325964  0.534706  0  4.11156  0
C  C41  1  0.56887557  0.02083515  0.15022320  1  0  0.59805  0  3.84379  0  0  0.55084  0  4.118918  0  0  0.575323  0  4.127895  0  0  0.325692  0.53441  0  4.112461  0
C  C42  1  0.58165863  0.52100318  0.15021579  1  0  0.59708  0  3.844233  0  0  0.55116  0  4.117904  0  0  0.575673  0  4.126814  0  0  0.325988  0.534713  0  4.111488  0
C  C43  1  0.43112651  0.97916688  0.84977477  1  0  0.598023  0  3.843997  0  0  0.5509  0  4.11902  0  0  0.575386  0  4.127994  0  0  0.325717  0.534465  0  4.112573  0
C  C44  1  0.41950611  0.59477255  0.74988471  1  0  0.242743  0  3.708305  0  0  0.18275  0  3.976376  0  0  0.199358  0  3.987172  0  0  0.148902  0.171593  0  3.969323  0
C  C45  1  0.66961813  0.90511630  0.25017137  1  0  0.24125  0  3.708702  0  0  0.180985  0  3.976781  0  0  0.197603  0  3.987518  0  0  0.147359  0.169829  0  3.969768  0
C  C46  1  0.58049025  0.40522737  0.25011410  1  0  0.242683  0  3.708422  0  0  0.182689  0  3.9765  0  0  0.199296  0  3.987299  0  0  0.148883  0.171537  0  3.969447  0
C  C47  1  0.33038061  0.09488886  0.74982970  1  0  0.241291  0  3.708558  0  0  0.181049  0  3.976624  0  0  0.197667  0  3.98736  0  0  0.147372  0.169885  0  3.969609  0
C  C48  1  0.85135512  0.10060429  0.76249555  1  0  0.601721  0  3.84058  0  0  0.554103  0  4.114263  0  0  0.578527  0  4.123436  0  0  0.325825  0.537597  0  4.107906  0
C  C49  1  0.08858652  0.39950088  0.23739583  1  0  0.604936  0  3.837205  0  0  0.557167  0  4.111027  0  0  0.581596  0  4.12019  0  0  0.326618  0.540659  0  4.104694  0
C  C50  1  0.14864355  0.89939773  0.23750480  1  0  0.601687  0  3.840598  0  0  0.554115  0  4.114215  0  0  0.578538  0  4.12339  0  0  0.325847  0.537616  0  4.107855  0
C  C51  1  0.91141099  0.60050009  0.76260261  1  0  0.605033  0  3.837176  0  0  0.557269  0  4.11098  0  0  0.5817  0  4.120144  0  0  0.326652  0.540757  0  4.104634  0
C  C52  1  0.81218198  0.18320971  0.64911329  1  0  0.240697  0  3.705492  0  0  0.180824  0  3.978486  0  0  0.197214  0  3.989652  0  0  0.144215  0.170128  0  3.970709  0
C  C53  1  0.16249310  0.31700434  0.35081917  1  0  0.239717  0  3.708692  0  0  0.17956  0  3.981525  0  0  0.195944  0  3.992725  0  0  0.143046  0.168877  0  3.973712  0
C  C54  1  0.18782012  0.81679336  0.35088415  1  0  0.240659  0  3.70564  0  0  0.180773  0  3.978642  0  0  0.19716  0  3.989809  0  0  0.144135  0.170088  0  3.970848  0
C  C55  1  0.83750680  0.68300187  0.64918096  1  0  0.239784  0  3.70864  0  0  0.179616  0  3.981471  0  0  0.196006  0  3.992671  0  0  0.143078  0.168926  0  3.973676  0
C  C56  1  0.74179132  0.24991618  0.99997209  1  0  0.899898  0  4.008616  0  0  0.832984  0  4.309604  0  0  0.874751  0  4.29195  0  0  0.247851  0.804336  0  4.320968  0
C  C57  1  0.25820250  0.75007223  0.00002304  1  0  0.900129  0  4.008196  0  0  0.833168  0  4.309245  0  0  0.874934  0  4.291589  0  0  0.247892  0.804523  0  4.320606  0
C  C58  1  0.45067518  0.55922324  0.51180204  1  0  0.537088  0  3.928663  0  0  0.491685  0  4.217774  0  0  0.520993  0  4.211838  0  0  0.206829  0.471717  0  4.221236  0
C  C59  1  0.93890541  0.94078287  0.48822154  1  0  0.537045  0  3.924591  0  0  0.491773  0  4.214145  0  0  0.521096  0  4.208174  0  0  0.206666  0.47179  0  4.217643  0
C  C60  1  0.54933150  0.44078193  0.48819326  1  0  0.536793  0  3.928916  0  0  0.491537  0  4.217864  0  0  0.520845  0  4.211928  0  0  0.206799  0.471569  0  4.221329  0
C  C61  1  0.06109524  0.05920657  0.51178253  1  0  0.537153  0  3.924289  0  0  0.491983  0  4.213757  0  0  0.521306  0  4.207782  0  0  0.206679  0.472003  0  4.217252  0
N  N62  1  0.51362731  0.41486933  0.81201893  1  0  -0.4212  0  3.158245  0  0  -0.34972  0  3.460645  0  0  -0.369918  0  3.470112  0  0  -0.2885  -0.335773  0  3.453852  0
N  N63  1  0.70180307  0.08497924  0.18802588  1  0  -0.422015  0  3.15978  0  0  -0.350069  0  3.462161  0  0  -0.370256  0  3.47164  0  0  -0.288727  -0.336125  0  3.455361  0
N  N64  1  0.48637474  0.58513164  0.18798297  1  0  -0.421029  0  3.158145  0  0  -0.349576  0  3.460526  0  0  -0.369774  0  3.469993  0  0  -0.288439  -0.335626  0  3.453734  0
N  N65  1  0.29819673  0.91502278  0.81197462  1  0  -0.422078  0  3.159776  0  0  -0.350166  0  3.462147  0  0  -0.370353  0  3.471624  0  0  -0.288742  -0.336225  0  3.455348  0
N  N66  1  0.51182426  0.48951585  0.74699909  1  0  -0.272425  0  3.222704  0  0  -0.207714  0  3.522605  0  0  -0.224296  0  3.536776  0  0  -0.25955  -0.196751  0  3.512787  0
N  N67  1  0.76480861  0.01037092  0.25307104  1  0  -0.273457  0  3.224065  0  0  -0.208558  0  3.523936  0  0  -0.225137  0  3.538072  0  0  -0.260201  -0.197597  0  3.514142  0
N  N68  1  0.48817777  0.51048407  0.25300219  1  0  -0.27253  0  3.222734  0  0  -0.207829  0  3.522653  0  0  -0.224411  0  3.536824  0  0  -0.259619  -0.196867  0  3.51284  0
N  N69  1  0.23518552  0.98963109  0.74693098  1  0  -0.273453  0  3.223903  0  0  -0.208554  0  3.523769  0  0  -0.225133  0  3.537906  0  0  -0.260227  -0.197591  0  3.513967  0
N  N70  1  0.35791083  0.59311199  0.81241328  1  0  -0.527725  0  3.203059  0  0  -0.442356  0  3.50225  0  0  -0.4666  0  3.50635  0  0  -0.37606  -0.425991  0  3.499374  0
N  N71  1  0.54566791  0.90676497  0.18760781  1  0  -0.52604  0  3.204003  0  0  -0.439918  0  3.503117  0  0  -0.464136  0  3.507203  0  0  -0.37464  -0.42357  0  3.500257  0
N  N72  1  0.64208434  0.40688585  0.18758529  1  0  -0.527615  0  3.203191  0  0  -0.442248  0  3.502329  0  0  -0.466491  0  3.506433  0  0  -0.375998  -0.425881  0  3.499453  0
N  N73  1  0.45433185  0.09323496  0.81239203  1  0  -0.525985  0  3.204113  0  0  -0.439924  0  3.503229  0  0  -0.464142  0  3.507314  0  0  -0.374642  -0.423584  0  3.500375  0
N  N74  1  0.38217193  0.43310942  0.91380656  1  0  -0.705109  0  3.041731  0  0  -0.676941  0  3.266628  0  0  -0.695555  0  3.260854  0  0  -0.593449  -0.663677  0  3.270329  0
N  N75  1  0.46884862  0.06674004  0.08619029  1  0  -0.705243  0  3.040239  0  0  -0.676602  0  3.265775  0  0  -0.695213  0  3.26005  0  0  -0.592862  -0.663337  0  3.269444  0
N  N76  1  0.61782782  0.56689051  0.08619271  1  0  -0.705113  0  3.041626  0  0  -0.67697  0  3.266506  0  0  -0.695583  0  3.260732  0  0  -0.593466  -0.663703  0  3.2702  0
N  N77  1  0.53115331  0.93325570  0.91380739  1  0  -0.705265  0  3.040097  0  0  -0.676641  0  3.26559  0  0  -0.695249  0  3.259873  0  0  -0.592853  -0.663374  0  3.269269  0
N  N78  1  0.75308804  0.20591676  0.76115474  1  0  -0.428894  0  3.180932  0  0  -0.355271  0  3.478812  0  0  -0.375249  0  3.488219  0  0  -0.295082  -0.342101  0  3.47246  0
N  N79  1  0.99171683  0.29417073  0.23875277  1  0  -0.42906  0  3.179488  0  0  -0.355546  0  3.477718  0  0  -0.375522  0  3.487088  0  0  -0.294643  -0.342369  0  3.47138  0
N  N80  1  0.24691400  0.79408421  0.23884659  1  0  -0.428842  0  3.181021  0  0  -0.355252  0  3.478891  0  0  -0.375231  0  3.488303  0  0  -0.295084  -0.342077  0  3.472542  0
N  N81  1  0.00828414  0.70583234  0.76124680  1  0  -0.429086  0  3.179411  0  0  -0.355539  0  3.477605  0  0  -0.375516  0  3.486976  0  0  -0.294625  -0.342356  0  3.471245  0
N  N82  1  0.72838778  0.25823325  0.68771855  1  0  -0.288707  0  3.243592  0  0  -0.224917  0  3.540742  0  0  -0.241368  0  3.55547  0  0  -0.266004  -0.213607  0  3.530524  0
N  N83  1  0.04027891  0.24190407  0.31220751  1  0  -0.288116  0  3.244218  0  0  -0.224011  0  3.541042  0  0  -0.240437  0  3.555768  0  0  -0.265338  -0.212716  0  3.530824  0
N  N84  1  0.27161548  0.74177086  0.31228365  1  0  -0.288822  0  3.243937  0  0  -0.225032  0  3.54112  0  0  -0.24148  0  3.555848  0  0  -0.26603  -0.213722  0  3.530903  0
N  N85  1  0.95972099  0.75810214  0.68779261  1  0  -0.288196  0  3.244333  0  0  -0.224119  0  3.54117  0  0  -0.240546  0  3.555898  0  0  -0.265364  -0.212825  0  3.530953  0
N  N86  1  0.89091950  0.08354566  0.69294831  1  0  -0.526742  0  3.177272  0  0  -0.447744  0  3.468444  0  0  -0.472952  0  3.476375  0  0  -0.365042  -0.430728  0  3.462847  0
N  N87  1  0.19752775  0.41662076  0.30697726  1  0  -0.52833  0  3.176416  0  0  -0.449061  0  3.467413  0  0  -0.474294  0  3.475391  0  0  -0.36535  -0.432036  0  3.461803  0
N  N88  1  0.10908031  0.91645636  0.30705162  1  0  -0.526664  0  3.177298  0  0  -0.447637  0  3.468395  0  0  -0.472844  0  3.476326  0  0  -0.364945  -0.430619  0  3.462795  0
N  N89  1  0.80247099  0.58338440  0.69302095  1  0  -0.528498  0  3.176434  0  0  -0.449208  0  3.467412  0  0  -0.474448  0  3.475393  0  0  -0.365448  -0.432181  0  3.461802  0
N  N90  1  0.89690380  0.02152364  0.82476864  1  0  -0.703406  0  3.057264  0  0  -0.669923  0  3.285082  0  0  -0.688078  0  3.277898  0  0  -0.583889  -0.657288  0  3.289858  0
N  N91  1  0.07206670  0.47847303  0.17508727  1  0  -0.705217  0  3.05472  0  0  -0.671407  0  3.283133  0  0  -0.689526  0  3.275951  0  0  -0.584471  -0.658811  0  3.287904  0
N  N92  1  0.10309936  0.97847628  0.17523052  1  0  -0.703264  0  3.057404  0  0  -0.669845  0  3.28514  0  0  -0.688  0  3.277957  0  0  -0.583836  -0.657214  0  3.289915  0
N  N93  1  0.92793197  0.52152900  0.82490966  1  0  -0.705211  0  3.054765  0  0  -0.671425  0  3.283171  0  0  -0.689544  0  3.275991  0  0  -0.584467  -0.658847  0  3.287968  0
O  O94  1  0.78273469  0.23160390  0.93406729  1  0  -0.711266  0  1.997324  0  0  -0.635987  0  2.259105  0  0  -0.662835  0  2.238803  0  0  -0.364257  -0.617155  0  2.272352  0
O  O95  1  0.84867569  0.26803579  0.06582917  1  0  -0.711991  0  1.996035  0  0  -0.636558  0  2.257631  0  0  -0.663402  0  2.237348  0  0  -0.365356  -0.617732  0  2.270868  0
O  O96  1  0.21725764  0.76836879  0.06593266  1  0  -0.711381  0  1.996946  0  0  -0.636111  0  2.25877  0  0  -0.662961  0  2.23847  0  0  -0.364341  -0.617276  0  2.272023  0
O  O97  1  0.15131166  0.73196727  0.93417084  1  0  -0.712073  0  1.996053  0  0  -0.636597  0  2.257659  0  0  -0.663439  0  2.237374  0  0  -0.365325  -0.61777  0  2.27089  0
O  O98  1  0.60063966  0.25012812  0.00002090  1  0  -0.766482  0  1.9477  0  0  -0.703365  0  2.166433  0  0  -0.728159  0  2.15187  0  0  -0.356166  -0.685897  0  2.176094  0
O  O99  1  0.39934774  0.74987705  0.99997351  1  0  -0.766571  0  1.9477  0  0  -0.703428  0  2.166458  0  0  -0.728219  0  2.151891  0  0  -0.356136  -0.685957  0  2.176119  0
O  O100  1  0.46650450  0.58982791  0.58516845  1  0  -0.591617  0  2.064405  0  0  -0.522827  0  2.296642  0  0  -0.549227  0  2.28695  0  0  -0.297547  -0.504333  0  2.302863  0
O  O101  1  0.88129053  0.91019006  0.41488308  1  0  -0.589957  0  2.062235  0  0  -0.521484  0  2.294932  0  0  -0.547912  0  2.285308  0  0  -0.297046  -0.502979  0  2.30111  0
O  O102  1  0.53351351  0.41017724  0.41483579  1  0  -0.59143  0  2.064915  0  0  -0.52269  0  2.297053  0  0  -0.549081  0  2.28736  0  0  -0.297532  -0.504209  0  2.303284  0
O  O103  1  0.11869776  0.08980463  0.58511613  1  0  -0.589833  0  2.062416  0  0  -0.521374  0  2.295058  0  0  -0.547799  0  2.28544  0  0  -0.296977  -0.502864  0  2.301227  0
O  O104  1  0.36108641  0.61754752  0.45651334  1  0  -0.580401  0  2.094321  0  0  -0.519053  0  2.343554  0  0  -0.544871  0  2.334026  0  0  -0.305802  -0.501096  0  2.34962  0
O  O105  1  0.90476908  0.88238000  0.54355165  1  0  -0.581454  0  2.093208  0  0  -0.52011  0  2.342312  0  0  -0.545937  0  2.332791  0  0  -0.305983  -0.50214  0  2.348363  0
O  O106  1  0.63892229  0.38244715  0.54349318  1  0  -0.580371  0  2.093898  0  0  -0.519067  0  2.343063  0  0  -0.544889  0  2.333537  0  0  -0.305738  -0.501103  0  2.349124  0
O  O107  1  0.09523748  0.11761992  0.45645138  1  0  -0.581726  0  2.092751  0  0  -0.520411  0  2.341837  0  0  -0.54624  0  2.332309  0  0  -0.306098  -0.502443  0  2.347894  0
O  O108  1  0.37700987  0.26458448  0.59215848  1  0  -0.823  0  1.778675  0  0  -0.786027  0  1.940671  0  0  -0.802065  0  1.913737  0  0  -0.600272  -0.7745  0  1.959566  0
O  O109  1  0.78444321  0.23513649  0.40783377  1  0  -0.822943  0  1.780413  0  0  -0.786547  0  1.94208  0  0  -0.802502  0  1.915327  0  0  -0.600832  -0.775044  0  1.960827  0
O  O110  1  0.62299312  0.73540809  0.40785173  1  0  -0.822914  0  1.778755  0  0  -0.785992  0  1.940604  0  0  -0.802025  0  1.913686  0  0  -0.600114  -0.77446  0  1.959485  0
O  O111  1  0.21556217  0.76486134  0.59216845  1  0  -0.823025  0  1.780225  0  0  -0.786599  0  1.941889  0  0  -0.802552  0  1.915139  0  0  -0.60088  -0.775102  0  1.960686  0
