# generated using pymatgen
data_CdH8C12S2(NO2)2
_symmetry_space_group_name_H-M   'P 1'
_cell_length_a   3.71084063
_cell_length_b   12.39361601
_cell_length_c   13.97560728
_cell_angle_alpha   89.99983619
_cell_angle_beta   90.00044941
_cell_angle_gamma   97.83148651
_symmetry_Int_Tables_number   1
_chemical_formula_structural   CdH8C12S2(NO2)2
_chemical_formula_sum   'Cd2 H16 C24 S4 N4 O8'
_cell_volume   636.75358993
_cell_formula_units_Z   2
loop_
 _symmetry_equiv_pos_site_id
 _symmetry_equiv_pos_as_xyz
  1  'x, y, z'
loop_
 _atom_site_type_symbol
 _atom_site_label
 _atom_site_symmetry_multiplicity
 _atom_site_fract_x
 _atom_site_fract_y
 _atom_site_fract_z
 _atom_site_occupancy
 _atom_site_hle17_bader_spin_density
 _atom_site_hle17_ddec_charge
 _atom_site_hle17_ddec_spin_density
 _atom_site_hle17_ddec_sum_bond_order
 _atom_site_hle17_magmom
 _atom_site_hse06_10hf_bader_spin_density
 _atom_site_hse06_10hf_ddec_charge
 _atom_site_hse06_10hf_ddec_spin_density
 _atom_site_hse06_10hf_ddec_sum_bond_order
 _atom_site_hse06_10hf_magmom
 _atom_site_hse06_bader_spin_density
 _atom_site_hse06_ddec_charge
 _atom_site_hse06_ddec_spin_density
 _atom_site_hse06_ddec_sum_bond_order
 _atom_site_hse06_magmom
 _atom_site_pbe_bader_spin_density
 _atom_site_pbe_cm5_charge
 _atom_site_pbe_ddec_charge
 _atom_site_pbe_ddec_spin_density
 _atom_site_pbe_ddec_sum_bond_order
 _atom_site_pbe_magmom
Cd  Cd0  1  0.49999749  0.00000198  0.49999883  1  0  0.876811  0  2.027494  0  0  0.735116  0  2.471063  0  0  0.782054  0  2.434669  0  0  0.579776  0.701721  0  2.496152  0
Cd  Cd1  1  0.50000061  0.49999948  0.00000133  1  0  0.876782  0  2.027584  0  0  0.735062  0  2.471161  0  0  0.782001  0  2.434765  0  0  0.579775  0.701669  0  2.49623  0
H  H2  1  0.62949403  0.50858036  0.64541526  1  0  0.130659  0  0.95012  0  0  0.136939  0  1.011705  0  0  0.141579  0  1.009168  0  0  0.112438  0.133602  0  1.01373  0
H  H3  1  0.37051175  0.99142452  0.14541537  1  0  0.13068  0  0.950165  0  0  0.136967  0  1.011729  0  0  0.141605  0  1.009193  0  0  0.112439  0.133628  0  1.013752  0
H  H4  1  0.37050343  0.49141918  0.35458472  1  0  0.130715  0  0.950056  0  0  0.137001  0  1.011624  0  0  0.141641  0  1.009085  0  0  0.11246  0.133662  0  1.013652  0
H  H5  1  0.62949380  0.00857502  0.85458462  1  0  0.130665  0  0.950192  0  0  0.13695  0  1.011749  0  0  0.141591  0  1.009211  0  0  0.112444  0.133611  0  1.013784  0
H  H6  1  0.74492113  0.39040840  0.78758681  1  0  0.105748  0  0.958891  0  0  0.111344  0  1.026951  0  0  0.115247  0  1.022591  0  0  0.120983  0.108397  0  1.030268  0
H  H7  1  0.25507826  0.10959490  0.28758692  1  0  0.105786  0  0.958917  0  0  0.111352  0  1.026984  0  0  0.115256  0  1.022621  0  0  0.120974  0.108404  0  1.030301  0
H  H8  1  0.25507940  0.60959195  0.21241246  1  0  0.105735  0  0.958902  0  0  0.111329  0  1.026974  0  0  0.115231  0  1.022613  0  0  0.120972  0.108382  0  1.030293  0
H  H9  1  0.74492422  0.89040382  0.71241236  1  0  0.105719  0  0.959001  0  0  0.11135  0  1.027001  0  0  0.115255  0  1.022637  0  0  0.120967  0.108407  0  1.030316  0
H  H10  1  0.69828751  0.42885664  0.48058396  1  0  0.102661  0  0.94574  0  0  0.114868  0  1.006081  0  0  0.117488  0  1.003808  0  0  0.112981  0.112902  0  1.007793  0
H  H11  1  0.30171204  0.07114626  0.98058516  1  0  0.102645  0  0.94563  0  0  0.114892  0  1.005952  0  0  0.117518  0  1.003679  0  0  0.112959  0.112931  0  1.007665  0
H  H12  1  0.30171340  0.57114453  0.51941531  1  0  0.10267  0  0.945731  0  0  0.114888  0  1.00607  0  0  0.11751  0  1.003799  0  0  0.112987  0.112925  0  1.007779  0
H  H13  1  0.69829657  0.92885409  0.01941482  1  0  0.102632  0  0.945662  0  0  0.114905  0  1.005961  0  0  0.117535  0  1.003687  0  0  0.112966  0.112943  0  1.00767  0
H  H14  1  0.90807351  0.22299813  0.76682530  1  0  0.313186  0  0.921123  0  0  0.286881  0  0.991232  0  0  0.298729  0  0.981177  0  0  0.298961  0.278575  0  0.998249  0
H  H15  1  0.09192491  0.27700441  0.26682823  1  0  0.313173  0  0.92112  0  0  0.286867  0  0.991232  0  0  0.298714  0  0.981181  0  0  0.298944  0.278563  0  0.998247  0
H  H16  1  0.09192628  0.77700060  0.23317397  1  0  0.31318  0  0.921151  0  0  0.286868  0  0.991265  0  0  0.298715  0  0.981214  0  0  0.29896  0.278564  0  0.998278  0
H  H17  1  0.90807757  0.72299432  0.73317176  1  0  0.313178  0  0.921122  0  0  0.286883  0  0.991222  0  0  0.29873  0  0.981171  0  0  0.298934  0.278578  0  0.998241  0
C  C18  1  0.69648508  0.42664284  0.63548385  1  0  -0.138124  0  3.721839  0  0  -0.15362  0  3.988956  0  0  -0.162668  0  4.007811  0  0  -0.088042  -0.148055  0  3.97664  0
C  C19  1  0.30352880  0.07336079  0.13548199  1  0  -0.138165  0  3.721849  0  0  -0.153669  0  3.988946  0  0  -0.162716  0  4.007801  0  0  -0.088012  -0.148099  0  3.976621  0
C  C20  1  0.30351582  0.57335833  0.36451614  1  0  -0.138244  0  3.721762  0  0  -0.153733  0  3.988887  0  0  -0.162783  0  4.007745  0  0  -0.088065  -0.148165  0  3.976566  0
C  C21  1  0.69647637  0.92663794  0.86451799  1  0  -0.138124  0  3.721787  0  0  -0.15361  0  3.988898  0  0  -0.162656  0  4.007755  0  0  -0.087995  -0.148044  0  3.976572  0
C  C22  1  0.76265870  0.36421498  0.71372031  1  0  0.172658  0  3.609157  0  0  0.127343  0  3.868327  0  0  0.139512  0  3.879459  0  0  0.065002  0.119404  0  3.861019  0
C  C23  1  0.23735009  0.13579011  0.21372245  1  0  0.172623  0  3.609043  0  0  0.127375  0  3.868141  0  0  0.139544  0  3.879271  0  0  0.065068  0.119441  0  3.860827  0
C  C24  1  0.23733876  0.63578456  0.28627896  1  0  0.172697  0  3.609108  0  0  0.127368  0  3.868289  0  0  0.139538  0  3.879421  0  0  0.065012  0.119432  0  3.860981  0
C  C25  1  0.76265239  0.86420862  0.78627753  1  0  0.172652  0  3.60904  0  0  0.127338  0  3.868154  0  0  0.139507  0  3.879284  0  0  0.065075  0.119402  0  3.860842  0
C  C26  1  0.87884330  0.24130139  0.43098081  1  0  0.673249  0  3.89286  0  0  0.616804  0  4.198132  0  0  0.652963  0  4.189686  0  0  0.208664  0.592333  0  4.202824  0
C  C27  1  0.12116439  0.25870487  0.93098189  1  0  0.673259  0  3.89292  0  0  0.616725  0  4.198301  0  0  0.652886  0  4.189853  0  0  0.208564  0.592245  0  4.203003  0
C  C28  1  0.12115797  0.75870060  0.56901846  1  0  0.673281  0  3.892768  0  0  0.616786  0  4.19811  0  0  0.652944  0  4.189661  0  0  0.208628  0.592308  0  4.202813  0
C  C29  1  0.87883577  0.74129467  0.06901881  1  0  0.673266  0  3.892906  0  0  0.616724  0  4.1983  0  0  0.652883  0  4.189853  0  0  0.208558  0.592241  0  4.203006  0
C  C30  1  0.73814977  0.38246549  0.54499700  1  0  0.010814  0  3.686754  0  0  -0.021552  0  3.940467  0  0  -0.013561  0  3.956529  0  0  -0.055949  -0.026368  0  3.929488  0
C  C31  1  0.26186300  0.11754158  0.04499853  1  0  0.010842  0  3.686807  0  0  -0.021586  0  3.940517  0  0  -0.013604  0  3.956589  0  0  -0.055985  -0.026409  0  3.929564  0
C  C32  1  0.26185382  0.61753568  0.45500299  1  0  0.010832  0  3.686778  0  0  -0.021538  0  3.940473  0  0  -0.013551  0  3.956537  0  0  -0.05595  -0.02636  0  3.929508  0
C  C33  1  0.73814255  0.88245796  0.95500217  1  0  0.010863  0  3.686802  0  0  -0.021587  0  3.940485  0  0  -0.013608  0  3.956557  0  0  -0.055992  -0.026409  0  3.929531  0
C  C34  1  0.89158041  0.21565144  0.61486124  1  0  0.261056  0  3.721389  0  0  0.237451  0  3.994261  0  0  0.253973  0  4.011107  0  0  0.120804  0.22645  0  3.982889  0
C  C35  1  0.10842211  0.28435223  0.11486275  1  0  0.261175  0  3.721298  0  0  0.237563  0  3.994165  0  0  0.254088  0  4.011006  0  0  0.120858  0.226574  0  3.982781  0
C  C36  1  0.10842245  0.78434810  0.38513804  1  0  0.261093  0  3.72116  0  0  0.237513  0  3.994008  0  0  0.254034  0  4.010851  0  0  0.120826  0.226502  0  3.98265  0
C  C37  1  0.89157462  0.71564568  0.88513796  1  0  0.261114  0  3.721427  0  0  0.237518  0  3.994275  0  0  0.254044  0  4.011109  0  0  0.120824  0.226509  0  3.982918  0
C  C38  1  0.83426036  0.27812326  0.53282316  1  0  -0.165167  0  3.70697  0  0  -0.141853  0  3.94926  0  0  -0.156547  0  3.97169  0  0  -0.01582  -0.132849  0  3.934603  0
C  C39  1  0.16574481  0.22187977  0.03282137  1  0  -0.165243  0  3.706965  0  0  -0.141885  0  3.949246  0  0  -0.156583  0  3.971687  0  0  -0.015824  -0.13289  0  3.934596  0
C  C40  1  0.16574286  0.72187709  0.46717611  1  0  -0.165113  0  3.706823  0  0  -0.141823  0  3.949168  0  0  -0.156509  0  3.971587  0  0  -0.015822  -0.132814  0  3.934516  0
C  C41  1  0.83425535  0.77811977  0.96717862  1  0  -0.16526  0  3.706993  0  0  -0.141903  0  3.94928  0  0  -0.156606  0  3.971733  0  0  -0.015822  -0.132897  0  3.934624  0
S  S42  1  0.00159752  0.08435843  0.62041730  1  0  -0.421575  0  2.207716  0  0  -0.387513  0  2.571426  0  0  -0.40939  0  2.566409  0  0  -0.189493  -0.372019  0  2.575113  0
S  S43  1  0.99839670  0.41564442  0.12041818  1  0  -0.421713  0  2.207831  0  0  -0.387646  0  2.571538  0  0  -0.409521  0  2.566517  0  0  -0.189567  -0.372153  0  2.575214  0
S  S44  1  0.99839762  0.91564193  0.37958268  1  0  -0.42168  0  2.207684  0  0  -0.387618  0  2.571381  0  0  -0.409494  0  2.566361  0  0  -0.189547  -0.372117  0  2.575067  0
S  S45  1  0.00160077  0.58435513  0.87958252  1  0  -0.421649  0  2.207842  0  0  -0.387592  0  2.571568  0  0  -0.409468  0  2.566547  0  0  -0.189533  -0.372091  0  2.575252  0
N  N46  1  0.85641529  0.26408800  0.70159225  1  0  -0.262902  0  3.405919  0  0  -0.190316  0  3.632805  0  0  -0.207787  0  3.644615  0  0  -0.343352  -0.178963  0  3.625118  0
N  N47  1  0.14358934  0.23591467  0.20159110  1  0  -0.26282  0  3.405978  0  0  -0.190258  0  3.632861  0  0  -0.207728  0  3.644674  0  0  -0.343318  -0.178911  0  3.62517  0
N  N48  1  0.14358524  0.73591236  0.29840702  1  0  -0.26287  0  3.405851  0  0  -0.190278  0  3.632737  0  0  -0.207749  0  3.644548  0  0  -0.343314  -0.178927  0  3.625054  0
N  N49  1  0.85641277  0.76408324  0.79840889  1  0  -0.262813  0  3.405951  0  0  -0.190269  0  3.632863  0  0  -0.207739  0  3.644673  0  0  -0.34332  -0.178917  0  3.625183  0
O  O50  1  0.04612506  0.31239287  0.37595470  1  0  -0.592187  0  1.942524  0  0  -0.542914  0  2.168811  0  0  -0.56912  0  2.160737  0  0  -0.307448  -0.524257  0  2.173501  0
O  O51  1  0.95387000  0.18760699  0.87595482  1  0  -0.592213  0  1.942346  0  0  -0.542914  0  2.168661  0  0  -0.569122  0  2.160588  0  0  -0.307428  -0.524249  0  2.173354  0
O  O52  1  0.95387621  0.68760911  0.62404457  1  0  -0.592214  0  1.94249  0  0  -0.542918  0  2.168799  0  0  -0.569124  0  2.160725  0  0  -0.307442  -0.524252  0  2.173486  0
O  O53  1  0.04613016  0.81239255  0.12404588  1  0  -0.592196  0  1.942336  0  0  -0.542894  0  2.168661  0  0  -0.5691  0  2.16059  0  0  -0.307417  -0.524227  0  2.173352  0
O  O54  1  0.74325873  0.14583137  0.40485097  1  0  -0.628463  0  2.036651  0  0  -0.561413  0  2.291583  0  0  -0.591438  0  2.282239  0  0  -0.329625  -0.540012  0  2.296926  0
O  O55  1  0.25674060  0.35417006  0.90484995  1  0  -0.628425  0  2.036747  0  0  -0.561312  0  2.291672  0  0  -0.591338  0  2.282327  0  0  -0.329556  -0.539903  0  2.297006  0
O  O56  1  0.25673679  0.85416980  0.59514758  1  0  -0.628487  0  2.036649  0  0  -0.561417  0  2.291611  0  0  -0.591444  0  2.282263  0  0  -0.329598  -0.540017  0  2.296959  0
O  O57  1  0.74325993  0.64583030  0.09515147  1  0  -0.628451  0  2.036763  0  0  -0.561338  0  2.291698  0  0  -0.591362  0  2.282352  0  0  -0.329572  -0.539931  0  2.297039  0
