# generated using pymatgen
data_CuH22Ru(C6N5)2
_symmetry_space_group_name_H-M   'P 1'
_cell_length_a   8.20427665
_cell_length_b   9.35003029
_cell_length_c   12.55754184
_cell_angle_alpha   90.00089767
_cell_angle_beta   89.99939300
_cell_angle_gamma   110.00836838
_symmetry_Int_Tables_number   1
_chemical_formula_structural   CuH22Ru(C6N5)2
_chemical_formula_sum   'Cu2 H44 Ru2 C24 N20'
_cell_volume   905.15024202
_cell_formula_units_Z   2
loop_
 _symmetry_equiv_pos_site_id
 _symmetry_equiv_pos_as_xyz
  1  'x, y, z'
loop_
 _atom_site_type_symbol
 _atom_site_label
 _atom_site_symmetry_multiplicity
 _atom_site_fract_x
 _atom_site_fract_y
 _atom_site_fract_z
 _atom_site_occupancy
 _atom_site_hle17_ddec_charge
 _atom_site_hle17_ddec_spin_density
 _atom_site_hle17_ddec_sum_bond_order
 _atom_site_hle17_magmom
 _atom_site_hse06_10hf_ddec_charge
 _atom_site_hse06_10hf_ddec_spin_density
 _atom_site_hse06_10hf_ddec_sum_bond_order
 _atom_site_hse06_10hf_magmom
 _atom_site_hse06_ddec_charge
 _atom_site_hse06_ddec_spin_density
 _atom_site_hse06_ddec_sum_bond_order
 _atom_site_hse06_magmom
 _atom_site_pbe_cm5_charge
 _atom_site_pbe_ddec_charge
 _atom_site_pbe_ddec_spin_density
 _atom_site_pbe_ddec_sum_bond_order
 _atom_site_pbe_magmom
Cu  Cu0  1  0.99998885  0.49996718  0.99999619  1  0.859647  -0.713866  1.914278  -0.493  0.824772  -0.78696  2.329697  -0.593  0.899784  -0.858311  2.265733  -0.666  0.796703  0.778639  -0.737457  2.37529  -0.547
Cu  Cu1  1  0.50002350  0.00003804  0.50000617  1  0.859585  0.713855  1.914148  0.493  0.824752  0.786993  2.329555  0.593  0.899681  0.858312  2.265552  0.666  0.796706  0.77865  0.737472  2.375047  0.547
H  H2  1  0.40031881  0.51769247  0.05412694  1  0.061757  -0.000114  0.922883  0.0  0.081265  -6.9e-05  0.977823  0.0  0.080336  -2.8e-05  0.97965  0.0  0.104816  0.081799  -0.000104  0.976521  0.0
H  H3  1  0.09966419  0.98227187  0.55412827  1  0.061806  0.000114  0.922774  0.0  0.081245  6.9e-05  0.977728  0.0  0.08032  2.8e-05  0.979559  0.0  0.104824  0.081771  0.000104  0.976424  0.0
H  H4  1  0.59964685  0.48223280  0.94584594  1  0.06194  -0.000113  0.922698  0.0  0.081432  -6.9e-05  0.977585  0.0  0.080515  -2.8e-05  0.979413  0.0  0.104918  0.081959  -0.000104  0.976281  0.0
H  H5  1  0.90038481  0.01779631  0.44585098  1  0.061791  0.000113  0.92254  0.0  0.081383  7e-05  0.977361  0.0  0.080463  2.8e-05  0.979192  0.0  0.104887  0.081911  0.000104  0.976058  0.0
H  H6  1  0.31248983  0.58140222  0.16556504  1  0.064335  -0.000385  0.920671  -0.001  0.080724  -0.000302  0.979754  0.0  0.07982  -0.000195  0.981329  0.0  0.104296  0.081525  -0.000413  0.978075  -0.001
H  H7  1  0.18750487  0.91858911  0.66557138  1  0.06441  0.000386  0.920728  0.001  0.080765  0.000303  0.979764  0.0  0.079859  0.000195  0.981345  0.0  0.104303  0.081567  0.000413  0.978083  0.001
H  H8  1  0.68750487  0.41857870  0.83440307  1  0.064461  -0.000385  0.921031  -0.001  0.080841  -0.000302  0.98005  0.0  0.079937  -0.000195  0.981626  0.0  0.104366  0.081645  -0.000413  0.978367  -0.001
H  H9  1  0.81251425  0.08145099  0.33440788  1  0.064342  0.000383  0.920781  0.001  0.080704  0.000303  0.979895  0.0  0.079799  0.000195  0.981471  0.0  0.104304  0.081507  0.000413  0.978213  0.001
H  H10  1  0.37893368  0.27741482  0.15306294  1  0.084806  0.00032  0.958212  0.0  0.099524  4.7e-05  1.020392  0.0  0.09912  3.5e-05  1.023059  0.0  0.095116  0.099708  6.2e-05  1.018537  0.0
H  H11  1  0.12102760  0.22255496  0.65305786  1  0.084752  -0.000319  0.958428  0.0  0.099419  -4.7e-05  1.02067  0.0  0.099014  -3.5e-05  1.023339  0.0  0.095084  0.099605  -6.2e-05  1.018815  0.0
H  H12  1  0.62104438  0.72254348  0.84694498  1  0.084733  0.000321  0.958224  0.0  0.099446  4.7e-05  1.020406  0.0  0.099042  3.5e-05  1.02307  0.0  0.095111  0.09963  6.2e-05  1.018552  0.0
H  H13  1  0.87894531  0.77746769  0.34694449  1  0.084779  -0.000318  0.958344  0.0  0.099449  -4.8e-05  1.020534  0.0  0.099047  -3.5e-05  1.023198  0.0  0.09509  0.099632  -6.2e-05  1.01868  0.0
H  H14  1  0.28130165  0.33890567  0.26184608  1  0.080703  0.000271  0.943933  0.0  0.098006  -2.2e-05  1.002899  0.0  0.098434  -1.3e-05  1.00415  0.0  0.096788  0.097698  -4e-05  1.001946  0.0
H  H15  1  0.21867975  0.16109661  0.76183243  1  0.080773  -0.000273  0.94384  0.0  0.098001  2.1e-05  1.002899  0.0  0.098428  1.3e-05  1.004151  0.0  0.096754  0.097693  4e-05  1.001947  0.0
H  H16  1  0.71871809  0.66110343  0.73816582  1  0.08061  0.000272  0.944012  0.0  0.097948  -2.2e-05  1.002971  0.0  0.098375  -1.3e-05  1.004222  0.0  0.096752  0.097642  -4e-05  1.002018  0.0
H  H17  1  0.78129390  0.83892488  0.23816992  1  0.08063  -0.000273  0.944018  0.0  0.097944  2.2e-05  1.002984  0.0  0.098372  1.3e-05  1.004237  0.0  0.096705  0.097638  4e-05  1.002031  0.0
H  H18  1  0.65990020  0.47908372  0.18874691  1  0.077153  0.00011  0.920244  0.0  0.091394  5.4e-05  0.981676  0.0  0.091783  5.3e-05  0.982103  0.0  0.110349  0.091013  4.6e-05  0.981429  0.0
H  H19  1  0.84008290  0.02087643  0.68875782  1  0.077217  -0.00011  0.920153  0.0  0.091573  -5.4e-05  0.981592  0.0  0.091966  -5.3e-05  0.982011  0.0  0.110361  0.091195  -4.6e-05  0.98135  0.0
H  H20  1  0.34009842  0.52087418  0.81121562  1  0.077158  0.00011  0.920298  0.0  0.091489  5.4e-05  0.981768  0.0  0.091878  5.3e-05  0.982198  0.0  0.11036  0.091111  4.6e-05  0.981523  0.0
H  H21  1  0.15990191  0.97912190  0.31122621  1  0.077157  -0.00011  0.920236  0.0  0.091554  -5.4e-05  0.981681  0.0  0.091937  -5.3e-05  0.98211  0.0  0.110392  0.091179  -4.6e-05  0.981433  0.0
H  H22  1  0.56110718  0.56885787  0.28108990  1  0.066394  0.000223  0.910515  0.0  0.085142  0.000218  0.967179  0.0  0.085929  0.000161  0.967471  0.0  0.111425  0.084479  0.000271  0.967008  0.0
H  H23  1  0.93889980  0.93113344  0.78109864  1  0.066537  -0.000222  0.910829  0.0  0.085397  -0.000218  0.967469  0.0  0.086187  -0.000161  0.967762  0.0  0.111572  0.084733  -0.00027  0.967299  0.0
H  H24  1  0.43893359  0.43115196  0.71886148  1  0.06646  0.000222  0.910743  0.0  0.085336  0.000218  0.96741  0.0  0.086124  0.000161  0.967703  0.0  0.11152  0.084675  0.000271  0.967238  0.0
H  H25  1  0.06109269  0.06885097  0.21887345  1  0.06655  -0.000223  0.910667  0.0  0.085408  -0.000219  0.967396  0.0  0.086194  -0.000161  0.967683  0.0  0.111556  0.084747  -0.000271  0.967226  0.0
H  H26  1  0.05723500  0.36204221  0.14985373  1  0.291911  0.001505  0.894509  0.003  0.285758  2.3e-05  0.948935  0.001  0.290933  0.000308  0.947396  0.001  0.29655  0.28253  -0.00022  0.949516  0.001
H  H27  1  0.44273798  0.13796171  0.64985976  1  0.291817  -0.001508  0.894385  -0.003  0.285682  -2.5e-05  0.948815  -0.001  0.290854  -0.000309  0.947276  -0.001  0.296488  0.282452  0.000218  0.949402  -0.001
H  H28  1  0.94275588  0.63793535  0.85015180  1  0.291694  0.001511  0.894489  0.003  0.285565  2.6e-05  0.948932  0.001  0.29074  0.000311  0.947397  0.001  0.296408  0.282338  -0.000217  0.949514  0.001
H  H29  1  0.55727548  0.86210603  0.35016409  1  0.291654  -0.001506  0.894823  -0.003  0.285496  -2.4e-05  0.949254  -0.001  0.290669  -0.000308  0.947719  -0.001  0.296467  0.282267  0.000219  0.949838  -0.001
H  H30  1  0.13943243  0.29869239  0.04495038  1  0.291246  0.000458  0.946846  0.001  0.278144  -0.000582  1.012594  0.0  0.285152  -0.000257  1.00872  0.0  0.283058  0.273447  -0.000804  1.015191  0.0
H  H31  1  0.36053682  0.20129827  0.54495215  1  0.291211  -0.000455  0.946921  -0.001  0.27812  0.000584  1.012604  0.0  0.285125  0.000259  1.008731  0.0  0.283102  0.273416  0.000806  1.015203  0.0
H  H32  1  0.86052429  0.70123192  0.95506312  1  0.291335  0.000455  0.946809  0.001  0.27825  -0.000583  1.012495  0.0  0.285254  -0.000258  1.008627  0.0  0.28318  0.273549  -0.000806  1.01509  0.0
H  H33  1  0.63950001  0.79877589  0.45506613  1  0.291316  -0.000456  0.946487  -0.001  0.278241  0.000583  1.012157  0.0  0.285243  0.000258  1.008289  0.0  0.283147  0.27354  0.000805  1.014754  0.0
H  H34  1  0.70317326  0.40729000  0.36552058  1  0.309051  -0.000182  0.896183  0.0  0.288838  -0.000103  0.963331  0.0  0.294626  -7.9e-05  0.959858  0.0  0.302018  0.28466  -0.000119  0.965914  0.0
H  H35  1  0.79681576  0.09270641  0.86552548  1  0.30884  0.000182  0.896341  0.0  0.288636  0.000103  0.963488  0.0  0.294426  7.9e-05  0.960013  0.0  0.301948  0.284461  0.000119  0.966073  0.0
H  H36  1  0.29685521  0.59273728  0.63445549  1  0.309229  -0.000182  0.896103  0.0  0.288986  -0.000103  0.963267  0.0  0.294776  -7.9e-05  0.95978  0.0  0.302012  0.284821  -0.000119  0.965847  0.0
H  H37  1  0.20314208  0.90724426  0.13446333  1  0.309157  0.000182  0.896166  0.0  0.288932  0.000103  0.963331  0.0  0.294723  7.9e-05  0.95985  0.0  0.302092  0.284769  0.000119  0.965906  0.0
H  H38  1  0.55972699  0.25131916  0.30700232  1  0.325195  -1e-05  0.888369  0.0  0.304891  -2.8e-05  0.951794  0.0  0.31222  -3e-05  0.946884  0.0  0.30445  0.29967  -2e-05  0.955385  0.0
H  H39  1  0.94026506  0.24867043  0.80699694  1  0.325267  1e-05  0.888106  0.0  0.304945  2.8e-05  0.95159  0.0  0.312273  3e-05  0.94668  0.0  0.304456  0.29972  2e-05  0.955195  0.0
H  H40  1  0.44028932  0.74869345  0.69300799  1  0.32522  -9e-06  0.888364  0.0  0.304895  -2.8e-05  0.951786  0.0  0.312224  -3e-05  0.946882  0.0  0.304419  0.299677  -2e-05  0.955367  0.0
H  H41  1  0.05970627  0.75130407  0.19301735  1  0.32542  1e-05  0.887964  0.0  0.30509  2.8e-05  0.951437  0.0  0.312419  3e-05  0.946529  0.0  0.304479  0.299867  2e-05  0.95504  0.0
H  H42  1  0.48817691  0.35675685  0.39373992  1  0.324492  -2.4e-05  0.898613  0.0  0.300889  -4.1e-05  0.966665  0.0  0.309044  -4e-05  0.960848  0.0  0.303114  0.295081  -4.1e-05  0.970934  0.0
H  H43  1  0.01181382  0.14323496  0.89374500  1  0.324575  2.4e-05  0.898454  0.0  0.300912  4.1e-05  0.966585  0.0  0.309068  4e-05  0.960766  0.0  0.303118  0.29511  4.1e-05  0.970835  0.0
H  H44  1  0.51186699  0.64329307  0.60624969  1  0.324478  -2.4e-05  0.898637  0.0  0.300949  -4.1e-05  0.966541  0.0  0.309103  -4e-05  0.960723  0.0  0.303074  0.295145  -4.1e-05  0.970807  0.0
H  H45  1  0.98814363  0.85670884  0.10625895  1  0.324323  2.4e-05  0.898747  0.0  0.300734  4.2e-05  0.966758  0.0  0.308889  4e-05  0.960943  0.0  0.303051  0.294932  4.1e-05  0.971013  0.0
Ru  Ru46  1  0.49998821  0.99996761  0.99999929  1  -0.014881  -0.015979  5.356511  -0.016  0.047117  -0.003353  5.8605  -0.004  0.000643  -0.000942  5.889418  -0.002  0.558112  0.081215  -0.006152  5.835668  -0.007
Ru  Ru47  1  0.00001069  0.50004445  0.50001166  1  -0.014778  0.015991  5.35707  0.016  0.047247  0.003356  5.861036  0.004  0.000782  0.000944  5.889934  0.002  0.558147  0.081345  0.006154  5.836192  0.007
C  C48  1  0.31505730  0.47924659  0.12349647  1  0.089369  -0.00077  3.645749  0.002  0.036942  -0.002266  3.914444  0.0  0.043017  -0.001357  3.929256  0.001  -0.071678  0.033213  -0.002943  3.9041  -0.001
C  C49  1  0.18493158  0.02074163  0.62350209  1  0.08906  0.000772  3.64633  -0.002  0.036854  0.002266  3.914699  0.0  0.042915  0.001356  3.929527  -0.001  -0.071675  0.033142  0.002943  3.904336  0.001
C  C50  1  0.68492519  0.52070474  0.87647800  1  0.088935  -0.000773  3.646744  0.002  0.03664  -0.00227  3.915268  0.0  0.0427  -0.001357  3.930103  0.001  -0.071857  0.032927  -0.002946  3.904899  -0.001
C  C51  1  0.81508814  0.97930878  0.37648991  1  0.089309  0.000782  3.645888  -0.002  0.036906  0.002266  3.914443  0.0  0.04296  0.001357  3.929288  -0.001  -0.071761  0.033197  0.002945  3.904075  0.001
C  C52  1  0.37625340  0.37834854  0.19677274  1  -0.18267  -0.007968  3.683229  -0.008  -0.219993  -0.004871  3.938482  -0.005  -0.222921  -0.003507  3.953108  -0.004  -0.169463  -0.217809  -0.005887  3.928441  -0.006
C  C53  1  0.12371136  0.12164031  0.69677600  1  -0.182571  0.007979  3.683177  0.008  -0.219787  0.004871  3.938512  0.005  -0.222714  0.003508  3.953143  0.004  -0.169394  -0.217609  0.005889  3.928477  0.006
C  C54  1  0.62374809  0.62163110  0.80322801  1  -0.182475  -0.007976  3.683304  -0.008  -0.219776  -0.004871  3.938739  -0.005  -0.2227  -0.003508  3.953369  -0.004  -0.169352  -0.217601  -0.005888  3.928704  -0.006
C  C55  1  0.87627802  0.87838087  0.30322078  1  -0.182703  0.007974  3.68337  0.008  -0.219923  0.004873  3.938842  0.005  -0.22284  0.00351  3.953443  0.004  -0.16933  -0.21775  0.005892  3.928823  0.006
C  C56  1  0.55319583  0.45911947  0.24585626  1  0.095704  -0.002195  3.540832  -0.002  0.036213  -0.001566  3.80289  -0.002  0.039949  -0.001136  3.814468  -0.001  -0.054923  0.033788  -0.001931  3.795054  -0.002
C  C57  1  0.94678156  0.04084982  0.74586350  1  0.095687  0.002188  3.540824  0.002  0.035737  0.001565  3.803422  0.002  0.039471  0.001134  3.814998  0.001  -0.055017  0.033305  0.00193  3.795597  0.002
C  C58  1  0.44682763  0.54086317  0.75412299  1  0.095963  -0.002191  3.54075  -0.002  0.035928  -0.001566  3.803511  -0.002  0.03966  -0.001135  3.815096  -0.001  -0.055059  0.033488  -0.001931  3.795686  -0.002
C  C59  1  0.05320285  0.95914163  0.25412133  1  0.095898  0.002193  3.540779  0.002  0.035761  0.001566  3.803607  0.002  0.039492  0.001136  3.815209  0.001  -0.055098  0.033328  0.00193  3.795764  0.002
C  C60  1  0.68760693  0.20348116  0.00723115  1  0.091906  0.008028  3.568756  0.001  0.066317  -0.00034  3.887277  -0.006  0.089696  0.00199  3.899647  -0.003  0.005325  0.050708  -0.002283  3.878002  -0.008
C  C61  1  0.81240395  0.29653603  0.50723916  1  0.091669  -0.008014  3.568924  -0.001  0.066064  0.000343  3.887497  0.006  0.089433  -0.001984  3.899867  0.003  0.005185  0.050451  0.002287  3.878227  0.008
C  C62  1  0.31234797  0.79645352  0.99278554  1  0.091563  0.008022  3.568458  0.001  0.065945  -0.000344  3.887023  -0.006  0.08932  0.001986  3.899384  -0.003  0.005175  0.050332  -0.002287  3.877758  -0.008
C  C63  1  0.18766123  0.70353297  0.49277752  1  0.091471  -0.008004  3.56859  -0.001  0.065837  0.000343  3.887183  0.006  0.089206  -0.001984  3.899545  0.003  0.005145  0.050224  0.002288  3.877918  0.008
C  C64  1  0.68459474  0.90381670  0.02164339  1  0.055088  0.000637  3.567033  0.001  0.019599  8.8e-05  3.895787  0.0  0.036397  0.000191  3.907266  0.0  -0.011281  0.00778  3e-06  3.887229  0.0
C  C65  1  0.81540974  0.59619647  0.52164343  1  0.055111  -0.000639  3.567445  -0.001  0.019632  -8.8e-05  3.896176  0.0  0.03643  -0.000192  3.907663  0.0  -0.011211  0.007816  -4e-06  3.887611  0.0
C  C66  1  0.31533767  0.09609892  0.97837727  1  0.054944  0.000648  3.567075  0.001  0.019386  8.7e-05  3.895901  0.0  0.036182  0.000191  3.90738  0.0  -0.011625  0.007576  4e-06  3.887335  0.0
C  C67  1  0.18465301  0.40389324  0.47837803  1  0.055203  -0.000652  3.566624  -0.001  0.019721  -8.7e-05  3.895326  0.0  0.036511  -0.000193  3.906811  0.0  -0.011453  0.007908  -4e-06  3.886768  0.0
C  C68  1  0.49008803  0.02631664  0.16017472  1  0.030241  0.000773  3.595261  0.001  0.003594  0.000205  3.924184  0.0  0.02113  0.000204  3.934616  0.0  -0.018362  -0.008272  0.000123  3.915473  0.0
C  C69  1  0.00992280  0.47368785  0.66018135  1  0.030169  -0.000779  3.595901  -0.001  0.003499  -0.000204  3.924819  0.0  0.021034  -0.000204  3.935253  0.0  -0.018378  -0.008366  -0.000122  3.916106  0.0
C  C70  1  0.50986564  0.97363871  0.83985232  1  0.030434  0.00078  3.595867  0.001  0.003801  0.000204  3.924761  0.0  0.021343  0.000202  3.935207  0.0  -0.018345  -0.008071  0.000122  3.91604  0.0
C  C71  1  0.99013380  0.52635149  0.33986161  1  0.030481  -0.000794  3.59578  -0.001  0.003846  -0.000203  3.924649  0.0  0.021392  -0.000206  3.935096  0.0  -0.018351  -0.008025  -0.000123  3.915917  0.0
N  N72  1  0.13835757  0.39483857  0.08552975  1  -0.593483  -0.117105  3.172405  -0.141  -0.58174  -0.080212  3.458652  -0.102  -0.614559  -0.066182  3.462508  -0.088  -0.634982  -0.561193  -0.088129  3.456581  -0.108
N  N73  1  0.36160667  0.10515636  0.58552639  1  -0.593486  0.117076  3.172848  0.141  -0.581776  0.080187  3.458953  0.102  -0.614561  0.066167  3.462788  0.088  -0.635061  -0.561227  0.088112  3.456854  0.108
N  N74  1  0.86158697  0.60511237  0.91448454  1  -0.593378  -0.117122  3.172854  -0.141  -0.581704  -0.080221  3.45904  -0.102  -0.614533  -0.066188  3.462926  -0.089  -0.635046  -0.561153  -0.088147  3.456948  -0.108
N  N75  1  0.63841592  0.89491579  0.41448392  1  -0.59341  0.117117  3.172885  0.141  -0.58166  0.080209  3.459102  0.102  -0.614455  0.066185  3.46295  0.089  -0.635121  -0.561112  0.088134  3.457003  0.108
N  N76  1  0.58012067  0.36272856  0.33374063  1  -0.490867  -0.000646  3.222831  -0.001  -0.438336  -0.000401  3.421589  0.0  -0.454105  -0.000306  3.423078  0.0  -0.60676  -0.42762  -0.000474  3.421038  0.0
N  N77  1  0.91986174  0.13725940  0.83374442  1  -0.490861  0.000647  3.222616  0.001  -0.438117  0.000402  3.421368  0.0  -0.453888  0.000307  3.422857  0.0  -0.606691  -0.4274  0.000474  3.420814  0.0
N  N78  1  0.41990572  0.63729074  0.66624977  1  -0.491323  -0.000648  3.222867  -0.001  -0.438602  -0.000402  3.421598  0.0  -0.454372  -0.000307  3.423091  0.0  -0.606659  -0.427893  -0.000474  3.421034  0.0
N  N79  1  0.08010248  0.86270377  0.16625634  1  -0.491231  0.000647  3.22286  0.001  -0.438342  0.000402  3.421445  0.0  -0.454117  0.000306  3.422928  0.0  -0.606741  -0.427642  0.000474  3.420887  0.0
N  N80  1  0.80288083  0.31977163  0.01648325  1  -0.489931  -0.067462  3.191146  -0.081  -0.446533  -0.04891  3.530838  -0.06  -0.475545  -0.043639  3.532177  -0.055  -0.444243  -0.42864  -0.051655  3.530882  -0.062
N  N81  1  0.69712916  0.18025262  0.51649864  1  -0.48967  0.067447  3.191019  0.081  -0.446297  0.048904  3.530724  0.06  -0.475284  0.043634  3.532025  0.055  -0.444123  -0.428409  0.05165  3.530749  0.062
N  N82  1  0.19707985  0.68016522  0.98351273  1  -0.489568  -0.067466  3.190729  -0.081  -0.446156  -0.048909  3.530426  -0.06  -0.475162  -0.043639  3.531759  -0.055  -0.444154  -0.428263  -0.051654  3.530472  -0.062
N  N83  1  0.30293400  0.81982331  0.48351247  1  -0.489524  0.06746  3.190411  0.081  -0.446115  0.048917  3.530113  0.06  -0.475098  0.043645  3.531417  0.055  -0.444149  -0.42823  0.051663  3.530137  0.062
N  N84  1  0.79723527  0.85331659  0.03263769  1  -0.500705  -0.001042  2.898544  -0.001  -0.44459  -0.000344  3.162293  0.0  -0.46151  -0.000211  3.172373  0.0  -0.39134  -0.432868  -0.000617  3.155176  -0.001
N  N85  1  0.70277366  0.64669898  0.53263433  1  -0.500819  0.001044  2.898772  0.001  -0.444731  0.000343  3.162527  0.0  -0.461653  0.000212  3.17261  0.0  -0.39145  -0.433013  0.000617  3.155414  0.001
N  N86  1  0.20269069  0.14659227  0.96736705  1  -0.500704  -0.00105  2.898618  -0.001  -0.44448  -0.000343  3.162334  0.0  -0.461403  -0.000211  3.172416  0.0  -0.391011  -0.432768  -0.000616  3.155214  -0.001
N  N87  1  0.29729513  0.35339061  0.46736802  1  -0.500847  0.001053  2.898369  0.001  -0.444675  0.000341  3.162068  0.0  -0.461596  0.000212  3.172153  0.0  -0.39108  -0.432954  0.000616  3.154956  0.001
N  N88  1  0.49096526  0.05530495  0.25185923  1  -0.503959  -0.001321  2.861961  -0.001  -0.461923  -0.000788  3.137636  0.0  -0.479076  -0.000777  3.14523  0.0  -0.39156  -0.450562  -0.000845  3.132047  0.0
N  N89  1  0.00904277  0.44470237  0.75185597  1  -0.503995  0.001328  2.862323  0.001  -0.461925  0.000786  3.137984  0.0  -0.479084  0.000778  3.145588  0.0  -0.391619  -0.450558  0.000846  3.132397  0.0
N  N90  1  0.50902264  0.94469791  0.74815904  1  -0.504095  -0.00133  2.861824  -0.001  -0.462085  -0.000788  3.137512  0.0  -0.479241  -0.000777  3.145097  0.0  -0.391709  -0.45072  -0.000847  3.131925  0.0
N  N91  1  0.99097470  0.55529531  0.24816151  1  -0.504192  0.001343  2.861769  0.001  -0.462185  0.000785  3.137442  0.0  -0.47935  0.00078  3.145036  0.0  -0.391664  -0.450815  0.000846  3.131852  0.0
