# generated using pymatgen
data_DyH12C15NO11
_symmetry_space_group_name_H-M   'P 1'
_cell_length_a   12.32857151
_cell_length_b   13.74917581
_cell_length_c   28.24566605
_cell_angle_alpha   89.99942897
_cell_angle_beta   89.99965625
_cell_angle_gamma   90.00010079
_symmetry_Int_Tables_number   1
_chemical_formula_structural   DyH12C15NO11
_chemical_formula_sum   'Dy8 H96 C120 N8 O88'
_cell_volume   4787.85780411
_cell_formula_units_Z   8
loop_
 _symmetry_equiv_pos_site_id
 _symmetry_equiv_pos_as_xyz
  1  'x, y, z'
loop_
 _atom_site_type_symbol
 _atom_site_label
 _atom_site_symmetry_multiplicity
 _atom_site_fract_x
 _atom_site_fract_y
 _atom_site_fract_z
 _atom_site_occupancy
 _atom_site_pbe_bader_charge
 _atom_site_pbe_bader_spin_density
 _atom_site_pbe_cm5_charge
 _atom_site_pbe_ddec_charge
 _atom_site_pbe_ddec_spin_density
 _atom_site_pbe_ddec_sum_bond_order
 _atom_site_pbe_magmom
Dy  Dy0  1  0.09358082  0.53502408  0.93057568  1  2.185145  0  1.514587  2.103563  0  2.125563  0
Dy  Dy1  1  0.40641008  0.96497302  0.43057292  1  2.185161  0  1.514641  2.103604  0  2.125487  0
Dy  Dy2  1  0.90641065  0.53502402  0.56942576  1  2.185129  0  1.514647  2.103505  0  2.125698  0
Dy  Dy3  1  0.59358834  0.96497540  0.06942381  1  2.185136  0  1.514641  2.103578  0  2.125582  0
Dy  Dy4  1  0.90640023  0.46497548  0.06942710  1  2.18527  0  1.514684  2.10363  0  2.125401  0
Dy  Dy5  1  0.59359206  0.03502364  0.56942597  1  2.185176  0  1.514643  2.103541  0  2.125485  0
Dy  Dy6  1  0.09359554  0.46497627  0.43057596  1  2.185357  0  1.514641  2.103599  0  2.125479  0
Dy  Dy7  1  0.40638622  0.03502199  0.93057471  1  2.185171  0  1.514703  2.103629  0  2.125473  0
H  H8  1  0.33673984  0.56026323  0.89496205  1  0.648269  0  0.306224  0.394076  0  0.928885  0
H  H9  1  0.16326858  0.93974551  0.39495969  1  0.639671  0  0.306214  0.394221  0  0.928712  0
H  H10  1  0.66326709  0.56025844  0.60503997  1  0.639859  0  0.30621  0.394184  0  0.928742  0
H  H11  1  0.83673059  0.93973298  0.10503681  1  0.639763  0  0.306222  0.394153  0  0.928794  0
H  H12  1  0.66325256  0.43973851  0.10503648  1  0.63984  0  0.306144  0.394008  0  0.929027  0
H  H13  1  0.83674897  0.06025624  0.60503601  1  0.639857  0  0.306146  0.394058  0  0.928955  0
H  H14  1  0.33674802  0.43973458  0.39496209  1  0.648231  0  0.30619  0.394088  0  0.928847  0
H  H15  1  0.16325126  0.06025859  0.89496526  1  0.639806  0  0.306155  0.394091  0  0.9289  0
H  H16  1  0.32790468  0.52355285  0.94770794  1  0.621873  0  0.338978  0.424388  0  0.854048  0
H  H17  1  0.17209653  0.97645772  0.44770680  1  0.621878  0  0.33889  0.424262  0  0.854211  0
H  H18  1  0.67209082  0.52353315  0.55229568  1  0.621939  0  0.338953  0.424274  0  0.854229  0
H  H19  1  0.82790840  0.97645935  0.05229271  1  0.621839  0  0.338908  0.424253  0  0.85423  0
H  H20  1  0.67208935  0.47644599  0.05229023  1  0.621719  0  0.338882  0.424272  0  0.85413  0
H  H21  1  0.82791372  0.02354548  0.55228925  1  0.621644  0  0.338921  0.424345  0  0.854125  0
H  H22  1  0.32790969  0.47644605  0.44770993  1  0.621774  0  0.33895  0.424329  0  0.854256  0
H  H23  1  0.17207589  0.02354895  0.94771077  1  0.62163  0  0.338878  0.424216  0  0.854341  0
H  H24  1  0.12291369  0.36828545  0.99522880  1  0.63426  0  0.30148  0.40804  0  0.91874  0
H  H25  1  0.37708989  0.13171512  0.49522454  1  0.634306  0  0.301443  0.407888  0  0.918932  0
H  H26  1  0.87708960  0.36828521  0.50477345  1  0.634272  0  0.301475  0.407997  0  0.918793  0
H  H27  1  0.62290276  0.13171377  0.00477234  1  0.634242  0  0.301485  0.408074  0  0.918682  0
H  H28  1  0.87707952  0.63170975  0.00477504  1  0.634414  0  0.301388  0.407801  0  0.919079  0
H  H29  1  0.62291549  0.86828517  0.50477328  1  0.634311  0  0.301466  0.407959  0  0.918816  0
H  H30  1  0.12291172  0.63171290  0.49522578  1  0.634326  0  0.301451  0.40796  0  0.918826  0
H  H31  1  0.37708721  0.86828579  0.99522583  1  0.634316  0  0.30143  0.407921  0  0.918902  0
H  H32  1  0.18437775  0.34852410  0.94505788  1  0.632127  0  0.298451  0.393381  0  0.936938  0
H  H33  1  0.31562085  0.15147386  0.44505369  1  0.632654  0  0.298385  0.393248  0  0.937129  0
H  H34  1  0.81562307  0.34852274  0.55494482  1  0.632606  0  0.298397  0.393285  0  0.937076  0
H  H35  1  0.68437915  0.15147303  0.05493991  1  0.632197  0  0.298425  0.393341  0  0.936982  0
H  H36  1  0.81561871  0.65147328  0.05494737  1  0.632933  0  0.298399  0.393284  0  0.937092  0
H  H37  1  0.68439021  0.84852498  0.55494200  1  0.632268  0  0.298412  0.393309  0  0.937057  0
H  H38  1  0.18439042  0.65146809  0.44505690  1  0.632441  0  0.298414  0.393366  0  0.936963  0
H  H39  1  0.31561407  0.84852071  0.94505649  1  0.6322  0  0.298376  0.393252  0  0.937131  0
H  H40  1  0.09109698  0.68656188  0.86067397  1  0.626709  0  0.325866  0.415832  0  0.876613  0
H  H41  1  0.40888839  0.81344102  0.36067052  1  0.627088  0  0.325934  0.415903  0  0.876541  0
H  H42  1  0.90889885  0.68655458  0.63932425  1  0.626826  0  0.325845  0.415785  0  0.876677  0
H  H43  1  0.59110404  0.81342669  0.13932624  1  0.626853  0  0.325875  0.415785  0  0.87669  0
H  H44  1  0.90887757  0.31343841  0.13932031  1  0.627116  0  0.325786  0.415646  0  0.876827  0
H  H45  1  0.59112105  0.18655709  0.63932270  1  0.627003  0  0.325811  0.415665  0  0.87681  0
H  H46  1  0.09110896  0.31343626  0.36068277  1  0.626867  0  0.325732  0.415553  0  0.876964  0
H  H47  1  0.40886727  0.18653797  0.86067689  1  0.62733  0  0.325977  0.415778  0  0.876611  0
H  H48  1  0.20831240  0.71624790  0.88180194  1  0.660699  0  0.295986  0.40808  0  0.927277  0
H  H49  1  0.29167998  0.78374293  0.38179930  1  0.660688  0  0.296113  0.40826  0  0.927014  0
H  H50  1  0.79168918  0.71625394  0.61819578  1  0.660657  0  0.296008  0.408063  0  0.92729  0
H  H51  1  0.70831482  0.78373649  0.11819619  1  0.660485  0  0.296053  0.408053  0  0.927304  0
H  H52  1  0.79166297  0.28374949  0.11819234  1  0.660417  0  0.296118  0.40821  0  0.927091  0
H  H53  1  0.70833351  0.21624718  0.61819427  1  0.660461  0  0.296084  0.408192  0  0.927108  0
H  H54  1  0.20832756  0.28374199  0.38180558  1  0.660427  0  0.296128  0.408194  0  0.927085  0
H  H55  1  0.29165650  0.21624490  0.88180305  1  0.660541  0  0.296135  0.408164  0  0.927159  0
H  H56  1  0.17148057  0.14448576  0.72317904  1  0.121959  0  0.115696  0.127398  0  0.999702  0
H  H57  1  0.32855028  0.35552110  0.22317454  1  0.121972  0  0.11558  0.127175  0  0.999778  0
H  H58  1  0.82848576  0.14449080  0.77682783  1  0.121238  0  0.1157  0.127387  0  0.999484  0
H  H59  1  0.67150043  0.35551644  0.27682161  1  0.121697  0  0.115725  0.127369  0  0.999548  0
H  H60  1  0.82853130  0.85551744  0.27682550  1  0.121926  0  0.11563  0.127275  0  0.999789  0
H  H61  1  0.67149242  0.64448647  0.77682859  1  0.121629  0  0.115684  0.127268  0  0.999676  0
H  H62  1  0.17148717  0.85551677  0.22317424  1  0.121642  0  0.115685  0.127305  0  0.999596  0
H  H63  1  0.32849360  0.64448749  0.72317727  1  0.121714  0  0.115748  0.127433  0  0.999694  0
H  H64  1  0.15148763  0.45515402  0.70420089  1  0.096943  0  0.115002  0.122033  0  0.977835  0
H  H65  1  0.34851509  0.04485395  0.20419643  1  0.096948  0  0.115051  0.122121  0  0.977793  0
H  H66  1  0.84849719  0.45515652  0.79579987  1  0.096956  0  0.114976  0.121879  0  0.977956  0
H  H67  1  0.65151145  0.04484961  0.29579840  1  0.09706  0  0.115  0.121961  0  0.977913  0
H  H68  1  0.84852181  0.54485355  0.29580401  1  0.096846  0  0.115012  0.122116  0  0.977933  0
H  H69  1  0.65151381  0.95515652  0.79579573  1  0.097051  0  0.114989  0.121996  0  0.977864  0
H  H70  1  0.15150981  0.54485250  0.20419653  1  0.096981  0  0.115026  0.121958  0  0.978044  0
H  H71  1  0.34850610  0.95515068  0.70420048  1  0.09701  0  0.115032  0.121981  0  0.977953  0
H  H72  1  0.13284174  0.47415425  0.79119758  1  0.149638  0  0.117118  0.125797  0  0.994139  0
H  H73  1  0.36717519  0.02584903  0.29119139  1  0.149518  0  0.117025  0.125664  0  0.994302  0
H  H74  1  0.86716258  0.47415492  0.70880486  1  0.149624  0  0.117026  0.125712  0  0.993959  0
H  H75  1  0.63285293  0.02584862  0.20880389  1  0.149472  0  0.117046  0.125735  0  0.994101  0
H  H76  1  0.86717581  0.52584749  0.20880909  1  0.14955  0  0.116977  0.125649  0  0.994163  0
H  H77  1  0.63285533  0.97414762  0.70880006  1  0.149538  0  0.117106  0.125858  0  0.994117  0
H  H78  1  0.13284767  0.52584537  0.29119012  1  0.149345  0  0.11699  0.125651  0  0.994188  0
H  H79  1  0.36716380  0.97415022  0.79119676  1  0.14962  0  0.117055  0.125771  0  0.994037  0
H  H80  1  0.31882001  0.17703526  0.67119203  1  0.093293  0  0.104753  0.1102  0  1.01168  0
H  H81  1  0.18118965  0.32297411  0.17119091  1  0.093492  0  0.104737  0.110185  0  1.011648  0
H  H82  1  0.68112935  0.17705429  0.82881043  1  0.093454  0  0.104718  0.110149  0  1.011756  0
H  H83  1  0.81884557  0.32295843  0.32880930  1  0.092825  0  0.104687  0.110029  0  1.011827  0
H  H84  1  0.68117482  0.82295266  0.32880791  1  0.093429  0  0.104683  0.110105  0  1.01182  0
H  H85  1  0.81882790  0.67704291  0.82881364  1  0.093079  0  0.104747  0.110187  0  1.011817  0
H  H86  1  0.31882411  0.82297000  0.17118491  1  0.09297  0  0.104761  0.110186  0  1.011705  0
H  H87  1  0.18116305  0.67703968  0.67119100  1  0.093273  0  0.104704  0.110125  0  1.011817  0
H  H88  1  0.29915865  0.27016959  0.52628713  1  0.113206  0  0.112411  0.121496  0  1.007165  0
H  H89  1  0.20084571  0.22984275  0.02628675  1  0.113217  0  0.112431  0.121476  0  1.00726  0
H  H90  1  0.70082011  0.27016750  0.97371595  1  0.112975  0  0.112425  0.121482  0  1.006945  0
H  H91  1  0.79915526  0.22983790  0.47371567  1  0.113099  0  0.112412  0.121457  0  1.007138  0
H  H92  1  0.70083781  0.72983507  0.47371529  1  0.113129  0  0.112422  0.12146  0  1.007123  0
H  H93  1  0.79914426  0.77017136  0.97371673  1  0.113077  0  0.11241  0.121474  0  1.007194  0
H  H94  1  0.29914309  0.72985607  0.02627974  1  0.113081  0  0.112443  0.121476  0  1.007192  0
H  H95  1  0.20084363  0.77016530  0.52628569  1  0.113167  0  0.112427  0.121491  0  1.007077  0
H  H96  1  0.08630372  0.39660286  0.62953940  1  0.150713  0  0.112647  0.117779  0  1.047903  0
H  H97  1  0.41369191  0.10339864  0.12953837  1  0.150737  0  0.112669  0.117775  0  1.047986  0
H  H98  1  0.91366394  0.39660611  0.87046200  1  0.151051  0  0.112563  0.117603  0  1.048248  0
H  H99  1  0.58632664  0.10339194  0.37045900  1  0.150813  0  0.112605  0.117695  0  1.048059  0
H  H100  1  0.91369679  0.60339962  0.37046586  1  0.150722  0  0.112654  0.11785  0  1.047992  0
H  H101  1  0.58630941  0.89660674  0.87045909  1  0.150619  0  0.112655  0.117743  0  1.048003  0
H  H102  1  0.08631549  0.60340291  0.12953759  1  0.150871  0  0.112596  0.11774  0  1.048121  0
H  H103  1  0.41368199  0.89660326  0.62954023  1  0.1508  0  0.112625  0.117724  0  1.04808  0
C  C104  1  0.14852017  0.34797946  0.85896684  1  1.652963  0  0.2341  0.625815  0  4.17661  0
C  C105  1  0.35148447  0.15201371  0.35896044  1  1.653035  0  0.23401  0.625762  0  4.176363  0
C  C106  1  0.85147821  0.34798004  0.64103762  1  1.653007  0  0.234094  0.625867  0  4.176249  0
C  C107  1  0.64852039  0.15201834  0.14103529  1  1.652739  0  0.234093  0.625877  0  4.176431  0
C  C108  1  0.85147548  0.65201428  0.14104053  1  1.652155  0  0.234025  0.625844  0  4.176349  0
C  C109  1  0.64853469  0.84797277  0.64103632  1  1.652242  0  0.234022  0.6257  0  4.1766  0
C  C110  1  0.14853203  0.65201080  0.35896019  1  1.652695  0  0.234116  0.626032  0  4.1763  0
C  C111  1  0.35146715  0.84797468  0.85896430  1  1.652417  0  0.234129  0.625924  0  4.176622  0
C  C112  1  0.14392224  0.32271666  0.80690300  1  -0.051007  0  -0.002919  -0.076346  0  3.904775  0
C  C113  1  0.35609448  0.17728630  0.30689822  1  -0.051234  0  -0.002909  -0.07633  0  3.904541  0
C  C114  1  0.85607771  0.32271836  0.69310089  1  -0.051253  0  -0.003027  -0.076338  0  3.904797  0
C  C115  1  0.64392423  0.17728332  0.19309738  1  -0.051015  0  -0.002912  -0.0764  0  3.904834  0
C  C116  1  0.85608476  0.67729091  0.19310120  1  -0.050694  0  -0.002985  -0.076454  0  3.904871  0
C  C117  1  0.64393605  0.82270962  0.69309853  1  -0.050913  0  -0.002929  -0.076219  0  3.904744  0
C  C118  1  0.14393334  0.67728411  0.30689870  1  -0.051468  0  -0.003046  -0.076458  0  3.905211  0
C  C119  1  0.35607467  0.82270970  0.80690150  1  -0.05069  0  -0.002806  -0.076235  0  3.904788  0
C  C120  1  0.15205543  0.23003714  0.78596938  1  0.243505  0  0.07976  0.047713  0  3.938888  0
C  C121  1  0.34796806  0.26996552  0.28596559  1  0.244212  0  0.079684  0.047711  0  3.938949  0
C  C122  1  0.84793785  0.23003986  0.71403425  1  0.244204  0  0.079777  0.047437  0  3.93867  0
C  C123  1  0.65206137  0.26996721  0.21403062  1  0.243835  0  0.079744  0.047633  0  3.938655  0
C  C124  1  0.84795400  0.76995951  0.21403375  1  0.244261  0  0.079751  0.047721  0  3.938997  0
C  C125  1  0.65206652  0.73003041  0.71403258  1  0.244386  0  0.079781  0.047508  0  3.939052  0
C  C126  1  0.15206835  0.76996044  0.28596711  1  0.244396  0  0.079786  0.047522  0  3.938751  0
C  C127  1  0.34793752  0.73003744  0.78596932  1  0.243723  0  0.07976  0.047725  0  3.938937  0
C  C128  1  0.16547093  0.21797875  0.73730741  1  -0.010569  0  -0.078664  -0.178515  0  3.941764  0
C  C129  1  0.33455323  0.28203000  0.23730219  1  -0.010786  0  -0.078579  -0.178314  0  3.941615  0
C  C130  1  0.83450285  0.21798845  0.76269769  1  -0.010078  0  -0.078699  -0.178282  0  3.941567  0
C  C131  1  0.66548515  0.28201763  0.26269432  1  -0.010353  0  -0.078733  -0.178341  0  3.941925  0
C  C132  1  0.83454094  0.78202591  0.26269784  1  -0.010654  0  -0.078653  -0.178423  0  3.941756  0
C  C133  1  0.66548378  0.71798047  0.76269917  1  -0.0104  0  -0.078596  -0.178008  0  3.94159  0
C  C134  1  0.16548225  0.78201985  0.23729978  1  -0.010241  0  -0.078747  -0.178297  0  3.941834  0
C  C135  1  0.33451131  0.71798048  0.73730562  1  -0.010373  0  -0.078813  -0.178575  0  3.941936  0
C  C136  1  0.16906126  0.29882536  0.70712311  1  -0.046986  0  0.006029  0.093934  0  3.992462  0
C  C137  1  0.33095359  0.20118183  0.20712006  1  -0.046078  0  0.006082  0.09402  0  3.992846  0
C  C138  1  0.83090458  0.29882425  0.79287770  1  -0.047139  0  0.006053  0.093659  0  3.992847  0
C  C139  1  0.66908301  0.20118339  0.29287507  1  -0.047264  0  0.006089  0.093674  0  3.992793  0
C  C140  1  0.83094899  0.70117712  0.29287931  1  -0.047074  0  0.006073  0.094006  0  3.992832  0
C  C141  1  0.66907613  0.79882210  0.79287564  1  -0.047179  0  0.006053  0.093583  0  3.992617  0
C  C142  1  0.16907403  0.70118695  0.20712366  1  -0.047387  0  0.006086  0.093844  0  3.992823  0
C  C143  1  0.33092156  0.79882054  0.70712416  1  -0.047128  0  0.006153  0.093884  0  3.992432  0
C  C144  1  0.15181185  0.39109249  0.72702968  1  0.026354  0  -0.066347  -0.097413  0  3.907658  0
C  C145  1  0.34820272  0.10891502  0.22702491  1  0.025293  0  -0.066387  -0.097575  0  3.908129  0
C  C146  1  0.84817608  0.39110055  0.77297210  1  0.026463  0  -0.066188  -0.096977  0  3.90733  0
C  C147  1  0.65182639  0.10890387  0.27297209  1  0.026229  0  -0.066232  -0.097053  0  3.907205  0
C  C148  1  0.84820488  0.60891071  0.27297557  1  0.026292  0  -0.066374  -0.097591  0  3.908408  0
C  C149  1  0.65182618  0.89109619  0.77297079  1  0.026227  0  -0.06627  -0.097143  0  3.907269  0
C  C150  1  0.15182282  0.60890338  0.22702218  1  0.026534  0  -0.066266  -0.097136  0  3.907448  0
C  C151  1  0.34818467  0.89109643  0.72702715  1  0.026272  0  -0.066331  -0.097169  0  3.907413  0
C  C152  1  0.14053285  0.40207446  0.77571395  1  -0.029529  0  -0.069964  -0.062555  0  3.9413  0
C  C153  1  0.35948673  0.09792550  0.27570920  1  -0.029364  0  -0.069701  -0.062206  0  3.941093  0
C  C154  1  0.85946646  0.40207116  0.72428884  1  -0.029451  0  -0.069826  -0.062417  0  3.941153  0
C  C155  1  0.64053992  0.09793279  0.22428714  1  -0.029036  0  -0.06992  -0.062547  0  3.941311  0
C  C156  1  0.85948713  0.59792874  0.22429343  1  -0.029252  0  -0.069667  -0.062208  0  3.941042  0
C  C157  1  0.64054461  0.90206897  0.72428508  1  -0.029159  0  -0.070035  -0.06283  0  3.941158  0
C  C158  1  0.14053974  0.59793131  0.27571040  1  -0.029029  0  -0.069753  -0.062296  0  3.941294  0
C  C159  1  0.35946708  0.90206605  0.77571174  1  -0.029338  0  -0.070042  -0.062753  0  3.941144  0
C  C160  1  0.19761154  0.28762304  0.65668846  1  0.045099  0  -0.009714  0.05383  0  4.018926  0
C  C161  1  0.30239184  0.21238663  0.15668578  1  0.046165  0  -0.009781  0.053735  0  4.019108  0
C  C162  1  0.80234374  0.28763686  0.84331276  1  0.046568  0  -0.009984  0.053593  0  4.019471  0
C  C163  1  0.69763991  0.21237629  0.34331106  1  0.045752  0  -0.009819  0.053808  0  4.018804  0
C  C164  1  0.80238573  0.71238089  0.34331644  1  0.045415  0  -0.009793  0.0537  0  4.018896  0
C  C165  1  0.69762165  0.78762821  0.84331416  1  0.045388  0  -0.009719  0.054054  0  4.01867  0
C  C166  1  0.19762758  0.71238307  0.15668364  1  0.045833  0  -0.009738  0.053647  0  4.018944  0
C  C167  1  0.30236547  0.78762764  0.65668640  1  0.045615  0  -0.009841  0.053801  0  4.018989  0
C  C168  1  0.27946451  0.22175019  0.64433759  1  -0.122661  0  -0.073834  -0.123668  0  3.917474  0
C  C169  1  0.22054471  0.27825755  0.14433764  1  -0.123595  0  -0.073806  -0.123585  0  3.917411  0
C  C170  1  0.72049225  0.22176582  0.85566183  1  -0.123161  0  -0.073795  -0.12358  0  3.91749  0
C  C171  1  0.77948231  0.27824418  0.35566313  1  -0.122235  0  -0.073824  -0.123478  0  3.917693  0
C  C172  1  0.72053763  0.77824574  0.35566058  1  -0.122887  0  -0.073746  -0.123453  0  3.917778  0
C  C173  1  0.77946797  0.72175510  0.85566337  1  -0.122459  0  -0.073933  -0.123884  0  3.917648  0
C  C174  1  0.27946446  0.77825557  0.14433458  1  -0.12243  0  -0.073977  -0.123755  0  3.917547  0
C  C175  1  0.22052145  0.72175393  0.64433893  1  -0.122775  0  -0.073841  -0.123678  0  3.917528  0
C  C176  1  0.31730213  0.21565506  0.59780582  1  0.005695  0  -0.018306  -0.029048  0  4.001644  0
C  C177  1  0.18269800  0.28435364  0.09780629  1  0.005216  0  -0.018215  -0.029074  0  4.001467  0
C  C178  1  0.68265948  0.21566386  0.90219752  1  0.004061  0  -0.018256  -0.029144  0  4.001433  0
C  C179  1  0.81731687  0.28434591  0.40219552  1  0.004343  0  -0.018232  -0.029114  0  4.001383  0
C  C180  1  0.68269270  0.78434233  0.40219377  1  0.005765  0  -0.018288  -0.029134  0  4.001562  0
C  C181  1  0.81730252  0.71565756  0.90219897  1  0.004889  0  -0.018188  -0.028973  0  4.001314  0
C  C182  1  0.31729967  0.78435898  0.09779959  1  0.005135  0  -0.018106  -0.028852  0  4.001073  0
C  C183  1  0.18268851  0.71565511  0.59780336  1  0.004859  0  -0.018226  -0.029004  0  4.001315  0
C  C184  1  0.27061333  0.27349957  0.56269168  1  0.007166  0  -0.065587  -0.084191  0  3.898244  0
C  C185  1  0.22939134  0.22650693  0.06269089  1  0.007241  0  -0.065684  -0.08421  0  3.898504  0
C  C186  1  0.72937274  0.27350118  0.93731174  1  0.00816  0  -0.065591  -0.084078  0  3.898228  0
C  C187  1  0.77061611  0.22649841  0.43731120  1  0.007677  0  -0.065515  -0.083937  0  3.89812  0
C  C188  1  0.72938962  0.72649926  0.43731039  1  0.007747  0  -0.065599  -0.084094  0  3.898591  0
C  C189  1  0.77060106  0.77350355  0.93731188  1  0.007021  0  -0.065681  -0.084172  0  3.898625  0
C  C190  1  0.27059776  0.72651220  0.06268608  1  0.007237  0  -0.065749  -0.084288  0  3.898706  0
C  C191  1  0.22938846  0.77350624  0.56269052  1  0.007337  0  -0.065568  -0.084033  0  3.898588  0
C  C192  1  0.18611204  0.33702684  0.57421977  1  -0.028227  0  -0.011358  -0.034411  0  3.956945  0
C  C193  1  0.31388760  0.16298161  0.07421660  1  -0.028379  0  -0.011359  -0.034405  0  3.957162  0
C  C194  1  0.81386524  0.33701935  0.92578475  1  -0.029392  0  -0.0115  -0.03449  0  3.956966  0
C  C195  1  0.68612296  0.16297684  0.42577943  1  -0.028867  0  -0.011506  -0.034734  0  3.95747  0
C  C196  1  0.81387631  0.66298436  0.42578512  1  -0.029147  0  -0.011399  -0.034323  0  3.957259  0
C  C197  1  0.68611048  0.83702523  0.92578193  1  -0.028012  0  -0.01137  -0.03448  0  3.957328  0
C  C198  1  0.18611419  0.66299476  0.07421520  1  -0.028547  0  -0.011359  -0.0344  0  3.957337  0
C  C199  1  0.31387188  0.83702272  0.57421733  1  -0.029129  0  -0.011472  -0.034568  0  3.957253  0
C  C200  1  0.15099411  0.34544283  0.62116824  1  -0.105016  0  -0.065234  -0.11355  0  3.875754  0
C  C201  1  0.34901056  0.15456029  0.12116785  1  -0.105532  0  -0.065281  -0.113559  0  3.875565  0
C  C202  1  0.84897101  0.34545164  0.87883164  1  -0.10609  0  -0.065005  -0.113277  0  3.875474  0
C  C203  1  0.65100972  0.15454770  0.37883105  1  -0.105327  0  -0.06517  -0.113434  0  3.875492  0
C  C204  1  0.84901046  0.65455528  0.37883666  1  -0.105218  0  -0.065264  -0.113761  0  3.875625  0
C  C205  1  0.65099238  0.84545309  0.87883139  1  -0.1052  0  -0.06523  -0.113518  0  3.875569  0
C  C206  1  0.15099462  0.65456029  0.12116477  1  -0.105412  0  -0.065243  -0.113525  0  3.875588  0
C  C207  1  0.34899485  0.84545114  0.62116960  1  -0.105312  0  -0.065178  -0.113511  0  3.875442  0
C  C208  1  0.41116946  0.15114955  0.58739116  1  1.533191  0  0.19549  0.573556  0  4.226585  0
C  C209  1  0.08882513  0.34885208  0.08739156  1  1.534226  0  0.195588  0.573732  0  4.226645  0
C  C210  1  0.58879608  0.15116018  0.91261214  1  1.534947  0  0.195627  0.573686  0  4.226504  0
C  C211  1  0.91117689  0.34885229  0.41260958  1  1.535047  0  0.195595  0.573655  0  4.226513  0
C  C212  1  0.58882456  0.84884929  0.41260418  1  1.533902  0  0.195517  0.57361  0  4.226778  0
C  C213  1  0.91116321  0.65114893  0.91261440  1  1.534244  0  0.195662  0.573787  0  4.226607  0
C  C214  1  0.41116550  0.84886048  0.08738744  1  1.533702  0  0.19553  0.573605  0  4.226718  0
C  C215  1  0.08882930  0.65114655  0.58738966  1  1.534366  0  0.19553  0.573511  0  4.226841  0
C  C216  1  0.13412986  0.39527068  0.53566830  1  1.608378  0  0.237716  0.666014  0  4.136883  0
C  C217  1  0.36586788  0.10473273  0.03566775  1  1.608482  0  0.237711  0.665991  0  4.13716  0
C  C218  1  0.86586051  0.39526322  0.96433417  1  1.609123  0  0.237798  0.666125  0  4.137023  0
C  C219  1  0.63413283  0.10472928  0.46433104  1  1.608688  0  0.237752  0.666142  0  4.136762  0
C  C220  1  0.86587228  0.60473179  0.46433412  1  1.608408  0  0.237731  0.666054  0  4.136957  0
C  C221  1  0.63411560  0.89527410  0.96432972  1  1.607893  0  0.237808  0.666062  0  4.136551  0
C  C222  1  0.13411729  0.60473780  0.03566861  1  1.608163  0  0.237914  0.666204  0  4.136734  0
C  C223  1  0.36587012  0.89527392  0.53566997  1  1.608615  0  0.237839  0.666282  0  4.136646  0
N  N224  1  0.14278887  0.14008528  0.81365067  1  0.366232  0  0.057423  0.517123  0  4.189882  0
N  N225  1  0.35722695  0.35991755  0.31364642  1  0.365983  0  0.057447  0.516925  0  4.19009  0
N  N226  1  0.85720909  0.14008494  0.68635587  1  0.365894  0  0.057535  0.51738  0  4.189974  0
N  N227  1  0.64279619  0.35991979  0.18635041  1  0.366099  0  0.057374  0.517134  0  4.190292  0
N  N228  1  0.85720191  0.85992010  0.18635387  1  0.365522  0  0.05732  0.517015  0  4.190168  0
N  N229  1  0.64281250  0.64006820  0.68635954  1  0.366097  0  0.057526  0.517357  0  4.190752  0
N  N230  1  0.14281738  0.85992336  0.31364478  1  0.365552  0  0.05731  0.517192  0  4.190778  0
N  N231  1  0.35720757  0.64007614  0.81364811  1  0.366205  0  0.057375  0.517118  0  4.190072  0
O  O232  1  0.09894428  0.42608727  0.86967845  1  -1.193795  0  -0.405592  -0.664018  0  2.340144  0
O  O233  1  0.40105211  0.07390495  0.36967477  1  -1.193838  0  -0.405613  -0.663998  0  2.340149  0
O  O234  1  0.90104778  0.42608887  0.63032351  1  -1.193707  0  -0.405555  -0.663988  0  2.340206  0
O  O235  1  0.59895341  0.07390828  0.13032416  1  -1.193797  0  -0.405488  -0.663893  0  2.340266  0
O  O236  1  0.90103839  0.57390647  0.13032645  1  -1.193677  0  -0.405499  -0.663949  0  2.340313  0
O  O237  1  0.59896301  0.92608006  0.63032411  1  -1.193469  0  -0.405427  -0.663802  0  2.3405  0
O  O238  1  0.09896896  0.57390779  0.36967218  1  -1.193738  0  -0.405493  -0.663964  0  2.340623  0
O  O239  1  0.40103494  0.92608474  0.86967649  1  -1.193555  0  -0.405485  -0.663954  0  2.340461  0
O  O240  1  0.29149921  0.52284982  0.91717268  1  -1.23279  0  -0.611878  -0.806036  0  2.042828  0
O  O241  1  0.20850728  0.97716938  0.41717144  1  -1.224215  0  -0.611786  -0.806013  0  2.042685  0
O  O242  1  0.70850521  0.52283610  0.58282881  1  -1.224468  0  -0.611859  -0.805999  0  2.042773  0
O  O243  1  0.79149602  0.97716087  0.08282664  1  -1.224249  0  -0.611815  -0.805991  0  2.042819  0
O  O244  1  0.70848427  0.47716865  0.08282761  1  -1.224205  0  -0.611661  -0.805811  0  2.04289  0
O  O245  1  0.79151351  0.02282728  0.58282744  1  -1.224179  0  -0.611695  -0.805944  0  2.042758  0
O  O246  1  0.29150666  0.47715983  0.41717573  1  -1.232626  0  -0.611795  -0.805972  0  2.042914  0
O  O247  1  0.20847367  0.02282415  0.91717365  1  -1.224138  0  -0.61167  -0.805829  0  2.042997  0
O  O248  1  0.20280520  0.29761692  0.88812181  1  -1.174191  0  -0.290795  -0.538006  0  2.220655  0
O  O249  1  0.29719336  0.20237930  0.38811530  1  -1.174086  0  -0.290798  -0.53804  0  2.220263  0
O  O250  1  0.79719389  0.29761073  0.61188255  1  -1.174294  0  -0.290826  -0.538071  0  2.220295  0
O  O251  1  0.70280592  0.20238534  0.11187593  1  -1.174133  0  -0.2909  -0.538183  0  2.22021  0
O  O252  1  0.79718071  0.70238192  0.11188273  1  -1.173998  0  -0.290866  -0.538098  0  2.220065  0
O  O253  1  0.70282662  0.79760718  0.61187792  1  -1.174301  0  -0.290908  -0.538112  0  2.22012  0
O  O254  1  0.20283015  0.70237938  0.38812058  1  -1.174125  0  -0.2909  -0.538301  0  2.219848  0
O  O255  1  0.29717999  0.79760696  0.88812012  1  -1.1744  0  -0.290913  -0.538147  0  2.220362  0
O  O256  1  0.16963950  0.39733839  0.97033635  1  -1.250903  0  -0.646934  -0.853213  0  2.051171  0
O  O257  1  0.33036118  0.10266050  0.47033378  1  -1.251507  0  -0.64681  -0.852939  0  2.051407  0
O  O258  1  0.83036142  0.39733539  0.52966505  1  -1.251427  0  -0.64687  -0.853084  0  2.051307  0
O  O259  1  0.66964358  0.10266163  0.02966148  1  -1.250931  0  -0.646892  -0.853176  0  2.051089  0
O  O260  1  0.83035533  0.60265826  0.02966784  1  -1.251891  0  -0.646828  -0.852914  0  2.05141  0
O  O261  1  0.66964501  0.89733761  0.52966369  1  -1.251107  0  -0.646892  -0.853046  0  2.051266  0
O  O262  1  0.16964721  0.60265763  0.47033596  1  -1.251312  0  -0.646875  -0.853087  0  2.051157  0
O  O263  1  0.33034963  0.89733357  0.97033457  1  -1.251098  0  -0.646815  -0.852969  0  2.051342  0
O  O264  1  0.08880182  0.14243700  0.85102780  1  -0.482299  0  -0.123518  -0.338044  0  1.957522  0
O  O265  1  0.41120455  0.35756725  0.35102554  1  -0.482349  0  -0.123485  -0.337969  0  1.957615  0
O  O266  1  0.91120344  0.14243605  0.64897873  1  -0.481971  0  -0.123668  -0.338186  0  1.957259  0
O  O267  1  0.58880641  0.35756944  0.14897414  1  -0.482098  0  -0.123457  -0.338008  0  1.957602  0
O  O268  1  0.91117760  0.85756911  0.14897038  1  -0.481957  0  -0.123523  -0.338056  0  1.957199  0
O  O269  1  0.58882678  0.64240904  0.64897652  1  -0.482128  0  -0.123761  -0.338406  0  1.957498  0
O  O270  1  0.08884006  0.85757588  0.35102758  1  -0.481537  0  -0.123577  -0.338172  0  1.957641  0
O  O271  1  0.41119735  0.64243376  0.85102687  1  -0.48223  0  -0.123521  -0.338145  0  1.957396  0
O  O272  1  0.15221016  0.66264103  0.87903889  1  -1.272918  0  -0.642301  -0.868378  0  2.055198  0
O  O273  1  0.34777334  0.83735713  0.37903761  1  -1.273296  0  -0.64255  -0.868679  0  2.054866  0
O  O274  1  0.84778563  0.66264128  0.62095732  1  -1.272945  0  -0.642342  -0.868339  0  2.055262  0
O  O275  1  0.65221184  0.83734326  0.12095549  1  -1.272829  0  -0.64238  -0.868306  0  2.055217  0
O  O276  1  0.84776197  0.33735781  0.12095468  1  -1.272953  0  -0.6424  -0.868313  0  2.055166  0
O  O277  1  0.65223204  0.16263808  0.62095490  1  -1.272945  0  -0.642367  -0.868306  0  2.055139  0
O  O278  1  0.15222787  0.33735173  0.37904722  1  -1.272748  0  -0.642305  -0.868168  0  2.055149  0
O  O279  1  0.34774082  0.16262139  0.87903631  1  -1.273251  0  -0.642648  -0.868454  0  2.055103  0
O  O280  1  0.18759458  0.06585484  0.79822011  1  -0.454921  0  -0.122488  -0.330248  0  1.936231  0
O  O281  1  0.31242226  0.43414903  0.29821349  1  -0.454814  0  -0.122497  -0.330164  0  1.936195  0
O  O282  1  0.81240729  0.06585702  0.70178715  1  -0.454972  0  -0.122439  -0.330297  0  1.93657  0
O  O283  1  0.68760021  0.43414812  0.20178157  1  -0.455085  0  -0.122481  -0.330279  0  1.936487  0
O  O284  1  0.81240188  0.93414254  0.20178727  1  -0.454757  0  -0.122296  -0.330072  0  1.93686  0
O  O285  1  0.68760826  0.56585344  0.70179672  1  -0.455266  0  -0.122298  -0.330087  0  1.937181  0
O  O286  1  0.18761188  0.93414109  0.29820713  1  -0.455044  0  -0.122224  -0.330092  0  1.937021  0
O  O287  1  0.31241652  0.56585145  0.79821731  1  -0.454969  0  -0.122385  -0.330111  0  1.936593  0
O  O288  1  0.44893755  0.09679471  0.62017786  1  -1.184192  0  -0.380798  -0.634578  0  2.191444  0
O  O289  1  0.05105173  0.40319752  0.12017845  1  -1.184417  0  -0.380839  -0.634625  0  2.191479  0
O  O290  1  0.55103518  0.09680668  0.87982252  1  -1.184402  0  -0.380775  -0.634549  0  2.191335  0
O  O291  1  0.94894472  0.40320573  0.37982455  1  -1.184346  0  -0.380864  -0.634634  0  2.191632  0
O  O292  1  0.55106378  0.90320704  0.37982173  1  -1.184448  0  -0.380778  -0.634585  0  2.191867  0
O  O293  1  0.94892364  0.59679259  0.87982680  1  -1.183845  0  -0.380828  -0.634634  0  2.191473  0
O  O294  1  0.44892883  0.90321761  0.12017247  1  -1.184096  0  -0.380782  -0.63459  0  2.1917  0
O  O295  1  0.05106877  0.59678584  0.62017434  1  -1.184186  0  -0.380762  -0.634514  0  2.191653  0
O  O296  1  0.45575885  0.15304975  0.54630939  1  -1.179617  0  -0.367648  -0.639013  0  2.247871  0
O  O297  1  0.04423955  0.34695272  0.04630957  1  -1.180092  0  -0.367727  -0.639169  0  2.247909  0
O  O298  1  0.54420750  0.15305293  0.95369142  1  -1.180282  0  -0.367812  -0.639182  0  2.248097  0
O  O299  1  0.95576409  0.34695215  0.45369370  1  -1.180241  0  -0.367731  -0.639115  0  2.247796  0
O  O300  1  0.54423436  0.84694763  0.45369090  1  -1.180057  0  -0.367722  -0.639128  0  2.247611  0
O  O301  1  0.95574636  0.65304321  0.95369427  1  -1.179849  0  -0.367781  -0.639155  0  2.248132  0
O  O302  1  0.45575895  0.84695609  0.04630498  1  -1.179852  0  -0.367752  -0.639103  0  2.247851  0
O  O303  1  0.04424210  0.65305178  0.54630659  1  -1.179758  0  -0.367746  -0.63908  0  2.24796  0
O  O304  1  0.17571809  0.39024829  0.49439963  1  -1.189419  0  -0.40602  -0.670119  0  2.240812  0
O  O305  1  0.32427496  0.10974575  0.99440001  1  -1.189442  0  -0.406041  -0.670114  0  2.240841  0
O  O306  1  0.82427672  0.39024723  0.00560308  1  -1.189664  0  -0.405989  -0.670149  0  2.240998  0
O  O307  1  0.67571726  0.10974592  0.50560102  1  -1.18936  0  -0.40602  -0.670138  0  2.240748  0
O  O308  1  0.82428567  0.60975055  0.50560527  1  -1.189406  0  -0.406008  -0.670132  0  2.240787  0
O  O309  1  0.67570203  0.89025091  0.00560206  1  -1.188857  0  -0.406114  -0.670133  0  2.240463  0
O  O310  1  0.17570027  0.60975888  0.99439580  1  -1.188929  0  -0.406098  -0.670213  0  2.240568  0
O  O311  1  0.32428082  0.89025437  0.49439786  1  -1.189197  0  -0.406073  -0.67026  0  2.240503  0
O  O312  1  0.05107967  0.44621103  0.54512106  1  -1.214603  0  -0.409865  -0.708716  0  2.398537  0
O  O313  1  0.44892199  0.05379728  0.04512125  1  -1.214516  0  -0.409843  -0.708715  0  2.39863  0
O  O314  1  0.94891810  0.44619370  0.95487691  1  -1.214497  0  -0.409889  -0.708758  0  2.398551  0
O  O315  1  0.55108348  0.05379026  0.45487460  1  -1.214653  0  -0.409846  -0.708716  0  2.398386  0
O  O316  1  0.94892084  0.55380162  0.45487569  1  -1.214505  0  -0.409807  -0.70869  0  2.398709  0
O  O317  1  0.55107122  0.94620955  0.95487303  1  -1.214617  0  -0.409861  -0.708732  0  2.398516  0
O  O318  1  0.05107755  0.55380223  0.04512941  1  -1.214592  0  -0.409893  -0.708718  0  2.398666  0
O  O319  1  0.44891947  0.94620567  0.54512570  1  -1.214452  0  -0.409874  -0.708779  0  2.39866  0
