# generated using pymatgen
data_UH8C14(BrO3)2
_symmetry_space_group_name_H-M   'P 1'
_cell_length_a   5.14188761
_cell_length_b   8.78534382
_cell_length_c   17.68532735
_cell_angle_alpha   89.99995179
_cell_angle_beta   90.00015651
_cell_angle_gamma   94.76475807
_symmetry_Int_Tables_number   1
_chemical_formula_structural   UH8C14(BrO3)2
_chemical_formula_sum   'U2 H16 C28 Br4 O12'
_cell_volume   796.14282420
_cell_formula_units_Z   2
loop_
 _symmetry_equiv_pos_site_id
 _symmetry_equiv_pos_as_xyz
  1  'x, y, z'
loop_
 _atom_site_type_symbol
 _atom_site_label
 _atom_site_symmetry_multiplicity
 _atom_site_fract_x
 _atom_site_fract_y
 _atom_site_fract_z
 _atom_site_occupancy
 _atom_site_hle17_bader_spin_density
 _atom_site_hle17_ddec_charge
 _atom_site_hle17_ddec_spin_density
 _atom_site_hle17_ddec_sum_bond_order
 _atom_site_hle17_magmom
 _atom_site_hse06_10hf_bader_spin_density
 _atom_site_hse06_10hf_ddec_charge
 _atom_site_hse06_10hf_ddec_spin_density
 _atom_site_hse06_10hf_ddec_sum_bond_order
 _atom_site_hse06_10hf_magmom
 _atom_site_hse06_bader_spin_density
 _atom_site_hse06_ddec_charge
 _atom_site_hse06_ddec_spin_density
 _atom_site_hse06_ddec_sum_bond_order
 _atom_site_hse06_magmom
 _atom_site_pbe_bader_spin_density
 _atom_site_pbe_cm5_charge
 _atom_site_pbe_ddec_charge
 _atom_site_pbe_ddec_spin_density
 _atom_site_pbe_ddec_sum_bond_order
 _atom_site_pbe_magmom
U  U0  1  0.99999850  0.00000106  0.99999998  1  0  2.507491  0  4.187492  0  0  2.571635  0  4.855149  0  0  2.685714  0  4.808854  0  0  2.202455  2.489481  0  4.890623  0
U  U1  1  0.00000185  0.50000259  0.50000027  1  0  2.507369  0  4.187172  0  0  2.571583  0  4.854849  0  0  2.685717  0  4.808482  0  0  2.202308  2.489447  0  4.890271  0
H  H2  1  0.90098871  0.73046802  0.67212633  1  0  0.099313  0  0.943056  0  0  0.109132  0  1.003124  0  0  0.111834  0  1.002491  0  0  0.108148  0.107235  0  1.003694  0
H  H3  1  0.09901401  0.76953071  0.17212508  1  0  0.099329  0  0.943043  0  0  0.109146  0  1.003105  0  0  0.111849  0  1.002471  0  0  0.108169  0.107241  0  1.003688  0
H  H4  1  0.09901188  0.26953216  0.32787461  1  0  0.099331  0  0.943035  0  0  0.109132  0  1.003115  0  0  0.111834  0  1.002481  0  0  0.108165  0.107228  0  1.003688  0
H  H5  1  0.90098673  0.23047062  0.82787530  1  0  0.099328  0  0.943082  0  0  0.109159  0  1.003127  0  0  0.111862  0  1.002493  0  0  0.108158  0.107244  0  1.003724  0
H  H6  1  0.83881018  0.77298771  0.81085486  1  0  0.099749  0  0.954569  0  0  0.103788  0  1.027439  0  0  0.107601  0  1.024362  0  0  0.104096  0.100969  0  1.029743  0
H  H7  1  0.16119172  0.72700965  0.31085254  1  0  0.099799  0  0.954585  0  0  0.10382  0  1.02746  0  0  0.107644  0  1.024373  0  0  0.104112  0.101002  0  1.029762  0
H  H8  1  0.16119221  0.22701134  0.18914722  1  0  0.09978  0  0.954585  0  0  0.103808  0  1.027456  0  0  0.107628  0  1.024372  0  0  0.104108  0.100992  0  1.029759  0
H  H9  1  0.83881292  0.27299168  0.68914671  1  0  0.099784  0  0.954575  0  0  0.103807  0  1.027456  0  0  0.107629  0  1.024371  0  0  0.104103  0.100993  0  1.02976  0
H  H10  1  0.22155825  0.06106563  0.76040670  1  0  0.116497  0  0.938529  0  0  0.128298  0  0.996581  0  0  0.131616  0  0.994764  0  0  0.109585  0.12591  0  0.997896  0
H  H11  1  0.77844498  0.43893270  0.26040650  1  0  0.116489  0  0.938518  0  0  0.128293  0  0.996564  0  0  0.131611  0  0.994746  0  0  0.109581  0.125903  0  0.997884  0
H  H12  1  0.77844173  0.93892998  0.23959255  1  0  0.116463  0  0.938535  0  0  0.128259  0  0.996595  0  0  0.131576  0  0.994779  0  0  0.109562  0.125872  0  0.997914  0
H  H13  1  0.22155787  0.56106977  0.73959275  1  0  0.116466  0  0.938546  0  0  0.128253  0  0.996614  0  0  0.13157  0  0.994798  0  0  0.109569  0.125867  0  0.997935  0
H  H14  1  0.62959480  0.85352201  0.57894839  1  0  0.115963  0  0.958541  0  0  0.122538  0  1.026062  0  0  0.126484  0  1.022301  0  0  0.10625  0.119715  0  1.028807  0
H  H15  1  0.37041291  0.64647688  0.07894627  1  0  0.115975  0  0.958531  0  0  0.122506  0  1.026093  0  0  0.126451  0  1.022333  0  0  0.106225  0.119684  0  1.028836  0
H  H16  1  0.37040743  0.14647589  0.42105312  1  0  0.115962  0  0.958545  0  0  0.122516  0  1.026092  0  0  0.126462  0  1.022332  0  0  0.106211  0.11969  0  1.028839  0
H  H17  1  0.62958589  0.35352444  0.92105241  1  0  0.115965  0  0.958542  0  0  0.122521  0  1.026079  0  0  0.126466  0  1.02232  0  0  0.106227  0.119694  0  1.028819  0
C  C18  1  0.41006982  0.96505129  0.66418279  1  0  0.077243  0  3.723397  0  0  0.095657  0  3.991259  0  0  0.095876  0  4.014492  0  0  -0.014915  0.095083  0  3.975541  0
C  C19  1  0.58993493  0.53494859  0.16418144  1  0  0.077356  0  3.723381  0  0  0.095785  0  3.991185  0  0  0.096005  0  4.014418  0  0  -0.014847  0.095211  0  3.97546  0
C  C20  1  0.58993272  0.03494889  0.33581816  1  0  0.077312  0  3.723319  0  0  0.095766  0  3.99112  0  0  0.095985  0  4.014352  0  0  -0.014852  0.095198  0  3.975393  0
C  C21  1  0.41006387  0.46505272  0.83581781  1  0  0.077238  0  3.723395  0  0  0.095655  0  3.99123  0  0  0.095875  0  4.014462  0  0  -0.014903  0.095084  0  3.975498  0
C  C22  1  0.75232528  0.80224143  0.69218752  1  0  -0.05891  0  3.746588  0  0  -0.069436  0  4.001559  0  0  -0.07423  0  4.02437  0  0  -0.085119  -0.066358  0  3.985941  0
C  C23  1  0.24767973  0.69775841  0.19218698  1  0  -0.058894  0  3.746672  0  0  -0.069428  0  4.001622  0  0  -0.074222  0  4.02444  0  0  -0.085148  -0.066354  0  3.985994  0
C  C24  1  0.24767531  0.19775875  0.30781229  1  0  -0.058859  0  3.746595  0  0  -0.069367  0  4.001555  0  0  -0.074161  0  4.02437  0  0  -0.085109  -0.066294  0  3.98593  0
C  C25  1  0.75232117  0.30224405  0.80781396  1  0  -0.058855  0  3.746683  0  0  -0.069386  0  4.001628  0  0  -0.07418  0  4.024447  0  0  -0.085095  -0.066313  0  3.98599  0
C  C26  1  0.52426610  0.91788873  0.79368963  1  0  -0.084026  0  3.776376  0  0  -0.060557  0  4.002918  0  0  -0.072331  0  4.027409  0  0  -0.018153  -0.052871  0  3.986707  0
C  C27  1  0.47573385  0.58210979  0.29368988  1  0  -0.083896  0  3.776235  0  0  -0.060453  0  4.002774  0  0  -0.072217  0  4.02726  0  0  -0.018162  -0.052779  0  3.986568  0
C  C28  1  0.47572656  0.08211028  0.20630962  1  0  -0.084068  0  3.776465  0  0  -0.060602  0  4.002989  0  0  -0.072378  0  4.027482  0  0  -0.018195  -0.05292  0  3.986785  0
C  C29  1  0.52426465  0.41788924  0.70630937  1  0  -0.083986  0  3.776297  0  0  -0.060559  0  4.002845  0  0  -0.07232  0  4.027327  0  0  -0.018188  -0.052888  0  3.986657  0
C  C30  1  0.71883024  0.82619960  0.76926552  1  0  -0.055767  0  3.707352  0  0  -0.083511  0  3.958745  0  0  -0.081345  0  3.978611  0  0  -0.079306  -0.084692  0  3.945306  0
C  C31  1  0.28117696  0.67379670  0.26926275  1  0  -0.055909  0  3.707452  0  0  -0.08363  0  3.958851  0  0  -0.081472  0  3.978707  0  0  -0.079324  -0.084811  0  3.945408  0
C  C32  1  0.28117425  0.17380059  0.23073655  1  0  -0.055822  0  3.707428  0  0  -0.083559  0  3.958825  0  0  -0.081395  0  3.978682  0  0  -0.079312  -0.084735  0  3.945372  0
C  C33  1  0.71882512  0.32620006  0.73073593  1  0  -0.055847  0  3.707352  0  0  -0.083579  0  3.958772  0  0  -0.081418  0  3.97862  0  0  -0.079299  -0.084758  0  3.945327  0
C  C34  1  0.36749361  0.98720475  0.74093566  1  0  -0.109795  0  3.729866  0  0  -0.140539  0  3.973354  0  0  -0.140106  0  3.995151  0  0  -0.085307  -0.140566  0  3.958643  0
C  C35  1  0.63250990  0.51279501  0.24093379  1  0  -0.109859  0  3.729873  0  0  -0.140599  0  3.973358  0  0  -0.140171  0  3.995156  0  0  -0.085306  -0.140627  0  3.958646  0
C  C36  1  0.63250294  0.01279428  0.25906416  1  0  -0.109687  0  3.729826  0  0  -0.140441  0  3.973311  0  0  -0.140006  0  3.995107  0  0  -0.085234  -0.140472  0  3.958594  0
C  C37  1  0.36749295  0.48720746  0.75906433  1  0  -0.109755  0  3.729858  0  0  -0.14047  0  3.973336  0  0  -0.140043  0  3.995132  0  0  -0.085275  -0.140503  0  3.958634  0
C  C38  1  0.59902692  0.87131570  0.63907845  1  0  -0.081909  0  3.711025  0  0  -0.112856  0  3.966071  0  0  -0.112155  0  3.984868  0  0  -0.081001  -0.112769  0  3.952999  0
C  C39  1  0.40097745  0.62868309  0.13907579  1  0  -0.081953  0  3.711042  0  0  -0.112857  0  3.966063  0  0  -0.112157  0  3.98486  0  0  -0.080986  -0.112766  0  3.952983  0
C  C40  1  0.40097742  0.12868335  0.36092306  1  0  -0.082  0  3.711068  0  0  -0.112939  0  3.966093  0  0  -0.112239  0  3.98489  0  0  -0.08103  -0.112855  0  3.953016  0
C  C41  1  0.59901956  0.37131937  0.86092289  1  0  -0.081937  0  3.711118  0  0  -0.112865  0  3.966155  0  0  -0.112165  0  3.984954  0  0  -0.081008  -0.112768  0  3.953057  0
C  C42  1  0.48714869  0.94607534  0.87530586  1  0  0.714725  0  3.836301  0  0  0.681633  0  4.126585  0  0  0.724285  0  4.111028  0  0  0.255418  0.652001  0  4.136464  0
C  C43  1  0.51284796  0.55392191  0.37530501  1  0  0.714635  0  3.836292  0  0  0.681555  0  4.126568  0  0  0.724205  0  4.111017  0  0  0.255405  0.651932  0  4.136436  0
C  C44  1  0.51284592  0.05392369  0.12469452  1  0  0.714609  0  3.836355  0  0  0.681542  0  4.126608  0  0  0.724193  0  4.111053  0  0  0.255398  0.651914  0  4.136488  0
C  C45  1  0.48715397  0.44607371  0.62469424  1  0  0.714663  0  3.836263  0  0  0.681603  0  4.12653  0  0  0.724251  0  4.110982  0  0  0.255425  0.651977  0  4.136418  0
Br  Br46  1  0.21887264  0.07048956  0.59187942  1  0  -0.018539  0  1.339149  0  0  -0.008517  0  1.60703  0  0  -0.013893  0  1.599298  0  0  0.089693  -0.004331  0  1.612496  0
Br  Br47  1  0.78113115  0.42951018  0.09187866  1  0  -0.018569  0  1.33912  0  0  -0.00856  0  1.606992  0  0  -0.013937  0  1.599261  0  0  0.089673  -0.004374  0  1.612451  0
Br  Br48  1  0.78112796  0.92951062  0.40812039  1  0  -0.018572  0  1.339158  0  0  -0.008564  0  1.60702  0  0  -0.01394  0  1.599289  0  0  0.089664  -0.004385  0  1.612484  0
Br  Br49  1  0.21886960  0.57049114  0.90812115  1  0  -0.018546  0  1.339125  0  0  -0.008531  0  1.607003  0  0  -0.013907  0  1.599271  0  0  0.089685  -0.004349  0  1.612461  0
O  O50  1  0.27874605  0.00258837  0.89712854  1  0  -0.669582  0  2.067418  0  0  -0.657037  0  2.348833  0  0  -0.692962  0  2.339247  0  0  -0.37141  -0.630717  0  2.354313  0
O  O51  1  0.72125064  0.49740972  0.39712828  1  0  -0.669503  0  2.067436  0  0  -0.656966  0  2.348841  0  0  -0.692899  0  2.339256  0  0  -0.371382  -0.630648  0  2.354314  0
O  O52  1  0.72124871  0.99741179  0.10287127  1  0  -0.669537  0  2.067492  0  0  -0.657007  0  2.348894  0  0  -0.692933  0  2.339311  0  0  -0.371419  -0.630688  0  2.354377  0
O  O53  1  0.27875159  0.50258818  0.60287040  1  0  -0.669534  0  2.067477  0  0  -0.657002  0  2.348877  0  0  -0.692937  0  2.339295  0  0  -0.371403  -0.630682  0  2.354358  0
O  O54  1  0.93917059  0.19463453  0.97782505  1  0  -0.705381  0  1.58848  0  0  -0.710326  0  1.888205  0  0  -0.733427  0  1.873354  0  0  -0.757918  -0.695744  0  1.8995  0
O  O55  1  0.06082997  0.30535773  0.47782319  1  0  -0.705325  0  1.588175  0  0  -0.710297  0  1.887867  0  0  -0.733414  0  1.873011  0  0  -0.75777  -0.695715  0  1.899168  0
O  O56  1  0.06082612  0.80536564  0.02217533  1  0  -0.705374  0  1.588472  0  0  -0.710311  0  1.888178  0  0  -0.733413  0  1.873328  0  0  -0.757903  -0.695734  0  1.899484  0
O  O57  1  0.93917196  0.69463788  0.52217606  1  0  -0.705369  0  1.588385  0  0  -0.710338  0  1.888096  0  0  -0.733453  0  1.873237  0  0  -0.757899  -0.695765  0  1.899408  0
O  O58  1  0.66634519  0.91470220  0.92164095  1  0  -0.693341  0  2.110345  0  0  -0.684097  0  2.402887  0  0  -0.720117  0  2.391288  0  0  -0.381292  -0.657605  0  2.409645  0
O  O59  1  0.33365024  0.58529725  0.42164052  1  0  -0.693322  0  2.110294  0  0  -0.684077  0  2.402823  0  0  -0.720107  0  2.391228  0  0  -0.381309  -0.657587  0  2.40957  0
O  O60  1  0.33365167  0.08529911  0.07835943  1  0  -0.693277  0  2.110203  0  0  -0.684044  0  2.40273  0  0  -0.720061  0  2.391131  0  0  -0.381307  -0.657555  0  2.409488  0
O  O61  1  0.66635168  0.41469837  0.57835929  1  0  -0.693328  0  2.110233  0  0  -0.684083  0  2.402751  0  0  -0.720112  0  2.391156  0  0  -0.381306  -0.657586  0  2.409495  0
