# generated using pymatgen
data_ZnH9C14NO7
_symmetry_space_group_name_H-M   'P 1'
_cell_length_a   6.71782512
_cell_length_b   9.68205396
_cell_length_c   12.29658438
_cell_angle_alpha   103.76875050
_cell_angle_beta   93.81636644
_cell_angle_gamma   103.79166555
_symmetry_Int_Tables_number   1
_chemical_formula_structural   ZnH9C14NO7
_chemical_formula_sum   'Zn2 H18 C28 N2 O14'
_cell_volume   747.94666254
_cell_formula_units_Z   2
loop_
 _symmetry_equiv_pos_site_id
 _symmetry_equiv_pos_as_xyz
  1  'x, y, z'
loop_
 _atom_site_type_symbol
 _atom_site_label
 _atom_site_symmetry_multiplicity
 _atom_site_fract_x
 _atom_site_fract_y
 _atom_site_fract_z
 _atom_site_occupancy
 _atom_site_hle17_bader_spin_density
 _atom_site_hle17_ddec_charge
 _atom_site_hle17_ddec_spin_density
 _atom_site_hle17_ddec_sum_bond_order
 _atom_site_hle17_magmom
 _atom_site_hse06_10hf_bader_spin_density
 _atom_site_hse06_10hf_ddec_charge
 _atom_site_hse06_10hf_ddec_spin_density
 _atom_site_hse06_10hf_ddec_sum_bond_order
 _atom_site_hse06_10hf_magmom
 _atom_site_hse06_bader_spin_density
 _atom_site_hse06_ddec_charge
 _atom_site_hse06_ddec_spin_density
 _atom_site_hse06_ddec_sum_bond_order
 _atom_site_hse06_magmom
 _atom_site_pbe_bader_spin_density
 _atom_site_pbe_cm5_charge
 _atom_site_pbe_ddec_charge
 _atom_site_pbe_ddec_spin_density
 _atom_site_pbe_ddec_sum_bond_order
 _atom_site_pbe_magmom
Zn  Zn0  1  0.13092919  0.47503578  0.80649916  1  0  1.187228  0  1.675349  0  0  1.014181  0  2.152417  0  0  1.065909  0  2.08483  0  0  0.683569  0.975171  0  2.202064  0
Zn  Zn1  1  0.86906204  0.52496033  0.19350234  1  0  1.187187  0  1.675398  0  0  1.014161  0  2.152461  0  0  1.065874  0  2.084874  0  0  0.683535  0.975135  0  2.202101  0
H  H2  1  0.26731221  0.33349255  0.09308093  1  0  0.13707  0  0.945414  0  0  0.142908  0  1.011088  0  0  0.147217  0  1.007214  0  0  0.118441  0.139622  0  1.014001  0
H  H3  1  0.73268638  0.66650685  0.90691173  1  0  0.137071  0  0.945415  0  0  0.142914  0  1.011081  0  0  0.147224  0  1.007201  0  0  0.118437  0.139623  0  1.014004  0
H  H4  1  0.30434049  0.92539496  0.17145601  1  0  0.125167  0  0.930851  0  0  0.133833  0  0.991707  0  0  0.137922  0  0.988493  0  0  0.118173  0.13049  0  0.994458  0
H  H5  1  0.69566359  0.07461542  0.82855113  1  0  0.125147  0  0.93086  0  0  0.133835  0  0.991696  0  0  0.137924  0  0.988483  0  0  0.11818  0.130493  0  0.994447  0
H  H6  1  0.19908841  0.94265269  0.82640877  1  0  0.096102  0  0.964416  0  0  0.10111  0  1.038926  0  0  0.104969  0  1.03485  0  0  0.101859  0.098212  0  1.042177  0
H  H7  1  0.80092022  0.05734219  0.17359564  1  0  0.096121  0  0.96439  0  0  0.101128  0  1.038912  0  0  0.104987  0  1.034837  0  0  0.101847  0.09823  0  1.042166  0
H  H8  1  0.56560186  0.13902553  0.30274059  1  0  0.116597  0  0.911721  0  0  0.126678  0  0.968372  0  0  0.12983  0  0.965353  0  0  0.142422  0.12431  0  0.970718  0
H  H9  1  0.43439557  0.86098270  0.69725693  1  0  0.116578  0  0.911691  0  0  0.126678  0  0.968346  0  0  0.12983  0  0.965328  0  0  0.142418  0.124309  0  0.970695  0
H  H10  1  0.58271015  0.25341675  0.51250670  1  0  0.134988  0  0.914245  0  0  0.147599  0  0.962709  0  0  0.151855  0  0.960957  0  0  0.128056  0.144427  0  0.964431  0
H  H11  1  0.41728260  0.74657935  0.48749324  1  0  0.135009  0  0.914319  0  0  0.147618  0  0.962774  0  0  0.151872  0  0.961024  0  0  0.128069  0.144445  0  0.964495  0
H  H12  1  0.04516498  0.40065936  0.43470726  1  0  0.132574  0  0.937942  0  0  0.139725  0  0.998911  0  0  0.143899  0  0.99674  0  0  0.119776  0.136744  0  1.000619  0
H  H13  1  0.95483369  0.59934444  0.56529274  1  0  0.132503  0  0.937936  0  0  0.139691  0  0.998861  0  0  0.143864  0  0.996691  0  0  0.119769  0.136713  0  1.000571  0
H  H14  1  0.04515003  0.28121455  0.23094442  1  0  0.114299  0  0.993263  0  0  0.117831  0  1.060138  0  0  0.121661  0  1.056811  0  0  0.132217  0.115051  0  1.06243  0
H  H15  1  0.95484398  0.71879260  0.76905438  1  0  0.114383  0  0.993292  0  0  0.117891  0  1.060208  0  0  0.121717  0  1.056878  0  0  0.132222  0.11509  0  1.062524  0
H  H16  1  0.70311088  0.42427818  0.75612254  1  0  0.452398  0  0.836112  0  0  0.423591  0  0.894818  0  0  0.433943  0  0.879543  0  0  0.302864  0.416119  0  0.905846  0
H  H17  1  0.29688312  0.57572123  0.24387806  1  0  0.4524  0  0.83607  0  0  0.423596  0  0.894775  0  0  0.433949  0  0.879498  0  0  0.302849  0.416125  0  0.905803  0
H  H18  1  0.77342248  0.39445106  0.87411728  1  0  0.459953  0  0.833724  0  0  0.428239  0  0.8966  0  0  0.439496  0  0.8802  0  0  0.303558  0.420339  0  0.908113  0
H  H19  1  0.22657873  0.60555161  0.12588423  1  0  0.459962  0  0.833716  0  0  0.428244  0  0.896598  0  0  0.439503  0  0.880195  0  0  0.303541  0.420343  0  0.908112  0
C  C20  1  0.18750870  0.22336152  0.86293091  1  0  0.64489  0  3.933283  0  0  0.597302  0  4.224798  0  0  0.631147  0  4.219177  0  0  0.198304  0.574242  0  4.227522  0
C  C21  1  0.81248946  0.77662904  0.13706414  1  0  0.644759  0  3.933201  0  0  0.597203  0  4.224619  0  0  0.631048  0  4.218998  0  0  0.198355  0.574142  0  4.227341  0
C  C22  1  0.23135906  0.14518310  0.95089044  1  0  -0.028712  0  3.710118  0  0  -0.000994  0  3.938507  0  0  -0.00875  0  3.960352  0  0  -0.007134  0.003372  0  3.924975  0
C  C23  1  0.76864009  0.85481406  0.04910752  1  0  -0.02875  0  3.710167  0  0  -0.000942  0  3.938407  0  0  -0.008701  0  3.960257  0  0  -0.00712  0.003426  0  3.924874  0
C  C24  1  0.26469415  0.21720956  0.06592795  1  0  -0.105842  0  3.638208  0  0  -0.142443  0  3.891431  0  0  -0.140965  0  3.907967  0  0  -0.065905  -0.142268  0  3.879953  0
C  C25  1  0.73531140  0.78278868  0.93406884  1  0  -0.105856  0  3.638366  0  0  -0.1425  0  3.891509  0  0  -0.141023  0  3.908057  0  0  -0.065961  -0.142325  0  3.880034  0
C  C26  1  0.29091694  0.13660978  0.14347031  1  0  0.139372  0  3.747933  0  0  0.132363  0  4.011208  0  0  0.132929  0  4.034665  0  0  0.087171  0.131499  0  3.995039  0
C  C27  1  0.70909282  0.86339174  0.85652889  1  0  0.139281  0  3.748277  0  0  0.13233  0  4.011479  0  0  0.132892  0  4.03494  0  0  0.087175  0.131468  0  3.995308  0
C  C28  1  0.28988627  0.98866009  0.11035554  1  0  -0.122388  0  3.698532  0  0  -0.16208  0  3.958348  0  0  -0.161653  0  3.977438  0  0  -0.072438  -0.161007  0  3.944454  0
C  C29  1  0.71011942  0.01134256  0.88964533  1  0  -0.1224  0  3.69852  0  0  -0.162083  0  3.958345  0  0  -0.16166  0  3.977437  0  0  -0.072441  -0.161009  0  3.94445  0
C  C30  1  0.25806841  0.91787055  0.99499753  1  0  -0.065938  0  3.775065  0  0  -0.03549  0  4.003411  0  0  -0.045381  0  4.029564  0  0  -0.016153  -0.029205  0  3.985651  0
C  C31  1  0.74194577  0.08213093  0.00500429  1  0  -0.065699  0  3.774976  0  0  -0.03538  0  4.003508  0  0  -0.04526  0  4.029641  0  0  -0.01613  -0.029095  0  3.985757  0
C  C32  1  0.22771694  0.99638089  0.91650209  1  0  -0.064081  0  3.703158  0  0  -0.103748  0  3.953569  0  0  -0.102204  0  3.974632  0  0  -0.072863  -0.105584  0  3.941161  0
C  C33  1  0.77229237  0.00361952  0.08349851  1  0  -0.064167  0  3.703214  0  0  -0.103847  0  3.95368  0  0  -0.102305  0  3.974748  0  0  -0.072867  -0.105685  0  3.941273  0
C  C34  1  0.25063648  0.75717334  0.95920979  1  0  0.658957  0  3.906059  0  0  0.604746  0  4.201547  0  0  0.638313  0  4.196067  0  0  0.212469  0.581872  0  4.20438  0
C  C35  1  0.74937578  0.24282705  0.04079255  1  0  0.65893  0  3.906203  0  0  0.60474  0  4.201711  0  0  0.638306  0  4.196236  0  0  0.212451  0.581866  0  4.204541  0
C  C36  1  0.45474806  0.19683571  0.33806801  1  0  0.109172  0  3.564057  0  0  0.068386  0  3.814739  0  0  0.077271  0  3.828227  0  0  0.078613  0.062807  0  3.805524  0
C  C37  1  0.54525038  0.80317140  0.66193259  1  0  0.10911  0  3.563897  0  0  0.068255  0  3.814657  0  0  0.077133  0  3.828149  0  0  0.078547  0.062674  0  3.805445  0
C  C38  1  0.46153724  0.26010519  0.45206250  1  0  -0.105239  0  3.682622  0  0  -0.127666  0  3.930765  0  0  -0.13448  0  3.949944  0  0  -0.057862  -0.123586  0  3.918165  0
C  C39  1  0.53845443  0.73989202  0.54793759  1  0  -0.10526  0  3.682644  0  0  -0.127676  0  3.930782  0  0  -0.134483  0  3.94996  0  0  -0.05785  -0.12359  0  3.918177  0
C  C40  1  0.31266377  0.33366967  0.48961535  1  0  0.026568  0  3.674053  0  0  0.041155  0  3.909951  0  0  0.04244  0  3.927905  0  0  0.024555  0.040445  0  3.897637  0
C  C41  1  0.68732880  0.66632975  0.51038114  1  0  0.026538  0  3.674146  0  0  0.041152  0  3.909989  0  0  0.042431  0  3.927933  0  0  0.024566  0.040439  0  3.897676  0
C  C42  1  0.16255478  0.34339699  0.40965046  1  0  -0.090204  0  3.659113  0  0  -0.113966  0  3.906869  0  0  -0.119826  0  3.924127  0  0  -0.057944  -0.110452  0  3.895341  0
C  C43  1  0.83743736  0.65660134  0.59034661  1  0  -0.090108  0  3.659193  0  0  -0.113908  0  3.906928  0  0  -0.119767  0  3.924179  0  0  -0.057931  -0.1104  0  3.895402  0
C  C44  1  0.16164986  0.27962370  0.29658147  1  0  0.115297  0  3.546204  0  0  0.077972  0  3.790181  0  0  0.087333  0  3.802098  0  0  0.078469  0.072162  0  3.782019  0
C  C45  1  0.83834847  0.72037901  0.70341343  1  0  0.115141  0  3.546344  0  0  0.07782  0  3.790327  0  0  0.087193  0  3.802227  0  0  0.078456  0.072026  0  3.782183  0
C  C46  1  0.31508818  0.40185699  0.61381481  1  0  0.642027  0  3.946342  0  0  0.5911  0  4.247062  0  0  0.624357  0  4.239358  0  0  0.210492  0.568687  0  4.250967  0
C  C47  1  0.68489011  0.59814031  0.38618395  1  0  0.642257  0  3.94634  0  0  0.591355  0  4.246986  0  0  0.624615  0  4.239271  0  0  0.210479  0.568939  0  4.250894  0
N  N48  1  0.30518270  0.20675409  0.26243960  1  0  -0.009314  0  3.552924  0  0  0.079077  0  3.756066  0  0  0.067542  0  3.780147  0  0  -0.18073  0.08639  0  3.73984  0
N  N49  1  0.69482131  0.79325189  0.73755857  1  0  -0.0092  0  3.552886  0  0  0.079198  0  3.756021  0  0  0.067661  0  3.780102  0  0  -0.18072  0.086509  0  3.739792  0
O  O50  1  0.12814597  0.15134857  0.76281564  1  0  -0.620492  0  1.846872  0  0  -0.582714  0  2.046385  0  0  -0.605075  0  2.038543  0  0  -0.350297  -0.566316  0  2.050914  0
O  O51  1  0.87185301  0.84864419  0.23718067  1  0  -0.620445  0  1.846852  0  0  -0.582676  0  2.046341  0  0  -0.605037  0  2.038496  0  0  -0.350332  -0.566277  0  2.050869  0
O  O52  1  0.21214346  0.36379475  0.90377856  1  0  -0.655618  0  2.052775  0  0  -0.581566  0  2.327925  0  0  -0.612223  0  2.310922  0  0  -0.329421  -0.559765  0  2.340235  0
O  O53  1  0.78786044  0.63619908  0.09621571  1  0  -0.655495  0  2.052725  0  0  -0.581505  0  2.327914  0  0  -0.612154  0  2.310905  0  0  -0.329376  -0.5597  0  2.340217  0
O  O54  1  0.47592214  0.42487648  0.68005347  1  0  -0.619571  0  1.978413  0  0  -0.575072  0  2.205617  0  0  -0.59866  0  2.196099  0  0  -0.305145  -0.558328  0  2.211627  0
O  O55  1  0.52407391  0.57512069  0.31995249  1  0  -0.619575  0  1.978589  0  0  -0.57509  0  2.205776  0  0  -0.598674  0  2.196251  0  0  -0.305084  -0.558351  0  2.211789  0
O  O56  1  0.14535811  0.43214569  0.64034719  1  0  -0.651004  0  2.026555  0  0  -0.585025  0  2.295324  0  0  -0.614441  0  2.27904  0  0  -0.321046  -0.564122  0  2.305553  0
O  O57  1  0.85463632  0.56784708  0.35965463  1  0  -0.651138  0  2.026366  0  0  -0.585178  0  2.295136  0  0  -0.614591  0  2.278835  0  0  -0.321071  -0.564273  0  2.305371  0
O  O58  1  0.28372273  0.69264129  0.03214875  1  0  -0.596848  0  2.00457  0  0  -0.542796  0  2.226121  0  0  -0.566666  0  2.21711  0  0  -0.29709  -0.525641  0  2.232617  0
O  O59  1  0.71630238  0.30736562  0.96786103  1  0  -0.596803  0  2.004781  0  0  -0.542791  0  2.226393  0  0  -0.566644  0  2.217358  0  0  -0.297078  -0.525638  0  2.232888  0
O  O60  1  0.20934001  0.69522829  0.85122809  1  0  -0.685874  0  2.059897  0  0  -0.613524  0  2.338801  0  0  -0.644187  0  2.323982  0  0  -0.331477  -0.591384  0  2.348643  0
O  O61  1  0.79065838  0.30477107  0.14877757  1  0  -0.685902  0  2.059845  0  0  -0.613545  0  2.338763  0  0  -0.644216  0  2.323954  0  0  -0.331476  -0.591402  0  2.348596  0
O  O62  1  0.82140808  0.44518753  0.81498863  1  0  -0.871567  0  1.86631  0  0  -0.800703  0  2.076236  0  0  -0.823523  0  2.037491  0  0  -0.575502  -0.784282  0  2.103703  0
O  O63  1  0.17858678  0.55481409  0.18501080  1  0  -0.871545  0  1.866213  0  0  -0.800695  0  2.076143  0  0  -0.82351  0  2.037387  0  0  -0.57546  -0.784274  0  2.103607  0
