# generated using pymatgen
data_NdH6C7(NO4)2
_symmetry_space_group_name_H-M   'P 1'
_cell_length_a   6.27484045
_cell_length_b   7.24206102
_cell_length_c   13.48869099
_cell_angle_alpha   79.55095983
_cell_angle_beta   79.79986244
_cell_angle_gamma   57.16281803
_symmetry_Int_Tables_number   1
_chemical_formula_structural   NdH6C7(NO4)2
_chemical_formula_sum   'Nd2 H12 C14 N4 O16'
_cell_volume   504.17519595
_cell_formula_units_Z   2
loop_
 _symmetry_equiv_pos_site_id
 _symmetry_equiv_pos_as_xyz
  1  'x, y, z'
loop_
 _atom_site_type_symbol
 _atom_site_label
 _atom_site_symmetry_multiplicity
 _atom_site_fract_x
 _atom_site_fract_y
 _atom_site_fract_z
 _atom_site_occupancy
 _atom_site_pbe_bader_charge
 _atom_site_pbe_bader_spin_density
 _atom_site_pbe_cm5_charge
 _atom_site_pbe_ddec_charge
 _atom_site_pbe_ddec_spin_density
 _atom_site_pbe_ddec_sum_bond_order
 _atom_site_pbe_magmom
Nd  Nd0  1  0.81426395  0.61670288  0.22621087  1  2.226987  0  1.463609  1.98857  0  2.154658  0
Nd  Nd1  1  0.18571455  0.38332290  0.77379996  1  2.227129  0  1.463501  1.988458  0  2.15488  0
H  H2  1  0.34560741  0.03096736  0.03169523  1  0.151429  0  0.134666  0.10425  0  1.034112  0
H  H3  1  0.77436692  0.18133278  0.61149305  1  0.15812  0  0.131507  0.107092  0  1.013071  0
H  H4  1  0.45097605  0.07254323  0.32642866  1  0.630761  0  0.308681  0.407193  0  0.912162  0
H  H5  1  0.69979085  0.93303018  0.38509554  1  0.66342  0  0.300916  0.402421  0  0.932056  0
H  H6  1  0.49340073  0.42309217  0.22798832  1  0.608938  0  0.311615  0.402813  0  0.919015  0
H  H7  1  0.70762345  0.19253625  0.26782745  1  0.645911  0  0.303752  0.409386  0  0.907158  0
H  H8  1  0.65439794  0.96903653  0.96829240  1  0.151534  0  0.134609  0.104192  0  1.034058  0
H  H9  1  0.22561719  0.81869858  0.38851187  1  0.157982  0  0.131575  0.107187  0  1.013044  0
H  H10  1  0.54901406  0.92745760  0.67356971  1  0.630799  0  0.308648  0.407203  0  0.912168  0
H  H11  1  0.30020242  0.06696391  0.61490749  1  0.663417  0  0.300914  0.402362  0  0.932115  0
H  H12  1  0.50661110  0.57688117  0.77198370  1  0.609063  0  0.311543  0.402743  0  0.91915  0
H  H13  1  0.29242641  0.80746860  0.73216849  1  0.645916  0  0.303788  0.40944  0  0.907075  0
C  C14  1  0.20522041  0.81789963  0.18956592  1  1.616547  0  0.242545  0.603925  0  4.168185  0
C  C15  1  0.08831873  0.92144469  0.09111318  1  0.494859  0  0.143607  0.094158  0  3.912008  0
C  C16  1  0.19206435  0.01752288  0.01537165  1  0.560477  0  0.083852  0.090164  0  3.862681  0
C  C17  1  0.03444007  0.26364127  0.43813748  1  1.609599  0  0.221321  0.560991  0  4.236616  0
C  C18  1  0.75200903  0.38986723  0.47155146  1  0.494697  0  0.132089  0.080203  0  3.92841  0
C  C19  1  0.65156921  0.32339968  0.56167114  1  0.552986  0  0.079288  0.094153  0  3.875827  0
C  C20  1  0.14036645  0.44013966  0.01274921  1  1.595087  0  0.204083  0.475302  0  4.285675  0
C  C21  1  0.79477895  0.18211255  0.81042528  1  1.616418  0  0.242656  0.604022  0  4.168063  0
C  C22  1  0.91170224  0.07854480  0.90886963  1  0.508935  0  0.143562  0.094118  0  3.912005  0
C  C23  1  0.80795627  0.98247075  0.98460899  1  0.54627  0  0.083961  0.090417  0  3.862766  0
C  C24  1  0.96553739  0.73635856  0.56186433  1  1.609533  0  0.221261  0.561072  0  4.236584  0
C  C25  1  0.24797789  0.61013395  0.52844260  1  0.494321  0  0.132116  0.080298  0  3.928414  0
C  C26  1  0.34841964  0.67660745  0.43832176  1  0.554314  0  0.079234  0.093888  0  3.876029  0
C  C27  1  0.85966691  0.55983498  0.98729527  1  1.5735  0  0.203496  0.474265  0  4.286646  0
N  N28  1  0.89572390  0.90239159  0.07583191  1  -1.19681  0  -0.315226  -0.285916  0  3.407356  0
N  N29  1  0.59891542  0.56591296  0.41008584  1  -1.200259  0  -0.350894  -0.313355  0  3.491111  0
N  N30  1  0.10429563  0.09760087  0.92414976  1  -1.197182  0  -0.315182  -0.28575  0  3.407051  0
N  N31  1  0.40107031  0.43410010  0.58990929  1  -1.201295  0  -0.350861  -0.313465  0  3.491149  0
O  O32  1  0.15113259  0.68149028  0.24266609  1  -1.178215  0  -0.371579  -0.630377  0  2.318792  0
O  O33  1  0.35813462  0.86318188  0.21198403  1  -1.181574  0  -0.37659  -0.60881  0  2.281706  0
O  O34  1  0.09929397  0.30564126  0.34472520  1  -1.189273  0  -0.375353  -0.624109  0  2.227615  0
O  O35  1  0.18556394  0.12528192  0.50103512  1  -1.184581  0  -0.301336  -0.535221  0  2.197671  0
O  O36  1  0.17837022  0.40897616  0.10508629  1  -1.173549  0  -0.377917  -0.580122  0  2.267926  0
O  O37  1  0.30918861  0.37939253  0.93856747  1  -1.17494  0  -0.369718  -0.58821  0  2.362677  0
O  O38  1  0.63912925  0.97218752  0.31636979  1  -1.26887  0  -0.597212  -0.82647  0  2.070225  0
O  O39  1  0.67744344  0.33753691  0.23509867  1  -1.25034  0  -0.62567  -0.827974  0  2.028422  0
O  O40  1  0.84886964  0.31851956  0.75732378  1  -1.17851  0  -0.371639  -0.630432  0  2.319086  0
O  O41  1  0.64183300  0.13685379  0.78801546  1  -1.181465  0  -0.37665  -0.608901  0  2.281715  0
O  O42  1  0.90068218  0.69435487  0.65527509  1  -1.189407  0  -0.375295  -0.624126  0  2.227765  0
O  O43  1  0.81440443  0.87470989  0.49896953  1  -1.184639  0  -0.301323  -0.535285  0  2.197727  0
O  O44  1  0.82165780  0.59094733  0.89496433  1  -1.173934  0  -0.377337  -0.579408  0  2.268482  0
O  O45  1  0.69082353  0.62062144  0.06147276  1  -1.174648  0  -0.36979  -0.587961  0  2.362932  0
O  O46  1  0.36086217  0.02781341  0.68363373  1  -1.268973  0  -0.597133  -0.82638  0  2.070313  0
O  O47  1  0.32256418  0.66247239  0.76488634  1  -1.250486  0  -0.625689  -0.828012  0  2.028355  0
