# generated using pymatgen
data_Co2H12C20NO8
_symmetry_space_group_name_H-M   'P 1'
_cell_length_a   9.63059752
_cell_length_b   9.98062025
_cell_length_c   11.01465723
_cell_angle_alpha   67.19317090
_cell_angle_beta   77.39679067
_cell_angle_gamma   66.58991627
_symmetry_Int_Tables_number   1
_chemical_formula_structural   Co2H12C20NO8
_chemical_formula_sum   'Co4 H24 C40 N2 O16'
_cell_volume   893.02991643
_cell_formula_units_Z   2
loop_
 _symmetry_equiv_pos_site_id
 _symmetry_equiv_pos_as_xyz
  1  'x, y, z'
loop_
 _atom_site_type_symbol
 _atom_site_label
 _atom_site_symmetry_multiplicity
 _atom_site_fract_x
 _atom_site_fract_y
 _atom_site_fract_z
 _atom_site_occupancy
 _atom_site_hse06_10hf_ddec_charge
 _atom_site_hse06_10hf_ddec_spin_density
 _atom_site_hse06_10hf_ddec_sum_bond_order
 _atom_site_hse06_10hf_magmom
 _atom_site_hse06_ddec_charge
 _atom_site_hse06_ddec_spin_density
 _atom_site_hse06_ddec_sum_bond_order
 _atom_site_hse06_magmom
 _atom_site_pbe_cm5_charge
 _atom_site_pbe_ddec_charge
 _atom_site_pbe_ddec_spin_density
 _atom_site_pbe_ddec_sum_bond_order
 _atom_site_pbe_magmom
Co  Co0  1  0.12914443  0.04832897  0.89458149  1  0.914096  -1.077599  2.697422  -0.988  1.011199  -1.030515  2.592663  -0.954  0.589249  0.876439  -1.09407  2.748158  -0.995
Co  Co1  1  0.87581343  0.94878786  0.09828363  1  1.082741  2.909565  2.363328  2.669  1.150549  2.93301  2.293281  2.729  0.641063  1.015414  2.858587  2.430374  2.591
Co  Co2  1  0.91274280  0.03815981  0.74920916  1  0.928124  -2.766118  2.503882  -2.54  1.041121  -2.872571  2.394516  -2.657  0.642374  0.831594  -2.633756  2.589722  -2.405
Co  Co3  1  0.08262267  0.96792770  0.24752767  1  0.929849  2.77824  2.454534  2.557  1.039433  2.859157  2.351944  2.665  0.640965  0.831127  2.672069  2.542625  2.435
H  H4  1  0.08656594  0.51767912  0.89115255  1  0.124281  9.5e-05  1.012215  0.0  0.128138  0.000108  1.009246  0.0  0.111259  0.121968  4.9e-05  1.014139  0.0
H  H5  1  0.90799160  0.48122370  0.10827552  1  0.123544  0.000207  1.01317  0.0  0.12785  0.000112  1.009608  0.0  0.110068  0.12006  0.000325  1.016633  0.0
H  H6  1  0.54042866  0.17909686  0.90986940  1  0.142586  -0.000315  1.021211  0.0  0.147049  -0.000237  1.01726  0.0  0.114651  0.139706  -0.000362  1.022677  0.0
H  H7  1  0.45867692  0.82571864  0.08979153  1  0.144938  0.000245  1.023458  0.0  0.149284  0.00016  1.020036  0.0  0.114702  0.140981  0.000328  1.026751  0.0
H  H8  1  0.47298128  0.65878415  0.82721317  1  0.12826  7.1e-05  1.013645  0.0  0.130952  8.1e-05  1.012706  0.0  0.111828  0.12704  2.1e-05  1.013099  0.0
H  H9  1  0.51660669  0.34692761  0.17718851  1  0.127817  7.7e-05  1.011489  0.0  0.130549  3.9e-05  1.010555  0.0  0.111098  0.125932  0.000104  1.012267  0.0
H  H10  1  0.88425788  0.49062121  0.84419687  1  0.130111  0.000112  1.021049  0.0  0.134369  0.00011  1.018649  0.0  0.107373  0.12666  6.6e-05  1.023044  0.0
H  H11  1  0.10961301  0.51509103  0.16162794  1  0.134498  1e-05  1.021016  0.0  0.138571  -2.9e-05  1.018683  0.0  0.107977  0.131624  4.7e-05  1.022299  0.0
H  H12  1  0.98956144  0.66374589  0.64527278  1  0.11371  0.000109  1.007807  0.0  0.117056  8e-05  1.005285  0.0  0.105177  0.111587  0.000126  1.008975  0.0
H  H13  1  0.01400660  0.33311714  0.35978230  1  0.115452  -0.000128  1.004291  0.0  0.118666  -9.3e-05  1.001994  0.0  0.106572  0.113985  -0.000139  1.004575  0.0
H  H14  1  0.70045080  0.65528839  0.40265363  1  0.117541  -5.8e-05  0.994123  0.0  0.120721  -7.9e-05  0.992522  0.0  0.106927  0.115433  1e-06  0.994717  0.0
H  H15  1  0.30679161  0.34082272  0.59990850  1  0.116424  8.3e-05  0.994565  0.0  0.119607  5.5e-05  0.992929  0.0  0.106801  0.113797  4.7e-05  0.995541  0.0
H  H16  1  0.59280542  0.48554663  0.60178262  1  0.123019  1.8e-05  0.993338  0.0  0.125536  1.2e-05  0.993479  0.0  0.106868  0.121402  3.5e-05  0.992919  0.0
H  H17  1  0.40470135  0.51957820  0.40122093  1  0.124061  -3.7e-05  0.993394  0.0  0.12666  -2.7e-05  0.993439  0.0  0.107091  0.12288  -4e-05  0.99244  0.0
H  H18  1  0.85040607  0.13052625  0.48014573  1  0.09677  -0.000564  1.01349  -0.001  0.099965  -0.000457  1.010512  -0.001  0.118751  0.093942  -0.000671  1.016224  -0.001
H  H19  1  0.14848014  0.86942754  0.51728828  1  0.100078  0.000582  1.015658  0.001  0.103078  0.000441  1.012866  0.001  0.120029  0.097033  0.000674  1.018554  0.001
H  H20  1  0.68197240  0.10250434  0.35867170  1  0.115835  -0.000332  1.057  0.0  0.118714  -0.000289  1.05686  0.0  0.108105  0.113367  -0.000407  1.057891  0.0
H  H21  1  0.31899490  0.89275118  0.64023166  1  0.116315  0.00026  1.050892  0.0  0.119148  0.000216  1.050797  0.0  0.108177  0.112099  0.000347  1.053998  0.0
H  H22  1  0.44672345  0.92983756  0.73519652  1  0.132806  -0.000211  1.016925  0.0  0.137498  -0.000114  1.013603  0.0  0.113737  0.127194  -0.000231  1.022303  0.0
H  H23  1  0.55397594  0.06844164  0.26428118  1  0.134375  5.1e-05  1.0182  0.0  0.138843  -3.4e-05  1.015121  0.0  0.113796  0.130187  8.6e-05  1.021993  0.0
H  H24  1  0.62653396  0.95849605  0.84081270  1  0.098115  -0.00091  1.020996  -0.001  0.101528  -0.0007  1.017519  -0.001  0.119642  0.093521  -0.001056  1.026442  -0.002
H  H25  1  0.37310877  0.04281562  0.15763482  1  0.096858  0.000794  1.025909  0.001  0.100447  0.000583  1.022206  0.001  0.119133  0.091743  0.000959  1.031572  0.002
H  H26  1  0.83031952  0.18988403  0.89910722  1  0.384798  -0.000819  0.952467  -0.001  0.395692  -0.000483  0.937561  -0.001  0.298386  0.379562  -0.001098  0.959229  -0.002
H  H27  1  0.17558562  0.82193403  0.09327796  1  0.381506  0.00141  0.959314  0.003  0.391603  0.000977  0.945598  0.002  0.29812  0.375064  0.001968  0.967229  0.004
C  C28  1  0.16899287  0.76937402  0.83676726  1  0.612294  0.000376  4.131697  0.001  0.655578  -0.001573  4.122907  -0.002  0.223059  0.581637  0.00254  4.135889  0.005
C  C29  1  0.82115733  0.23310232  0.16452412  1  0.618538  0.001631  4.152833  0.0  0.659081  0.00158  4.143303  0.0  0.219016  0.585568  -0.0012  4.162833  -0.005
C  C30  1  0.26883988  0.60474401  0.85822200  1  -0.013402  -0.001754  3.996976  -0.003  -0.022559  -0.001403  4.018311  -0.002  -0.012837  -0.007172  -0.001887  3.982775  -0.003
C  C31  1  0.72289870  0.39723995  0.14413378  1  -0.021277  0.003936  4.02341  0.006  -0.029751  0.002818  4.044572  0.004  -0.0177  -0.014411  0.004936  4.010503  0.007
C  C32  1  0.20881846  0.48829720  0.88523860  1  -0.116446  5.8e-05  3.9164  0.0  -0.113654  -0.000196  3.933619  0.0  -0.075578  -0.12016  0.000732  3.90638  0.001
C  C33  1  0.78559976  0.51153901  0.11466582  1  -0.117913  0.001031  3.936745  0.001  -0.115408  0.000569  3.95397  0.001  -0.077742  -0.122266  -0.000273  3.928232  0.0
C  C34  1  0.30681970  0.33493193  0.90542884  1  -0.012879  -0.000289  3.992229  0.0  -0.019854  -0.000386  4.013644  0.0  -0.012363  -0.008693  0.000132  3.976211  0.0
C  C35  1  0.69051778  0.66565742  0.09291732  1  -0.005251  0.001665  3.997184  0.002  -0.012762  0.001157  4.019632  0.001  -0.012348  -0.001013  0.002016  3.983548  0.003
C  C36  1  0.46500483  0.29850736  0.89470959  1  -0.198263  0.000118  3.903795  0.0  -0.197618  -0.000409  3.919456  0.0  -0.083167  -0.194014  0.000537  3.888289  0.001
C  C37  1  0.53205880  0.70554668  0.10578364  1  -0.19817  -0.000439  3.903996  -0.001  -0.197535  -0.000135  3.919796  0.0  -0.085979  -0.197587  -0.001135  3.894128  -0.001
C  C38  1  0.52208518  0.41704283  0.86239854  1  0.262177  -0.000363  4.05526  -0.001  0.268882  -0.000233  4.071581  0.0  0.085192  0.257697  -0.000474  4.040973  -0.001
C  C39  1  0.47214297  0.58853168  0.14026294  1  0.259356  0.000523  4.057039  0.001  0.266282  0.000386  4.073173  0.001  0.083728  0.253796  0.000769  4.046404  0.001
C  C40  1  0.42585817  0.56874043  0.84806653  1  -0.21236  0.001308  3.975431  0.001  -0.212005  0.000634  3.994119  0.001  -0.088673  -0.2079  0.00097  3.957716  0.001
C  C41  1  0.56557185  0.43585573  0.15511972  1  -0.206897  -0.001192  3.975702  -0.001  -0.207107  -0.000693  3.99485  -0.001  -0.088885  -0.205848  -0.001499  3.962086  -0.002
C  C42  1  0.25007804  0.20793070  0.92461466  1  0.559006  0.00094  4.183785  0.002  0.595048  0.000306  4.185024  0.001  0.199453  0.534626  0.001033  4.177722  0.002
C  C43  1  0.75991659  0.78395228  0.06965943  1  0.563054  -0.002177  4.216304  -0.005  0.597494  -0.00199  4.215018  -0.004  0.193227  0.539287  -0.002084  4.213268  -0.006
C  C44  1  0.73209970  0.48247571  0.73316446  1  0.264161  0.000267  4.033136  0.0  0.275052  0.000287  4.049299  0.0  0.083422  0.25447  -0.000513  4.024809  -0.001
C  C45  1  0.26397958  0.52280256  0.27127529  1  0.264693  0.000264  4.030508  0.0  0.275897  3e-05  4.046103  0.0  0.084672  0.257249  0.000619  4.018653  0.001
C  C46  1  0.84436025  0.52948029  0.74699904  1  -0.188711  0.000381  3.966459  0.0  -0.193829  0.000227  3.984024  0.0  -0.096514  -0.186027  0.000589  3.956819  0.001
C  C47  1  0.15326096  0.47369508  0.25773446  1  -0.189141  -0.000136  3.962411  0.0  -0.194537  -0.000126  3.980399  0.0  -0.094876  -0.185016  -9e-05  3.949012  0.0
C  C48  1  0.90358134  0.62390755  0.63568232  1  -0.052896  0.000442  3.95412  0.0  -0.050392  0.000425  3.973829  0.0  -0.074852  -0.054882  -5.1e-05  3.941376  0.0
C  C49  1  0.09920588  0.37429202  0.36883193  1  -0.057351  0.000231  3.953191  0.0  -0.054968  2.7e-05  3.973287  0.0  -0.075674  -0.05775  0.00034  3.938023  0.001
C  C50  1  0.85074505  0.67029763  0.51171786  1  -0.07003  0.003842  4.002622  0.006  -0.081893  0.00261  4.028235  0.004  -0.024776  -0.061115  0.005008  3.985662  0.007
C  C51  1  0.15577388  0.32478200  0.49193021  1  -0.066797  -0.001881  4.006954  -0.003  -0.078783  -0.001382  4.031488  -0.002  -0.02479  -0.059181  -0.001986  3.990606  -0.003
C  C52  1  0.73883844  0.61971022  0.50001763  1  -0.057766  0.00052  3.976293  0.001  -0.055441  0.000413  3.99643  0.001  -0.080683  -0.058753  5.3e-05  3.961869  0.0
C  C53  1  0.26575541  0.37787344  0.50336635  1  -0.059983  -9.2e-05  3.98156  0.0  -0.057036  -0.000187  4.000879  0.0  -0.079462  -0.061108  -5e-05  3.967969  0.0
C  C54  1  0.67902380  0.52588894  0.61020387  1  -0.207122  -4e-06  4.027644  0.0  -0.214474  -5.6e-05  4.049598  0.0  -0.101198  -0.202425  0.00035  4.013309  0.001
C  C55  1  0.32004589  0.47697311  0.39343618  1  -0.205724  -0.000236  4.028442  0.0  -0.213087  -0.00015  4.050067  0.0  -0.1008  -0.200416  -0.000387  4.012171  -0.001
C  C56  1  0.90774691  0.77377748  0.39075022  1  0.610657  0.00254  4.186745  0.001  0.650182  0.002272  4.181356  0.002  0.213791  0.579936  0.000541  4.189953  -0.002
C  C57  1  0.10080281  0.21727752  0.61071435  1  0.601068  0.000429  4.162626  0.001  0.643505  4.6e-05  4.157932  0.001  0.217993  0.571853  0.001576  4.163264  0.004
C  C58  1  0.76080963  0.08396583  0.53247460  1  0.103169  0.000123  3.937933  0.001  0.113033  -0.000539  3.954373  0.0  0.044806  0.094338  0.002462  3.930443  0.003
C  C59  1  0.23863312  0.91539341  0.46552827  1  0.100744  0.000572  3.936475  0.0  0.110097  0.000677  3.953671  0.0  0.042847  0.092457  -0.000365  3.929053  -0.001
C  C60  1  0.66497653  0.06909496  0.46545017  1  -0.164998  -0.002429  3.949065  -0.004  -0.171779  -0.001648  3.967099  -0.002  -0.082082  -0.161933  -0.003376  3.941864  -0.005
C  C61  1  0.33564192  0.92770706  0.53332554  1  -0.166774  0.002395  3.9465  0.004  -0.173206  0.001542  3.964837  0.002  -0.083252  -0.16537  0.003809  3.941672  0.005
C  C62  1  0.55046880  0.00838968  0.53480774  1  0.10462  0.002085  3.974422  0.003  0.111936  0.000652  3.9906  0.001  0.01174  0.096447  0.006039  3.968498  0.008
C  C63  1  0.45038163  0.98842874  0.46455582  1  0.109932  -0.00102  3.968378  -0.002  0.115798  -0.000361  3.985574  -0.001  0.015879  0.103398  -0.002478  3.961666  -0.004
C  C64  1  0.53648208  0.97006051  0.67290488  1  -0.145798  -0.002443  3.893374  -0.004  -0.150361  -0.001774  3.906305  -0.003  -0.072363  -0.145709  -0.003222  3.893333  -0.006
C  C65  1  0.46415927  0.02800878  0.32632103  1  -0.148832  0.002653  3.89158  0.004  -0.153723  0.001698  3.90577  0.003  -0.07272  -0.147936  0.003949  3.888742  0.006
C  C66  1  0.63699245  0.98694344  0.73402098  1  0.109392  0.000849  3.925861  0.001  0.12113  0.000337  3.939331  0.001  0.048206  0.097873  0.001649  3.924962  0.002
C  C67  1  0.36273257  0.01320547  0.26456937  1  0.108675  3.6e-05  3.933272  0.0  0.119843  -4.1e-05  3.94713  0.0  0.048785  0.098135  0.000316  3.931125  0.0
N  N68  1  0.74990454  0.04097331  0.66590638  1  -0.283774  -0.030115  3.65428  -0.036  -0.313714  -0.025468  3.663191  -0.029  -0.350929  -0.26471  -0.03227  3.65413  -0.04
N  N69  1  0.24894547  0.96038108  0.33198767  1  -0.280718  0.031303  3.637915  0.039  -0.31043  0.025502  3.64873  0.031  -0.347223  -0.260772  0.035215  3.635266  0.044
O  O70  1  0.67873528  0.38364699  0.84583170  1  -0.236578  -0.000114  2.581086  0.0  -0.255204  -0.000108  2.584413  0.0  -0.148412  -0.224131  -0.00013  2.579099  0.0
O  O71  1  0.31501773  0.62460164  0.15929198  1  -0.23903  0.00071  2.577244  0.001  -0.256965  0.000459  2.579705  0.001  -0.15085  -0.226606  0.000766  2.57544  0.001
O  O72  1  0.34356738  0.07402383  0.93041106  1  -0.551277  -0.0252  2.201674  -0.041  -0.58703  -0.020929  2.195718  -0.034  -0.295553  -0.518676  -0.027614  2.199456  -0.044
O  O73  1  0.67508577  0.91871210  0.07419213  1  -0.569704  0.033712  2.215308  0.056  -0.606427  0.024974  2.210538  0.042  -0.30904  -0.53743  0.04252  2.214333  0.069
O  O74  1  0.10595045  0.23747698  0.92673302  1  -0.525583  0.009869  2.267961  0.017  -0.577879  0.009399  2.26775  0.017  -0.297169  -0.486306  0.006232  2.262468  0.011
O  O75  1  0.90426551  0.74637595  0.05380387  1  -0.574502  0.031654  2.231035  0.053  -0.610402  0.024128  2.226081  0.04  -0.311901  -0.546223  0.038622  2.233517  0.064
O  O76  1  0.21885684  0.84870505  0.87283831  1  -0.552623  -0.001579  2.463979  -0.001  -0.594642  -0.001848  2.44653  0.0  -0.298638  -0.52454  -0.002932  2.472248  -0.004
O  O77  1  0.76993311  0.15207672  0.13364168  1  -0.584794  0.031186  2.403268  0.05  -0.616204  0.025106  2.385578  0.039  -0.3039  -0.561805  0.035657  2.421412  0.059
O  O78  1  0.04667258  0.82102565  0.78079126  1  -0.557435  -0.033163  2.377397  -0.049  -0.600544  -0.026889  2.360368  -0.038  -0.300914  -0.520711  -0.038735  2.387778  -0.059
O  O79  1  0.94753748  0.18307696  0.21552359  1  -0.567009  0.036555  2.356606  0.055  -0.610839  0.028741  2.340531  0.042  -0.310076  -0.531708  0.043811  2.369947  0.068
O  O80  1  0.01586578  0.81505881  0.39787010  1  -0.59797  0.040923  2.404523  0.062  -0.644269  0.031486  2.390968  0.046  -0.317562  -0.560206  0.048868  2.414341  0.075
O  O81  1  0.98750131  0.18537226  0.60205128  1  -0.587332  -0.039255  2.422589  -0.059  -0.633996  -0.031422  2.407855  -0.046  -0.313828  -0.549416  -0.045425  2.431626  -0.069
O  O82  1  0.84424405  0.81680871  0.28596175  1  -0.597582  0.028969  2.465758  0.043  -0.632515  0.02306  2.455608  0.033  -0.303658  -0.567865  0.036767  2.472114  0.057
O  O83  1  0.17259002  0.16225973  0.71402538  1  -0.555168  -3e-06  2.51162  0.001  -0.601354  -0.000676  2.504282  0.0  -0.291481  -0.524047  -0.002768  2.512449  -0.005
O  O84  1  0.89572425  0.08264617  0.90603134  1  -0.905295  -0.050631  2.480399  -0.079  -0.969819  -0.04126  2.436979  -0.063  -0.556829  -0.844084  -0.047976  2.50188  -0.072
O  O85  1  0.10488180  0.92829719  0.08462036  1  -0.87889  0.075582  2.489134  0.112  -0.94867  0.060819  2.45399  0.087  -0.54846  -0.824186  0.08549  2.510935  0.128
