# generated using pymatgen
data_ZnH23C25(NO3)2
_symmetry_space_group_name_H-M   'P 1'
_cell_length_a   9.95927461
_cell_length_b   10.87986215
_cell_length_c   11.86823170
_cell_angle_alpha   83.38575553
_cell_angle_beta   77.41064574
_cell_angle_gamma   65.06740186
_symmetry_Int_Tables_number   1
_chemical_formula_structural   ZnH23C25(NO3)2
_chemical_formula_sum   'Zn2 H46 C50 N4 O12'
_cell_volume   1137.70826592
_cell_formula_units_Z   2
loop_
 _symmetry_equiv_pos_site_id
 _symmetry_equiv_pos_as_xyz
  1  'x, y, z'
loop_
 _atom_site_type_symbol
 _atom_site_label
 _atom_site_symmetry_multiplicity
 _atom_site_fract_x
 _atom_site_fract_y
 _atom_site_fract_z
 _atom_site_occupancy
 _atom_site_hle17_bader_spin_density
 _atom_site_hle17_ddec_charge
 _atom_site_hle17_ddec_spin_density
 _atom_site_hle17_ddec_sum_bond_order
 _atom_site_hle17_magmom
 _atom_site_hse06_10hf_bader_spin_density
 _atom_site_hse06_10hf_ddec_charge
 _atom_site_hse06_10hf_ddec_spin_density
 _atom_site_hse06_10hf_ddec_sum_bond_order
 _atom_site_hse06_10hf_magmom
 _atom_site_hse06_bader_spin_density
 _atom_site_hse06_ddec_charge
 _atom_site_hse06_ddec_spin_density
 _atom_site_hse06_ddec_sum_bond_order
 _atom_site_hse06_magmom
 _atom_site_pbe_bader_spin_density
 _atom_site_pbe_cm5_charge
 _atom_site_pbe_ddec_charge
 _atom_site_pbe_ddec_spin_density
 _atom_site_pbe_ddec_sum_bond_order
 _atom_site_pbe_magmom
Zn  Zn0  1  0.63545184  0.25263109  0.49632922  1  0  1.037275  0  1.792974  0  0  0.849445  0  2.249926  0  0  0.898788  0  2.194578  0  0  0.683729  0.813496  0  2.28904  0
Zn  Zn1  1  0.36454903  0.74736809  0.50367072  1  0  1.037301  0  1.792937  0  0  0.849485  0  2.249894  0  0  0.898804  0  2.194536  0  0  0.683731  0.81353  0  2.289011  0
H  H2  1  0.44469207  0.44763623  0.64781062  1  0  0.426748  0  0.877326  0  0  0.398102  0  0.937849  0  0  0.408472  0  0.922745  0  0  0.289344  0.390981  0  0.948227  0
H  H3  1  0.55530880  0.55236296  0.35218932  1  0  0.426747  0  0.877324  0  0  0.398101  0  0.937847  0  0  0.408471  0  0.922744  0  0  0.289342  0.39098  0  0.948226  0
H  H4  1  0.58415726  0.47680989  0.59683669  1  0  0.416692  0  0.887332  0  0  0.385378  0  0.95897  0  0  0.396218  0  0.94312  0  0  0.288291  0.377857  0  0.96989  0
H  H5  1  0.41584212  0.52319032  0.40316341  1  0  0.416692  0  0.887323  0  0  0.385373  0  0.958977  0  0  0.396214  0  0.943126  0  0  0.288284  0.377851  0  0.969899  0
H  H6  1  0.48618824  0.08310535  0.64231916  1  0  0.09472  0  0.977752  0  0  0.100479  0  1.04439  0  0  0.103793  0  1.041114  0  0  0.116092  0.097884  0  1.047243  0
H  H7  1  0.51381102  0.91689284  0.35768202  1  0  0.094716  0  0.977749  0  0  0.100513  0  1.044359  0  0  0.103827  0  1.041085  0  0  0.116077  0.09791  0  1.047215  0
H  H8  1  0.54501011  0.90421576  0.80031180  1  0  0.099927  0  0.961903  0  0  0.110816  0  1.022646  0  0  0.113075  0  1.024088  0  0  0.102532  0.10878  0  1.022797  0
H  H9  1  0.45499028  0.09578446  0.19969064  1  0  0.099914  0  0.961956  0  0  0.110809  0  1.022684  0  0  0.113068  0  1.024126  0  0  0.102522  0.108776  0  1.022831  0
H  H10  1  0.98638131  0.90788786  0.74798971  1  0  0.108843  0  0.956479  0  0  0.11793  0  1.018488  0  0  0.12011  0  1.020178  0  0  0.105394  0.115796  0  1.018723  0
H  H11  1  0.01361853  0.09211133  0.25201041  1  0  0.108814  0  0.956497  0  0  0.117913  0  1.018486  0  0  0.120093  0  1.020177  0  0  0.105389  0.11578  0  1.018722  0
H  H12  1  0.90645152  0.09005719  0.59685365  1  0  0.084842  0  0.941087  0  0  0.093335  0  1.005421  0  0  0.096023  0  1.002952  0  0  0.118323  0.091073  0  1.007713  0
H  H13  1  0.09354880  0.90994096  0.40314397  1  0  0.084829  0  0.941101  0  0  0.093321  0  1.005439  0  0  0.096016  0  1.002949  0  0  0.118316  0.091058  0  1.007727  0
H  H14  1  0.92818933  0.72484298  0.87245193  1  0  0.088716  0  0.922015  0  0  0.107556  0  0.976572  0  0  0.108438  0  0.976843  0  0  0.098269  0.106744  0  0.976658  0
H  H15  1  0.07181061  0.27515824  0.12754964  1  0  0.088698  0  0.92194  0  0  0.107553  0  0.976489  0  0  0.108435  0  0.97676  0  0  0.098263  0.106742  0  0.976575  0
H  H16  1  0.75052740  0.71986722  0.88356508  1  0  0.084724  0  0.936567  0  0  0.100341  0  0.998856  0  0  0.100856  0  1.000139  0  0  0.09591  0.099945  0  0.998043  0
H  H17  1  0.24947299  0.28013299  0.11643736  1  0  0.084708  0  0.936552  0  0  0.10033  0  0.998848  0  0  0.100844  0  1.00013  0  0  0.095909  0.099933  0  0.998034  0
H  H18  1  0.77924296  0.94613395  0.42760762  1  0  0.083747  0  0.959033  0  0  0.090313  0  1.025663  0  0  0.09309  0  1.023016  0  0  0.116391  0.088192  0  1.027789  0
H  H19  1  0.22075744  0.05386626  0.57239398  1  0  0.083778  0  0.95899  0  0  0.090339  0  1.025621  0  0  0.093116  0  1.022971  0  0  0.116386  0.088218  0  1.027747  0
H  H20  1  0.87332852  0.81436241  0.24865179  1  0  0.118973  0  0.963017  0  0  0.127418  0  1.023596  0  0  0.130829  0  1.022873  0  0  0.109744  0.124928  0  1.024416  0
H  H21  1  0.12667189  0.18563780  0.75134896  1  0  0.118977  0  0.963  0  0  0.12743  0  1.023564  0  0  0.130842  0  1.02284  0  0  0.109741  0.124939  0  1.024386  0
H  H22  1  0.70197604  0.19478795  0.05927406  1  0  0.096684  0  0.992943  0  0  0.106203  0  1.056071  0  0  0.108457  0  1.057082  0  0  0.099595  0.104763  0  1.055215  0
H  H23  1  0.29802482  0.80521124  0.94072672  1  0  0.096678  0  0.992956  0  0  0.106204  0  1.056071  0  0  0.108461  0  1.057084  0  0  0.099594  0.104763  0  1.055214  0
H  H24  1  0.62493243  0.31180857  0.24542266  1  0  0.091287  0  0.953369  0  0  0.097234  0  1.020144  0  0  0.099844  0  1.018029  0  0  0.116845  0.095179  0  1.02207  0
H  H25  1  0.37506752  0.68819264  0.75457807  1  0  0.091275  0  0.953386  0  0  0.097243  0  1.020141  0  0  0.099861  0  1.018025  0  0  0.116828  0.095186  0  1.022069  0
H  H26  1  0.86058156  0.99179038  0.95309708  1  0  0.067958  0  0.952972  0  0  0.085069  0  1.017638  0  0  0.086103  0  1.017905  0  0  0.088655  0.084449  0  1.017347  0
H  H27  1  0.13941839  0.00821084  0.04690448  1  0  0.067989  0  0.952983  0  0  0.085097  0  1.017641  0  0  0.086131  0  1.017909  0  0  0.088658  0.084477  0  1.017351  0
H  H28  1  0.96877952  0.84081434  0.02309368  1  0  0.084749  0  0.937107  0  0  0.100411  0  1.001075  0  0  0.101665  0  1.000726  0  0  0.096327  0.099614  0  1.001182  0
H  H29  1  0.03121986  0.15918587  0.97690726  1  0  0.084733  0  0.937125  0  0  0.100395  0  1.00109  0  0  0.10165  0  1.00074  0  0  0.096319  0.0996  0  1.001196  0
H  H30  1  0.63577430  0.92643803  0.01483180  1  0  0.058426  0  0.942832  0  0  0.076622  0  1.006022  0  0  0.077618  0  1.006268  0  0  0.086148  0.075953  0  1.005672  0
H  H31  1  0.36422610  0.07356218  0.98516980  1  0  0.058475  0  0.942821  0  0  0.076676  0  1.006  0  0  0.077671  0  1.006248  0  0  0.086174  0.076007  0  1.00565  0
H  H32  1  0.75647711  0.77286504  0.07312604  1  0  0.071843  0  0.922746  0  0  0.094873  0  0.974371  0  0  0.095262  0  0.975247  0  0  0.095293  0.094365  0  0.97405  0
H  H33  1  0.24352375  0.22713416  0.92687558  1  0  0.071812  0  0.922833  0  0  0.094874  0  0.974424  0  0  0.095263  0  0.975299  0  0  0.095283  0.094364  0  0.974102  0
H  H34  1  0.07606454  0.27080051  0.48886010  1  0  0.103992  0  0.952227  0  0  0.111018  0  1.021361  0  0  0.115282  0  1.017768  0  0  0.102285  0.107887  0  1.024102  0
H  H35  1  0.92393645  0.72920069  0.51113875  1  0  0.104008  0  0.952193  0  0  0.11103  0  1.021334  0  0  0.115298  0  1.017742  0  0  0.102268  0.1079  0  1.024075  0
H  H36  1  0.88188882  0.55935848  0.22711321  1  0  0.117318  0  0.94225  0  0  0.124796  0  1.007227  0  0  0.129956  0  1.002388  0  0  0.105893  0.120999  0  1.010747  0
H  H37  1  0.11810954  0.44064172  0.77288623  1  0  0.117319  0  0.942193  0  0  0.124786  0  1.007185  0  0  0.129947  0  1.002345  0  0  0.10589  0.120989  0  1.010704  0
H  H38  1  0.32210416  0.48856097  0.28540220  1  0  0.109613  0  1.00121  0  0  0.118237  0  1.068046  0  0  0.121604  0  1.065938  0  0  0.106682  0.115886  0  1.069466  0
H  H39  1  0.67789478  0.51144023  0.71459618  1  0  0.109639  0  1.001232  0  0  0.118257  0  1.068062  0  0  0.121624  0  1.065954  0  0  0.106684  0.115904  0  1.069484  0
H  H40  1  0.24621248  0.69111355  0.22923466  1  0  0.078194  0  0.935319  0  0  0.091116  0  1.000395  0  0  0.091908  0  0.999425  0  0  0.108641  0.090725  0  1.000606  0
H  H41  1  0.75378634  0.30888563  0.77076481  1  0  0.078157  0  0.935349  0  0  0.091091  0  1.000416  0  0  0.091884  0  0.999447  0  0  0.108633  0.090701  0  1.000627  0
H  H42  1  0.17861571  0.77877773  0.10383060  1  0  0.056781  0  0.945053  0  0  0.07031  0  1.014341  0  0  0.070905  0  1.013225  0  0  0.101861  0.069966  0  1.01502  0
H  H43  1  0.82138322  0.22122348  0.89616863  1  0  0.056794  0  0.94501  0  0  0.070329  0  1.014298  0  0  0.070926  0  1.01318  0  0  0.101868  0.069986  0  1.014977  0
H  H44  1  0.51096891  0.63358905  0.15131931  1  0  0.103953  0  0.950046  0  0  0.11765  0  1.004018  0  0  0.120883  0  1.002374  0  0  0.103334  0.115274  0  1.005354  0
H  H45  1  0.48903048  0.36641115  0.84867994  1  0  0.104004  0  0.950053  0  0  0.117681  0  1.004031  0  0  0.120914  0  1.002387  0  0  0.103357  0.115298  0  1.005376  0
H  H46  1  0.25309263  0.51229826  0.97530317  1  0  0.099789  0  0.939501  0  0  0.110761  0  0.996558  0  0  0.114478  0  0.994199  0  0  0.10298  0.108035  0  0.998378  0
H  H47  1  0.74690619  0.48770092  0.02469630  1  0  0.099821  0  0.939476  0  0  0.110781  0  0.996539  0  0  0.114497  0  0.994181  0  0  0.102981  0.108057  0  0.99836  0
C  C48  1  0.83090817  0.37814125  0.38160905  1  0  0.651385  0  3.908846  0  0  0.599553  0  4.203505  0  0  0.633718  0  4.195682  0  0  0.203793  0.576806  0  4.207302  0
C  C49  1  0.16909223  0.62185895  0.61839170  1  0  0.651376  0  3.908856  0  0  0.599521  0  4.203561  0  0  0.633685  0  4.195739  0  0  0.203772  0.576775  0  4.207357  0
C  C50  1  0.59385070  0.04243096  0.67147425  1  0  0.138376  0  3.683241  0  0  0.106176  0  3.931443  0  0  0.11439  0  3.94795  0  0  0.049167  0.101001  0  3.920246  0
C  C51  1  0.40615017  0.95756823  0.32852568  1  0  0.138428  0  3.683179  0  0  0.106189  0  3.931361  0  0  0.114402  0  3.947869  0  0  0.049199  0.101023  0  3.920158  0
C  C52  1  0.62831877  0.94362376  0.75853897  1  0  -0.16923  0  3.704572  0  0  -0.186865  0  3.9516  0  0  -0.195943  0  3.974328  0  0  -0.084693  -0.180841  0  3.936893  0
C  C53  1  0.37168061  0.05637645  0.24146197  1  0  -0.169304  0  3.704697  0  0  -0.186922  0  3.951756  0  0  -0.195999  0  3.974485  0  0  -0.084712  -0.1809  0  3.93705  0
C  C54  1  0.77009404  0.89253851  0.79001137  1  0  0.15756  0  3.715968  0  0  0.173727  0  3.951587  0  0  0.179196  0  3.974045  0  0  0.015784  0.170218  0  3.935882  0
C  C55  1  0.22990534  0.10746170  0.20998957  1  0  0.157574  0  3.71597  0  0  0.173684  0  3.951663  0  0  0.179149  0  3.974128  0  0  0.015767  0.170174  0  3.935962  0
C  C56  1  0.87268764  0.94558767  0.73011327  1  0  -0.173332  0  3.708438  0  0  -0.191665  0  3.95932  0  0  -0.200394  0  3.98208  0  0  -0.085482  -0.185932  0  3.944204  0
C  C57  1  0.12731220  0.05441152  0.26988769  1  0  -0.173261  0  3.708459  0  0  -0.191572  0  3.959335  0  0  -0.2003  0  3.982098  0  0  -0.085444  -0.185839  0  3.94422  0
C  C58  1  0.83028823  0.04551571  0.64471631  1  0  0.127013  0  3.701788  0  0  0.095186  0  3.953992  0  0  0.102711  0  3.972162  0  0  0.04662  0.090692  0  3.941114  0
C  C59  1  0.16971162  0.95448347  0.35528213  1  0  0.126965  0  3.701823  0  0  0.095127  0  3.954031  0  0  0.102653  0  3.972205  0  0  0.046569  0.090635  0  3.941151  0
C  C60  1  0.80613265  0.78772209  0.88600371  1  0  -0.165986  0  3.687098  0  0  -0.207807  0  3.93711  0  0  -0.209432  0  3.949522  0  0  -0.156802  -0.206464  0  3.928305  0
C  C61  1  0.19386821  0.21227710  0.11399707  1  0  -0.165935  0  3.687019  0  0  -0.207767  0  3.937083  0  0  -0.20939  0  3.94949  0  0  -0.156793  -0.206425  0  3.92828  0
C  C62  1  0.76880373  0.99819868  0.34378529  1  0  0.141353  0  3.700089  0  0  0.111292  0  3.952078  0  0  0.119003  0  3.969375  0  0  0.050409  0.106127  0  3.941069  0
C  C63  1  0.23119770  0.00180153  0.65621612  1  0  0.141325  0  3.700076  0  0  0.111302  0  3.952058  0  0  0.119018  0  3.969348  0  0  0.050463  0.106135  0  3.941049  0
C  C64  1  0.81906989  0.92459698  0.24325552  1  0  -0.174433  0  3.682059  0  0  -0.19124  0  3.926413  0  0  -0.200009  0  3.947859  0  0  -0.085993  -0.185956  0  3.913626  0
C  C65  1  0.18093051  0.07540323  0.75674607  1  0  -0.174518  0  3.68215  0  0  -0.191323  0  3.926497  0  0  -0.200094  0  3.947939  0  0  -0.08606  -0.186039  0  3.91371  0
C  C66  1  0.79962917  0.99337314  0.13674017  1  0  0.147018  0  3.741186  0  0  0.163283  0  3.979442  0  0  0.168697  0  4.001738  0  0  0.009444  0.159852  0  3.964935  0
C  C67  1  0.20037123  0.00662707  0.86326143  1  0  0.147123  0  3.741175  0  0  0.163365  0  3.979452  0  0  0.168784  0  4.001745  0  0  0.009483  0.159934  0  3.964944  0
C  C68  1  0.72484200  0.13501932  0.13844715  1  0  -0.197642  0  3.74137  0  0  -0.212162  0  3.985134  0  0  -0.220701  0  4.00667  0  0  -0.095949  -0.20688  0  3.971489  0
C  C69  1  0.27515737  0.86498088  0.86155379  1  0  -0.197664  0  3.741409  0  0  -0.212176  0  3.98516  0  0  -0.220723  0  4.006703  0  0  -0.095953  -0.206893  0  3.971511  0
C  C70  1  0.67904631  0.20163568  0.24212574  1  0  0.136289  0  3.708483  0  0  0.104716  0  3.959787  0  0  0.112491  0  3.976986  0  0  0.043528  0.099614  0  3.949021  0
C  C71  1  0.32095261  0.79836555  0.75787517  1  0  0.136321  0  3.708559  0  0  0.104746  0  3.959851  0  0  0.11251  0  3.977061  0  0  0.043541  0.099646  0  3.949081  0
C  C72  1  0.85402052  0.91991820  0.02510503  1  0  -0.159703  0  3.70116  0  0  -0.204245  0  3.95616  0  0  -0.205661  0  3.967766  0  0  -0.160291  -0.203063  0  3.947452  0
C  C73  1  0.14597943  0.08008302  0.97489654  1  0  -0.159744  0  3.701174  0  0  -0.204288  0  3.956203  0  0  -0.205708  0  3.967811  0  0  -0.160284  -0.203106  0  3.947497  0
C  C74  1  0.75392263  0.85185685  0.00573649  1  0  -0.083529  0  3.658053  0  0  -0.122418  0  3.916379  0  0  -0.123372  0  3.929872  0  0  -0.154476  -0.121425  0  3.90668  0
C  C75  1  0.24607674  0.14814336  0.99426529  1  0  -0.083557  0  3.658179  0  0  -0.122474  0  3.916513  0  0  -0.123426  0  3.930007  0  0  -0.154478  -0.121479  0  3.906812  0
C  C76  1  0.33729639  0.30560711  0.46041254  1  0  0.648598  0  3.906474  0  0  0.596647  0  4.20122  0  0  0.630355  0  4.19383  0  0  0.204328  0.573759  0  4.205575  0
C  C77  1  0.66270210  0.69439510  0.53958497  1  0  0.648548  0  3.906419  0  0  0.596603  0  4.201189  0  0  0.630307  0  4.193801  0  0  0.204319  0.573714  0  4.205545  0
C  C78  1  0.21044212  0.37500422  0.39503962  1  0  -0.043826  0  3.778454  0  0  -0.017739  0  4.01371  0  0  -0.024983  0  4.036795  0  0  -0.020764  -0.013472  0  3.999186  0
C  C79  1  0.78955832  0.62499596  0.60495692  1  0  -0.043706  0  3.778362  0  0  -0.017659  0  4.01366  0  0  -0.024904  0  4.036753  0  0  -0.020734  -0.013394  0  3.999137  0
C  C80  1  0.08387045  0.34493302  0.42098236  1  0  -0.082336  0  3.715592  0  0  -0.12365  0  3.970776  0  0  -0.122509  0  3.99074  0  0  -0.085967  -0.124788  0  3.958376  0
C  C81  1  0.91613100  0.65506716  0.57901567  1  0  -0.082433  0  3.71557  0  0  -0.123726  0  3.970793  0  0  -0.12259  0  3.990763  0  0  -0.085961  -0.124866  0  3.958396  0
C  C82  1  0.96676617  0.41070492  0.35926434  1  0  -0.052623  0  3.778422  0  0  -0.025998  0  4.01442  0  0  -0.033533  0  4.037951  0  0  -0.020456  -0.021273  0  3.998526  0
C  C83  1  0.03323471  0.58929425  0.64073476  1  0  -0.052552  0  3.778354  0  0  -0.025954  0  4.014398  0  0  -0.033489  0  4.037933  0  0  -0.020451  -0.021229  0  3.998502  0
C  C84  1  0.97493379  0.50814435  0.27342425  1  0  -0.170498  0  3.70842  0  0  -0.207706  0  3.964712  0  0  -0.208606  0  3.980354  0  0  -0.09337  -0.20623  0  3.953649  0
C  C85  1  0.02506514  0.49185686  0.72657497  1  0  -0.170532  0  3.708323  0  0  -0.207706  0  3.96465  0  0  -0.208612  0  3.980282  0  0  -0.0934  -0.206231  0  3.953585  0
C  C86  1  0.10198906  0.53764768  0.24747885  1  0  0.258482  0  3.825374  0  0  0.255066  0  4.087198  0  0  0.263514  0  4.103458  0  0  0.077347  0.248996  0  4.076132  0
C  C87  1  0.89800884  0.46235353  0.75252056  1  0  0.258524  0  3.825242  0  0  0.255054  0  4.08714  0  0  0.263525  0  4.10337  0  0  0.077353  0.248985  0  4.076069  0
C  C88  1  0.22071765  0.46967989  0.30677648  1  0  -0.193459  0  3.720425  0  0  -0.227829  0  3.967967  0  0  -0.229342  0  3.986257  0  0  -0.101964  -0.226786  0  3.955739  0
C  C89  1  0.77928129  0.53032130  0.69322106  1  0  -0.193556  0  3.720432  0  0  -0.227885  0  3.967998  0  0  -0.229406  0  3.986284  0  0  -0.101997  -0.226842  0  3.955769  0
C  C90  1  0.22332368  0.67774991  0.14577759  1  0  0.044592  0  3.650259  0  0  -0.022749  0  3.918202  0  0  -0.014356  0  3.922053  0  0  -0.06141  -0.028229  0  3.915197  0
C  C91  1  0.77667571  0.32225028  0.85422166  1  0  0.044598  0  3.65021  0  0  -0.022737  0  3.918237  0  0  -0.014343  0  3.922083  0  0  -0.061418  -0.028217  0  3.915231  0
C  C92  1  0.50594380  0.57653717  0.08369156  1  0  -0.11465  0  3.747903  0  0  -0.132533  0  3.991326  0  0  -0.135418  0  4.01297  0  0  -0.092826  -0.130579  0  3.976724  0
C  C93  1  0.49405456  0.42346302  0.91630703  1  0  -0.114701  0  3.747914  0  0  -0.132518  0  3.991388  0  0  -0.135404  0  4.013034  0  0  -0.092813  -0.130557  0  3.976787  0
C  C94  1  0.36600647  0.58385373  0.07120332  1  0  0.037091  0  3.77806  0  0  0.057809  0  4.017136  0  0  0.056228  0  4.042214  0  0  -0.022351  0.058761  0  4.000271  0
C  C95  1  0.63399144  0.41614747  0.92879441  1  0  0.037203  0  3.777924  0  0  0.05777  0  4.017217  0  0  0.056188  0  4.042291  0  0  -0.022379  0.058721  0  4.000348  0
C  C96  1  0.36137908  0.50647437  0.98676386  1  0  -0.103883  0  3.748352  0  0  -0.125715  0  3.99898  0  0  -0.12793  0  4.020216  0  0  -0.092132  -0.123944  0  3.984531  0
C  C97  1  0.63861929  0.49352582  0.01323389  1  0  -0.103985  0  3.748347  0  0  -0.125763  0  3.999034  0  0  -0.127977  0  4.020269  0  0  -0.092147  -0.123992  0  3.984585  0
N  N98  1  0.70214886  0.13445470  0.34362730  1  0  -0.338996  0  3.276215  0  0  -0.262472  0  3.546028  0  0  -0.281642  0  3.562292  0  0  -0.323067  -0.249312  0  3.535007  0
N  N99  1  0.29785258  0.86554550  0.65637242  1  0  -0.338994  0  3.276243  0  0  -0.262525  0  3.546083  0  0  -0.281689  0  3.562343  0  0  -0.323082  -0.249364  0  3.535061  0
N  N100  1  0.69306977  0.09366810  0.61579341  1  0  -0.330631  0  3.295081  0  0  -0.246337  0  3.567637  0  0  -0.266516  0  3.582543  0  0  -0.328085  -0.232286  0  3.556464  0
N  N101  1  0.30692905  0.90633109  0.38420606  1  0  -0.330613  0  3.294954  0  0  -0.246308  0  3.56751  0  0  -0.266483  0  3.58241  0  0  -0.328055  -0.232254  0  3.55633  0
O  O102  1  0.43376925  0.36069991  0.44642689  1  0  -0.688529  0  2.140925  0  0  -0.60105  0  2.401197  0  0  -0.631408  0  2.386693  0  0  -0.327076  -0.579503  0  2.410927  0
O  O103  1  0.56622969  0.63930130  0.55357149  1  0  -0.688517  0  2.14094  0  0  -0.601052  0  2.401233  0  0  -0.631402  0  2.386727  0  0  -0.327086  -0.579501  0  2.410956  0
O  O104  1  0.34643775  0.20235837  0.52165978  1  0  -0.600646  0  1.929659  0  0  -0.558421  0  2.15757  0  0  -0.580688  0  2.149848  0  0  -0.31404  -0.542469  0  2.162291  0
O  O105  1  0.65356521  0.79764077  0.47833473  1  0  -0.600614  0  1.929622  0  0  -0.558381  0  2.157531  0  0  -0.580641  0  2.149805  0  0  -0.313995  -0.542426  0  2.162249  0
O  O106  1  0.10157942  0.63557887  0.16269439  1  0  -0.298823  0  2.315329  0  0  -0.230055  0  2.550715  0  0  -0.247446  0  2.552582  0  0  -0.188986  -0.217724  0  2.549068  0
O  O107  1  0.89841894  0.36442133  0.83730504  1  0  -0.298856  0  2.315345  0  0  -0.230053  0  2.550739  0  0  -0.247453  0  2.552598  0  0  -0.188962  -0.21772  0  2.549088  0
O  O108  1  0.82575069  0.28890820  0.46167880  1  0  -0.647721  0  2.035589  0  0  -0.57802  0  2.302555  0  0  -0.606928  0  2.290446  0  0  -0.328739  -0.556758  0  2.309218  0
O  O109  1  0.17425065  0.71108997  0.53832033  1  0  -0.647768  0  2.035633  0  0  -0.578036  0  2.30259  0  0  -0.606938  0  2.290475  0  0  -0.328726  -0.556773  0  2.309251  0
O  O110  1  0.55705190  0.39980923  0.62954576  1  0  -0.832749  0  1.900271  0  0  -0.77501  0  2.108296  0  0  -0.796924  0  2.075106  0  0  -0.58584  -0.759959  0  2.131155  0
O  O111  1  0.44294851  0.60019097  0.37045415  1  0  -0.832745  0  1.900237  0  0  -0.775014  0  2.108288  0  0  -0.796925  0  2.075094  0  0  -0.585835  -0.759963  0  2.131151  0
O  O112  1  0.73191606  0.43754896  0.31979424  1  0  -0.650318  0  1.975662  0  0  -0.597165  0  2.202029  0  0  -0.620205  0  2.190502  0  0  -0.32821  -0.580708  0  2.209508  0
O  O113  1  0.26808481  0.56245023  0.68020570  1  0  -0.650315  0  1.975677  0  0  -0.597153  0  2.202058  0  0  -0.620194  0  2.190529  0  0  -0.328206  -0.580696  0  2.209532  0
