# generated using pymatgen
data_UH11C21O8
_symmetry_space_group_name_H-M   'P 1'
_cell_length_a   17.30889240
_cell_length_b   18.53050550
_cell_length_c   18.53014444
_cell_angle_alpha   120.00018330
_cell_angle_beta   89.99993374
_cell_angle_gamma   90.00013887
_symmetry_Int_Tables_number   1
_chemical_formula_structural   UH11C21O8
_chemical_formula_sum   'U6 H66 C126 O48'
_cell_volume   5147.13049379
_cell_formula_units_Z   6
loop_
 _symmetry_equiv_pos_site_id
 _symmetry_equiv_pos_as_xyz
  1  'x, y, z'
loop_
 _atom_site_type_symbol
 _atom_site_label
 _atom_site_symmetry_multiplicity
 _atom_site_fract_x
 _atom_site_fract_y
 _atom_site_fract_z
 _atom_site_occupancy
 _atom_site_pbe_bader_charge
 _atom_site_pbe_bader_spin_density
 _atom_site_pbe_cm5_charge
 _atom_site_pbe_ddec_charge
 _atom_site_pbe_ddec_spin_density
 _atom_site_pbe_ddec_sum_bond_order
 _atom_site_pbe_magmom
U  U0  1  0.75000027  0.65429991  0.07001241  1  2.911967  -0.003524  2.183072  2.368372  -0.010436  4.813698  -0.004
U  U1  1  0.74999979  0.41569088  0.34569513  1  2.9187  -0.003519  2.182982  2.368113  -0.010424  4.814291  -0.004
U  U2  1  0.74999973  0.93000587  0.58430591  1  2.903422  -0.003523  2.183085  2.368394  -0.010437  4.814128  -0.004
U  U3  1  0.24999943  0.34569730  0.41568437  1  2.918339  -0.003518  2.183025  2.368124  -0.010421  4.814255  -0.004
U  U4  1  0.25000000  0.58432068  0.93000182  1  2.902645  -0.003518  2.182814  2.36799  -0.010425  4.814224  -0.004
U  U5  1  0.24999951  0.06999791  0.65431177  1  2.912387  -0.003522  2.182949  2.368236  -0.010434  4.81447  -0.004
H  H6  1  0.46151589  0.52224989  0.26463202  1  0.07891  0.000425  0.1005  0.093649  0.000348  1.06212  0.0
H  H7  1  0.46151836  0.74236695  0.47773347  1  0.087977  0.00041  0.100506  0.093651  0.000349  1.062069  0.0
H  H8  1  0.46151906  0.73537477  0.25762393  1  0.098179  0.000411  0.100513  0.093707  0.000348  1.062076  0.0
H  H9  1  0.03848420  0.52225110  0.26463247  1  0.078904  0.000432  0.100497  0.09368  0.000354  1.062125  0.0
H  H10  1  0.03848435  0.74236638  0.47773462  1  0.087915  0.000416  0.100511  0.093705  0.000354  1.062027  0.0
H  H11  1  0.03848159  0.73537568  0.25762468  1  0.098188  0.000418  0.100525  0.094797  0.000347  1.060814  0.0
H  H12  1  0.53848291  0.47775099  0.74237926  1  0.087886  0.000414  0.100524  0.093717  0.000352  1.062108  0.0
H  H13  1  0.53848321  0.25763269  0.73536853  1  0.098294  0.000416  0.100513  0.093689  0.000353  1.062046  0.0
H  H14  1  0.53848219  0.26463260  0.52226268  1  0.078953  0.00043  0.100503  0.093709  0.000353  1.062062  0.0
H  H15  1  0.96151633  0.47775147  0.74237927  1  0.087893  0.00041  0.100536  0.093744  0.000349  1.062143  0.0
H  H16  1  0.96151721  0.25763386  0.73537110  1  0.098325  0.000411  0.100484  0.09365  0.000349  1.062117  0.0
H  H17  1  0.96151735  0.26463308  0.52226270  1  0.078922  0.000426  0.100508  0.093698  0.00035  1.06209  0.0
H  H18  1  0.24999991  0.58833229  0.16021634  1  0.106818  -0.000246  0.110537  0.111418  -0.000434  1.04172  0.0
H  H19  1  0.25000089  0.57186777  0.41165077  1  0.102929  -0.000246  0.110584  0.111419  -0.000434  1.042138  0.0
H  H20  1  0.25000007  0.83978756  0.42812339  1  0.096483  -0.000258  0.110586  0.111418  -0.000434  1.041864  0.0
H  H21  1  0.75000022  0.41167082  0.57187830  1  0.103156  -0.000246  0.110553  0.111343  -0.000434  1.04185  0.0
H  H22  1  0.75000008  0.42813371  0.83978955  1  0.096245  -0.000259  0.110548  0.111362  -0.000434  1.042066  0.0
H  H23  1  0.74999988  0.16021542  0.58834185  1  0.10656  -0.000246  0.110559  0.111336  -0.000434  1.041946  0.0
H  H24  1  0.46674930  0.62353939  0.06158095  1  0.145012  -0.000117  0.1214  0.137561  -0.000486  0.998411  0.0
H  H25  1  0.46675406  0.43803917  0.37646084  1  0.101335  -0.000119  0.12141  0.137583  -0.000486  0.998294  0.0
H  H26  1  0.46675171  0.93841669  0.56196559  1  0.170256  -0.000117  0.121377  0.137533  -0.000486  0.998455  0.0
H  H27  1  0.03325131  0.62353920  0.06158062  1  0.145007  -0.000112  0.121394  0.137546  -0.000482  0.998421  0.0
H  H28  1  0.03324625  0.43803867  0.37646082  1  0.101328  -0.000115  0.121408  0.137562  -0.000482  0.998318  0.0
H  H29  1  0.03324794  0.93841758  0.56196635  1  0.170239  -0.000114  0.12137  0.137537  -0.000483  0.998477  0.0
H  H30  1  0.53324693  0.37645305  0.43803648  1  0.101563  -0.000118  0.121382  0.137553  -0.000485  0.998374  0.0
H  H31  1  0.53324455  0.56196362  0.93841938  1  0.170068  -0.000116  0.121379  0.137571  -0.000485  0.998334  0.0
H  H32  1  0.53324699  0.06157858  0.62354107  1  0.144891  -0.000115  0.12137  0.13756  -0.000485  0.998355  0.0
H  H33  1  0.96675301  0.37645324  0.43803681  1  0.101578  -0.000116  0.121379  0.137563  -0.000483  0.99841  0.0
H  H34  1  0.96675525  0.56196443  0.93841909  1  0.17006  -0.000114  0.121369  0.137554  -0.000483  0.998353  0.0
H  H35  1  0.96675248  0.06157877  0.62354140  1  0.144886  -0.000114  0.121391  0.137568  -0.000483  0.998381  0.0
H  H36  1  0.58453424  0.57422491  0.23790942  1  0.143431  -4.1e-05  0.123403  0.136336  -0.000454  0.977059  0.0
H  H37  1  0.58453771  0.66367295  0.42577059  1  0.139733  -3.8e-05  0.123403  0.136378  -0.000454  0.977016  0.0
H  H38  1  0.58453616  0.76209907  0.33632179  1  0.133825  -4.1e-05  0.123402  0.136341  -0.000454  0.976997  0.0
H  H39  1  0.91546530  0.57422498  0.23790975  1  0.143429  -3.5e-05  0.123411  0.136337  -0.00045  0.977022  0.0
H  H40  1  0.91546530  0.66367424  0.42577401  1  0.139583  -3.3e-05  0.123411  0.136369  -0.00045  0.977042  0.0
H  H41  1  0.91546375  0.76210030  0.33632203  1  0.133767  -3.7e-05  0.123413  0.136348  -0.00045  0.976995  0.0
H  H42  1  0.41546520  0.42578109  0.66368340  1  0.139726  -3.4e-05  0.123382  0.13631  -0.000451  0.977115  0.0
H  H43  1  0.41546387  0.33632535  0.76209895  1  0.135305  -3.8e-05  0.123387  0.136337  -0.000451  0.977037  0.0
H  H44  1  0.41546443  0.23790159  0.57422838  1  0.143314  -3.7e-05  0.123409  0.136357  -0.000451  0.977008  0.0
H  H45  1  0.08453415  0.42578102  0.66368308  1  0.139747  -3.6e-05  0.123384  0.136339  -0.000453  0.977062  0.0
H  H46  1  0.08453570  0.33632659  0.76210056  1  0.135188  -4.1e-05  0.123416  0.136353  -0.000453  0.977045  0.0
H  H47  1  0.08453454  0.23790237  0.57422828  1  0.143244  -4e-05  0.123399  0.13635  -0.000453  0.977024  0.0
H  H48  1  0.34570218  0.56942106  0.08482792  1  0.136217  -0.000232  0.113836  0.120316  -0.000571  1.05057  0.0
H  H49  1  0.34570421  0.51540037  0.43056930  1  0.13957  -0.00024  0.113767  0.12019  -0.000571  1.050597  0.0
H  H50  1  0.34570354  0.91517274  0.48460325  1  0.124584  -0.000226  0.113791  0.120251  -0.000571  1.050644  0.0
H  H51  1  0.15429825  0.56942115  0.08482760  1  0.136204  -0.00023  0.113824  0.120296  -0.00057  1.050586  0.0
H  H52  1  0.15429681  0.51539908  0.43056822  1  0.139554  -0.000238  0.113762  0.120192  -0.000569  1.050616  0.0
H  H53  1  0.15429614  0.91517360  0.48460432  1  0.124555  -0.000225  0.113782  0.120232  -0.00057  1.050652  0.0
H  H54  1  0.65429456  0.43056832  0.51539748  1  0.139623  -0.000237  0.113794  0.120257  -0.00057  1.050635  0.0
H  H55  1  0.65429438  0.48460462  0.91517124  1  0.126042  -0.000225  0.113767  0.120187  -0.00057  1.050665  0.0
H  H56  1  0.65429523  0.08482854  0.56942781  1  0.139682  -0.00024  0.113758  0.120191  -0.00057  1.050589  0.0
H  H57  1  0.84570542  0.43056908  0.51539802  1  0.139628  -0.000238  0.113793  0.12028  -0.00057  1.050595  0.0
H  H58  1  0.84570524  0.48460569  0.91517148  1  0.126013  -0.000226  0.11376  0.120136  -0.00057  1.050706  0.0
H  H59  1  0.84570436  0.08482876  0.56942782  1  0.139653  -0.000241  0.113754  0.120183  -0.000571  1.050599  0.0
H  H60  1  0.37316641  0.43277660  0.23501693  1  0.140914  -0.000963  0.123057  0.12838  -0.00143  0.988204  -0.002
H  H61  1  0.37316957  0.80223404  0.56720517  1  0.156057  -0.001044  0.123003  0.128358  -0.001432  0.988015  -0.002
H  H62  1  0.37316455  0.76497248  0.19776038  1  0.131615  -0.000876  0.123026  0.128316  -0.00143  0.988104  -0.002
H  H63  1  0.12683291  0.43277685  0.23501746  1  0.140892  -0.000953  0.123045  0.128356  -0.001419  0.988206  -0.002
H  H64  1  0.12683030  0.80223322  0.56720462  1  0.156067  -0.001034  0.123009  0.128368  -0.001421  0.988013  -0.002
H  H65  1  0.12683510  0.76497220  0.19776037  1  0.131608  -0.000865  0.123015  0.128247  -0.001419  0.988226  -0.002
H  H66  1  0.62683353  0.56720640  0.80224011  1  0.154526  -0.001029  0.123025  0.128315  -0.001429  0.98813  -0.002
H  H67  1  0.62683134  0.19776940  0.76496860  1  0.131407  -0.000888  0.122988  0.128305  -0.00143  0.98799  -0.002
H  H68  1  0.62683217  0.23502868  0.43278905  1  0.137583  -0.000931  0.123013  0.128281  -0.00143  0.988088  -0.002
H  H69  1  0.87316587  0.56720785  0.80224004  1  0.154504  -0.00102  0.123026  0.128341  -0.00142  0.988064  -0.002
H  H70  1  0.87316657  0.19776969  0.76496860  1  0.13145  -0.00088  0.122999  0.128327  -0.001419  0.987971  -0.002
H  H71  1  0.87316914  0.23502896  0.43278906  1  0.137942  -0.000923  0.123049  0.128341  -0.00142  0.988136  -0.002
C  C72  1  0.39387155  0.54350902  0.17821463  1  -0.000802  0.062574  0.013866  0.085612  0.062013  3.939821  0.034
C  C73  1  0.39387439  0.63469703  0.45647866  1  -0.013519  0.062842  0.013902  0.085509  0.062001  3.939855  0.034
C  C74  1  0.39387353  0.82178848  0.36530051  1  -0.001597  0.062495  0.013808  0.085565  0.062028  3.939823  0.034
C  C75  1  0.10612870  0.54350923  0.17821516  1  -0.00084  0.062549  0.013868  0.085579  0.061983  3.93983  0.034
C  C76  1  0.10612692  0.63469577  0.45647959  1  -0.013286  0.062829  0.013889  0.085552  0.061981  3.939783  0.034
C  C77  1  0.10612664  0.82178954  0.36530127  1  -0.001599  0.062458  0.013803  0.085527  0.061986  3.940048  0.034
C  C78  1  0.60612564  0.45648554  0.63469952  1  -0.016821  0.062912  0.01383  0.085578  0.062054  3.939764  0.034
C  C79  1  0.60612540  0.36530635  0.82178557  1  -0.001819  0.062505  0.013818  0.085374  0.062054  3.939996  0.034
C  C80  1  0.60612591  0.17821567  0.54351707  1  0.002121  0.06256  0.013847  0.085466  0.062059  3.939826  0.034
C  C81  1  0.89387369  0.45648726  0.63470030  1  -0.016888  0.062801  0.013806  0.085562  0.06194  3.939736  0.034
C  C82  1  0.89387403  0.36530691  0.82178643  1  -0.001599  0.062404  0.013808  0.085416  0.061949  3.939842  0.034
C  C83  1  0.89387396  0.17821569  0.54351739  1  0.00189  0.062442  0.013808  0.085425  0.061939  3.93986  0.034
C  C84  1  0.32080906  0.51478173  0.19451548  1  -0.008939  0.046507  0.020452  0.094954  0.046362  3.944366  0.023
C  C85  1  0.32080967  0.67972437  0.48519835  1  -0.043984  0.046476  0.020352  0.09515  0.046363  3.944085  0.023
C  C86  1  0.32080936  0.80548348  0.32027279  1  0.001705  0.0466  0.020418  0.095025  0.046361  3.944294  0.023
C  C87  1  0.17919052  0.51478126  0.19451579  1  -0.008974  0.046502  0.020456  0.094992  0.046357  3.944315  0.023
C  C88  1  0.17919171  0.67972390  0.48519866  1  -0.044237  0.046481  0.020308  0.095042  0.046367  3.94391  0.023
C  C89  1  0.17919082  0.80548417  0.32027302  1  0.001738  0.046588  0.020422  0.095068  0.046347  3.944244  0.023
C  C90  1  0.67918983  0.48520926  0.67972686  1  -0.037975  0.046503  0.020391  0.094936  0.046382  3.944394  0.023
C  C91  1  0.67918953  0.32027984  0.80547850  1  0.002332  0.046639  0.020351  0.095047  0.046388  3.943968  0.023
C  C92  1  0.67919013  0.19452259  0.51479508  1  -0.011248  0.04657  0.020361  0.095085  0.046392  3.944059  0.023
C  C93  1  0.82081009  0.48520973  0.67972656  1  -0.037937  0.046454  0.020393  0.094935  0.046334  3.944414  0.023
C  C94  1  0.82080923  0.32028109  0.80547958  1  0.002132  0.046583  0.020334  0.094993  0.046331  3.943982  0.023
C  C95  1  0.82081040  0.19452276  0.51479508  1  -0.010973  0.046509  0.020358  0.095114  0.04633  3.94404  0.023
C  C96  1  0.46284243  0.54360372  0.21959134  1  -0.066144  0.048132  -0.072546  -0.107021  0.049225  3.924793  0.027
C  C97  1  0.46284361  0.67597669  0.45638386  1  -0.118769  0.048161  -0.072516  -0.106956  0.049225  3.924758  0.027
C  C98  1  0.46284325  0.78041203  0.32401879  1  -0.076485  0.048031  -0.072535  -0.107154  0.049224  3.924967  0.027
C  C99  1  0.03715719  0.54360462  0.21959209  1  -0.066056  0.048134  -0.072578  -0.107134  0.049224  3.92486  0.027
C  C100  1  0.03715780  0.67597689  0.45638640  1  -0.118695  0.048162  -0.07253  -0.107074  0.049224  3.924848  0.027
C  C101  1  0.03715628  0.78041270  0.32401870  1  -0.076467  0.048025  -0.072551  -0.107908  0.04922  3.924562  0.027
C  C102  1  0.53715759  0.45639372  0.67598519  1  -0.118907  0.048179  -0.072558  -0.107138  0.04924  3.92494  0.027
C  C103  1  0.53715678  0.32402330  0.78040921  1  -0.081863  0.048063  -0.0725  -0.106951  0.04924  3.92483  0.027
C  C104  1  0.53715679  0.21959113  0.54361232  1  -0.07048  0.048206  -0.072514  -0.107024  0.049237  3.924909  0.027
C  C105  1  0.96284168  0.45639390  0.67598552  1  -0.118902  0.048118  -0.072526  -0.107117  0.049176  3.924859  0.027
C  C106  1  0.96284318  0.32402425  0.78041092  1  -0.08184  0.048001  -0.07245  -0.106933  0.049173  3.924788  0.027
C  C107  1  0.96284261  0.21959162  0.54361233  1  -0.070461  0.048132  -0.0725  -0.106991  0.04916  3.924895  0.027
C  C108  1  0.53314457  0.60235646  0.14856433  1  -0.031126  0.09215  0.016026  0.021436  0.093195  3.882442  0.054
C  C109  1  0.53314838  0.54620190  0.39764266  1  -0.07609  0.092461  0.015961  0.02109  0.093178  3.88257  0.054
C  C110  1  0.53314643  0.85144037  0.45379929  1  -0.013181  0.092077  0.015996  0.021117  0.093207  3.8825  0.054
C  C111  1  0.96685516  0.60235665  0.14856466  1  -0.031134  0.092111  0.016023  0.021387  0.093151  3.882627  0.054
C  C112  1  0.96685262  0.54620263  0.39764353  1  -0.075779  0.092441  0.015952  0.021058  0.09315  3.882657  0.054
C  C113  1  0.96685414  0.85144002  0.45379908  1  -0.013162  0.092016  0.015982  0.021102  0.093141  3.882439  0.054
C  C114  1  0.46685443  0.39764408  0.54620512  1  -0.073033  0.092525  0.016054  0.021207  0.093255  3.882565  0.054
C  C115  1  0.46685316  0.45379855  0.85143927  1  -0.01398  0.092084  0.015995  0.02115  0.093248  3.882553  0.054
C  C116  1  0.46685292  0.14856004  0.60235894  1  -0.039032  0.092312  0.015996  0.021144  0.093259  3.882528  0.054
C  C117  1  0.03314499  0.39764443  0.54620533  1  -0.072808  0.092357  0.016035  0.021248  0.093084  3.882578  0.054
C  C118  1  0.03314776  0.45379944  0.85144002  1  -0.013843  0.091931  0.015972  0.021129  0.093088  3.882586  0.054
C  C119  1  0.03314637  0.14856039  0.60235915  1  -0.03837  0.092132  0.015969  0.021112  0.093073  3.882582  0.054
C  C120  1  0.24999984  0.54246640  0.18046922  1  -0.020469  -0.007905  -0.068535  -0.155001  -0.008596  3.874022  -0.006
C  C121  1  0.25000152  0.63799020  0.45751874  1  0.008686  -0.007928  -0.068435  -0.155147  -0.008597  3.873976  -0.006
C  C122  1  0.25000008  0.81953188  0.36200277  1  -0.041256  -0.007879  -0.068599  -0.155189  -0.008594  3.874076  -0.006
C  C123  1  0.74999966  0.45753236  0.63799823  1  0.002461  -0.007939  -0.068551  -0.154943  -0.008595  3.873923  -0.006
C  C124  1  0.75000000  0.36201239  0.81953205  1  -0.041717  -0.007891  -0.06839  -0.154931  -0.008597  3.873549  -0.006
C  C125  1  0.74999994  0.18047175  0.54247533  1  -0.015438  -0.00796  -0.068512  -0.155084  -0.008596  3.873784  -0.006
C  C126  1  0.46532223  0.60165002  0.10623004  1  -0.031582  0.003779  -0.06528  -0.084177  0.003903  3.914238  -0.001
C  C127  1  0.46532654  0.50457505  0.39834804  1  0.013954  0.003598  -0.06527  -0.084022  0.003909  3.91396  -0.001
C  C128  1  0.46532468  0.89377343  0.49542820  1  -0.053867  0.00368  -0.065235  -0.083999  0.003899  3.914147  -0.001
C  C129  1  0.03467769  0.60164984  0.10622972  1  -0.031569  0.003783  -0.065272  -0.084226  0.003904  3.914373  -0.001
C  C130  1  0.03467334  0.50457509  0.39834856  1  0.014008  0.003597  -0.065272  -0.083979  0.003908  3.914126  -0.001
C  C131  1  0.03467552  0.89377348  0.49542872  1  -0.053819  0.003687  -0.06522  -0.084013  0.003902  3.914153  -0.001
C  C132  1  0.53467509  0.39834372  0.50457387  1  0.013024  0.003576  -0.065281  -0.084044  0.003894  3.914235  -0.001
C  C133  1  0.53467324  0.49542794  0.89377203  1  -0.057628  0.003695  -0.065268  -0.084088  0.003894  3.914184  -0.001
C  C134  1  0.53467407  0.10622754  0.60165249  1  -0.034507  0.003658  -0.065249  -0.084051  0.003888  3.914272  -0.001
C  C135  1  0.96532425  0.39834391  0.50457420  1  0.012959  0.003589  -0.065275  -0.084075  0.003904  3.914194  -0.001
C  C136  1  0.96532702  0.49542812  0.89377236  1  -0.057837  0.003708  -0.065249  -0.084087  0.003906  3.914244  -0.001
C  C137  1  0.96532554  0.10622826  0.60165335  1  -0.03447  0.003669  -0.065272  -0.084026  0.003898  3.914149  -0.001
C  C138  1  0.60674725  0.63260871  0.13079675  1  1.552603  -0.001224  0.201263  0.536533  -0.001198  4.232765  -0.004
C  C139  1  0.60675097  0.49817948  0.36739036  1  1.552969  -0.001229  0.201186  0.536395  -0.001199  4.232766  -0.004
C  C140  1  0.60675137  0.86920871  0.50182019  1  1.557813  -0.001206  0.20119  0.536433  -0.001199  4.232712  -0.004
C  C141  1  0.89325258  0.63260765  0.13079600  1  1.552602  -0.001215  0.201271  0.536534  -0.001186  4.232758  -0.004
C  C142  1  0.89324879  0.49818066  0.36739060  1  1.552609  -0.00122  0.201254  0.536553  -0.001187  4.23255  -0.004
C  C143  1  0.89324804  0.86920904  0.50182020  1  1.557602  -0.001197  0.201229  0.536533  -0.001188  4.232552  -0.004
C  C144  1  0.39324832  0.36739470  0.49818647  1  1.549502  -0.001209  0.20126  0.536555  -0.001197  4.232612  -0.004
C  C145  1  0.39324769  0.50182044  0.86920633  1  1.556179  -0.001192  0.201216  0.536466  -0.001198  4.232648  -0.004
C  C146  1  0.39324909  0.13079082  0.63261344  1  1.553738  -0.001225  0.201171  0.536437  -0.001198  4.23263  -0.004
C  C147  1  0.10675108  0.36739491  0.49818700  1  1.549451  -0.001199  0.201185  0.536393  -0.001186  4.232712  -0.004
C  C148  1  0.10675218  0.50182042  0.86920601  1  1.556149  -0.001182  0.201276  0.536571  -0.001187  4.232567  -0.004
C  C149  1  0.10675011  0.13079111  0.63261281  1  1.553076  -0.001216  0.201195  0.53649  -0.001188  4.232647  -0.004
C  C150  1  0.53151816  0.57310719  0.20549432  1  -0.021571  -0.003147  -0.064176  -0.081767  -0.002995  3.913356  -0.005
C  C151  1  0.53152099  0.63237625  0.42688266  1  0.04836  -0.003276  -0.064285  -0.081837  -0.002989  3.913468  -0.005
C  C152  1  0.53152008  0.79450953  0.36762104  1  -0.036439  -0.002974  -0.064231  -0.081678  -0.00299  3.913361  -0.005
C  C153  1  0.96848200  0.57310769  0.20549433  1  -0.021584  -0.003131  -0.064193  -0.081769  -0.002982  3.913417  -0.005
C  C154  1  0.96848136  0.63237712  0.42688554  1  0.048553  -0.003261  -0.064256  -0.081784  -0.002977  3.91365  -0.005
C  C155  1  0.96847987  0.79451034  0.36762075  1  -0.036386  -0.00296  -0.064242  -0.081738  -0.002978  3.913751  -0.005
C  C156  1  0.46848075  0.42689085  0.63238462  1  0.048028  -0.003276  -0.064251  -0.081735  -0.00299  3.913496  -0.005
C  C157  1  0.46847999  0.36762296  0.79450798  1  -0.03287  -0.002975  -0.064287  -0.08182  -0.002993  3.913478  -0.005
C  C158  1  0.46848107  0.20549285  0.57311535  1  -0.020333  -0.003141  -0.064261  -0.081783  -0.002992  3.913415  -0.005
C  C159  1  0.03151864  0.42689066  0.63238430  1  0.047942  -0.003256  -0.064249  -0.081776  -0.002972  3.913396  -0.005
C  C160  1  0.03152020  0.36762323  0.79450936  1  -0.032822  -0.002957  -0.064283  -0.0818  -0.002974  3.913563  -0.005
C  C161  1  0.03151839  0.20549320  0.57311556  1  -0.020243  -0.003119  -0.064252  -0.081787  -0.00297  3.913439  -0.005
C  C162  1  0.39673431  0.57264974  0.12070999  1  -0.040753  0.034541  -0.068447  -0.108305  0.035579  3.903098  0.018
C  C163  1  0.39673583  0.54805481  0.42734282  1  0.00923  0.034301  -0.068421  -0.108198  0.035576  3.903019  0.018
C  C164  1  0.39673509  0.87929297  0.45194773  1  -0.030187  0.034775  -0.068401  -0.10818  0.03559  3.90295  0.018
C  C165  1  0.10326609  0.57265026  0.12071021  1  -0.040738  0.03454  -0.068444  -0.108304  0.035575  3.903124  0.018
C  C166  1  0.10326413  0.54805277  0.42734236  1  0.009289  0.034305  -0.068428  -0.108243  0.035579  3.903111  0.018
C  C167  1  0.10326570  0.87929286  0.45194857  1  -0.030226  0.034763  -0.068401  -0.108174  0.035575  3.903006  0.018
C  C168  1  0.60326354  0.42734430  0.54805289  1  0.011621  0.034313  -0.068407  -0.108258  0.035613  3.903103  0.018
C  C169  1  0.60326337  0.45194866  0.87928951  1  -0.026391  0.034795  -0.06837  -0.108093  0.035606  3.903175  0.018
C  C170  1  0.60326313  0.12070889  0.57265467  1  -0.033729  0.0346  -0.068385  -0.108175  0.035616  3.903052  0.018
C  C171  1  0.89673639  0.42734487  0.54805375  1  0.011568  0.034267  -0.068422  -0.108295  0.035566  3.903062  0.018
C  C172  1  0.89673680  0.45194953  0.87929006  1  -0.026251  0.034749  -0.068374  -0.10805  0.035558  3.903196  0.018
C  C173  1  0.89673598  0.12070999  0.57265607  1  -0.033771  0.034549  -0.068375  -0.108187  0.035564  3.902944  0.018
C  C174  1  0.31979388  0.45725316  0.22437968  1  -0.006218  0.177578  -0.02914  -0.056353  0.183468  3.765902  0.103
C  C175  1  0.31979640  0.76711681  0.54272710  1  -0.036513  0.177793  -0.02899  -0.056231  0.183454  3.765598  0.103
C  C176  1  0.31979371  0.77561684  0.23287831  1  0.003448  0.177387  -0.029067  -0.056186  0.183467  3.765732  0.103
C  C177  1  0.18020609  0.45725192  0.22437859  1  -0.006224  0.177597  -0.029108  -0.056299  0.183488  3.765866  0.103
C  C178  1  0.18020399  0.76711633  0.54272741  1  -0.036493  0.177811  -0.029031  -0.056246  0.183474  3.765609  0.103
C  C179  1  0.18020650  0.77561668  0.23287830  1  0.003464  0.177408  -0.029049  -0.056202  0.183491  3.765783  0.103
C  C180  1  0.68020435  0.54273340  0.76711968  1  -0.035942  0.177763  -0.02905  -0.056127  0.183434  3.765781  0.103
C  C181  1  0.68020395  0.23288855  0.77561414  1  0.006296  0.177368  -0.029083  -0.056191  0.183445  3.765675  0.103
C  C182  1  0.68020471  0.22438720  0.45726593  1  -0.008635  0.177574  -0.029015  -0.056096  0.18344  3.765692  0.103
C  C183  1  0.81979503  0.54273356  0.76711969  1  -0.03592  0.177781  -0.029048  -0.05617  0.183459  3.765792  0.103
C  C184  1  0.81979520  0.23288925  0.77561469  1  0.006104  0.177407  -0.02905  -0.056153  0.183489  3.765624  0.103
C  C185  1  0.81979654  0.22438736  0.45726593  1  -0.009008  0.177632  -0.029036  -0.056164  0.183506  3.765726  0.103
C  C186  1  0.25000023  0.42930751  0.23914656  1  -0.076652  -0.031155  -0.003271  -0.024427  -0.031491  3.959341  -0.027
C  C187  1  0.25000052  0.80982650  0.57067763  1  -0.036188  -0.031436  -0.003278  -0.024554  -0.03149  3.959088  -0.027
C  C188  1  0.25000011  0.76084859  0.19016378  1  -0.115452  -0.031186  -0.003244  -0.024591  -0.03149  3.95915  -0.027
C  C189  1  0.75000028  0.57068072  0.80983332  1  -0.034363  -0.031423  -0.003243  -0.024623  -0.031488  3.959226  -0.027
C  C190  1  0.74999982  0.19017810  0.76085171  1  -0.120409  -0.03118  -0.003087  -0.024524  -0.031489  3.959232  -0.027
C  C191  1  0.75000009  0.23915041  0.42931706  1  -0.065024  -0.031276  -0.003243  -0.02463  -0.031492  3.959164  -0.027
C  C192  1  0.24999956  0.37583774  0.27874895  1  1.565053  -0.002589  0.198867  0.537554  -0.003367  4.262613  -0.001
C  C193  1  0.25000003  0.90290088  0.62414429  1  1.560849  -0.002598  0.198814  0.537522  -0.003372  4.262664  -0.001
C  C194  1  0.25000012  0.72124354  0.09708869  1  1.604644  -0.002546  0.19883  0.537543  -0.003367  4.262069  -0.001
C  C195  1  0.75000202  0.62414558  0.90290781  1  1.559766  -0.002603  0.198702  0.537303  -0.003375  4.262624  -0.001
C  C196  1  0.75000030  0.09710354  0.72124173  1  1.605668  -0.002551  0.198665  0.537396  -0.003373  4.263051  -0.001
C  C197  1  0.75000017  0.27875795  0.37585038  1  1.565447  -0.002591  0.198742  0.537474  -0.00337  4.262426  -0.001
O  O198  1  0.60824133  0.64656663  0.06969398  1  -1.122095  0.022503  -0.33544  -0.552463  0.021756  2.200779  0.019
O  O199  1  0.60824260  0.42311807  0.35343539  1  -1.124184  0.022501  -0.335357  -0.552345  0.021755  2.200824  0.019
O  O200  1  0.60824370  0.93031179  0.57688375  1  -1.132896  0.0225  -0.335333  -0.552337  0.021762  2.200803  0.019
O  O201  1  0.89175918  0.64656556  0.06969322  1  -1.122114  0.022508  -0.335457  -0.552469  0.021759  2.200764  0.019
O  O202  1  0.89175756  0.42312010  0.35343586  1  -1.12415  0.022512  -0.33537  -0.552403  0.021763  2.200719  0.019
O  O203  1  0.89175577  0.93031266  0.57688430  1  -1.132668  0.0225  -0.335355  -0.552397  0.021761  2.200763  0.019
O  O204  1  0.39175490  0.35343316  0.42312169  1  -1.124266  0.022519  -0.335499  -0.55252  0.021771  2.200713  0.019
O  O205  1  0.39175661  0.57688323  0.93030855  1  -1.13277  0.022502  -0.335414  -0.552422  0.021763  2.200762  0.019
O  O206  1  0.39175728  0.06968587  0.64657106  1  -1.12252  0.02252  -0.335376  -0.5524  0.021771  2.200703  0.019
O  O207  1  0.10824398  0.35343314  0.42312137  1  -1.124281  0.022488  -0.335401  -0.552411  0.021741  2.200579  0.019
O  O208  1  0.10824396  0.57688430  0.93030931  1  -1.13279  0.022482  -0.335445  -0.552486  0.021743  2.200702  0.019
O  O209  1  0.10824116  0.06968562  0.64656989  1  -1.122542  0.022486  -0.335368  -0.552405  0.021738  2.200733  0.019
O  O210  1  0.75000016  0.54094370  0.00954599  1  -0.902895  0.007688  -0.767439  -0.721034  0.007253  1.862152  0.007
O  O211  1  0.75000036  0.46859953  0.45905073  1  -0.9061  0.007683  -0.767518  -0.721028  0.007249  1.862128  0.006
O  O212  1  0.74999984  0.99044643  0.53139353  1  -0.898206  0.007683  -0.767532  -0.721018  0.007248  1.862251  0.006
O  O213  1  0.25000013  0.45905333  0.46859562  1  -0.906092  0.007682  -0.767507  -0.721091  0.007248  1.862343  0.006
O  O214  1  0.24999990  0.53140141  0.99044181  1  -0.897788  0.007689  -0.767308  -0.720993  0.007254  1.861949  0.007
O  O215  1  0.25000008  0.00955390  0.54095267  1  -0.902728  0.007688  -0.767487  -0.721148  0.007253  1.862163  0.006
O  O216  1  0.75000095  0.76626675  0.12893678  1  -0.855953  0.004771  -0.758641  -0.679312  0.004748  1.727332  0.004
O  O217  1  0.75000094  0.36266079  0.23372921  1  -0.859591  0.004771  -0.758515  -0.679145  0.004747  1.727642  0.004
O  O218  1  0.74999962  0.87107627  0.63734463  1  -0.849219  0.004775  -0.758649  -0.679439  0.00475  1.727416  0.004
O  O219  1  0.24999990  0.23373438  0.36266760  1  -0.859409  0.004772  -0.758518  -0.679068  0.004747  1.727644  0.004
O  O220  1  0.25000011  0.63734242  0.87106325  1  -0.849097  0.004764  -0.758484  -0.678947  0.004739  1.727935  0.004
O  O221  1  0.24999778  0.12892548  0.76627531  1  -0.85631  0.004766  -0.758504  -0.679105  0.004743  1.72806  0.004
O  O222  1  0.66737676  0.64158790  0.17344948  1  -1.117182  0.008349  -0.324585  -0.541264  0.00775  2.142381  0.007
O  O223  1  0.66737708  0.53185257  0.35840584  1  -1.115897  0.008356  -0.32448  -0.541084  0.007757  2.142268  0.007
O  O224  1  0.66737855  0.82655450  0.46814550  1  -1.11442  0.008357  -0.324516  -0.54112  0.007758  2.142252  0.007
O  O225  1  0.83262304  0.64158809  0.17344948  1  -1.11718  0.008352  -0.324585  -0.541279  0.007749  2.14241  0.007
O  O226  1  0.83262278  0.53185284  0.35840469  1  -1.115933  0.008359  -0.324505  -0.54113  0.007756  2.142162  0.007
O  O227  1  0.83262136  0.82655469  0.46814550  1  -1.114425  0.008353  -0.324522  -0.541141  0.007751  2.142212  0.007
O  O228  1  0.33262338  0.35841472  0.53186193  1  -1.115868  0.008374  -0.32447  -0.541119  0.007773  2.142147  0.007
O  O229  1  0.33262450  0.46814409  0.82654574  1  -1.113508  0.008374  -0.324462  -0.541112  0.007773  2.142146  0.007
O  O230  1  0.33262250  0.17344833  0.64159934  1  -1.117605  0.008372  -0.324444  -0.541085  0.007771  2.14222  0.007
O  O231  1  0.16737595  0.35841453  0.53186192  1  -1.11578  0.008353  -0.324461  -0.541063  0.007752  2.142253  0.007
O  O232  1  0.16737476  0.46814498  0.82654681  1  -1.113484  0.008354  -0.324525  -0.541173  0.007753  2.142166  0.007
O  O233  1  0.16737680  0.17344768  0.64159763  1  -1.117584  0.008348  -0.324454  -0.541122  0.007748  2.142202  0.007
O  O234  1  0.31410183  0.35718106  0.29905781  1  -1.114113  0.025603  -0.321467  -0.542191  0.024659  2.165853  0.021
O  O235  1  0.31409833  0.94186889  0.64280382  1  -1.114907  0.025667  -0.321453  -0.542173  0.02472  2.165892  0.021
O  O236  1  0.31410069  0.70093382  0.05812107  1  -1.1131  0.0256  -0.321471  -0.542183  0.024654  2.165625  0.021
O  O237  1  0.18589837  0.35718038  0.29905727  1  -1.114107  0.025618  -0.321517  -0.5422  0.024674  2.16585  0.021
O  O238  1  0.18590122  0.94186851  0.64280297  1  -1.114921  0.025686  -0.321443  -0.542179  0.024739  2.165889  0.021
O  O239  1  0.18590069  0.70093260  0.05811998  1  -1.113081  0.025623  -0.321506  -0.542202  0.024677  2.165712  0.021
O  O240  1  0.68590202  0.64280730  0.94187750  1  -1.114415  0.0257  -0.321335  -0.54202  0.024751  2.165569  0.021
O  O241  1  0.68590142  0.05813449  0.70093294  1  -1.11343  0.025653  -0.321388  -0.542122  0.024707  2.165936  0.021
O  O242  1  0.68590079  0.29906837  0.35719156  1  -1.114262  0.025625  -0.321414  -0.542142  0.024679  2.165751  0.021
O  O243  1  0.81409971  0.64280915  0.94187796  1  -1.114321  0.025733  -0.321329  -0.541997  0.024785  2.165645  0.021
O  O244  1  0.81409795  0.05813464  0.70093294  1  -1.113437  0.025695  -0.321413  -0.542157  0.02475  2.166034  0.021
O  O245  1  0.81409905  0.29906821  0.35719187  1  -1.114263  0.025673  -0.321417  -0.542155  0.024729  2.165778  0.021
