# generated using pymatgen
data_ZnH14C14(NO3)2
_symmetry_space_group_name_H-M   'P 1'
_cell_length_a   8.00920899
_cell_length_b   11.93270963
_cell_length_c   15.72100000
_cell_angle_alpha   90.00000000
_cell_angle_beta   90.00000000
_cell_angle_gamma   90.00000000
_symmetry_Int_Tables_number   1
_chemical_formula_structural   ZnH14C14(NO3)2
_chemical_formula_sum   'Zn4 H56 C56 N8 O24'
_cell_volume   1502.48057839
_cell_formula_units_Z   4
loop_
 _symmetry_equiv_pos_site_id
 _symmetry_equiv_pos_as_xyz
  1  'x, y, z'
loop_
 _atom_site_type_symbol
 _atom_site_label
 _atom_site_symmetry_multiplicity
 _atom_site_fract_x
 _atom_site_fract_y
 _atom_site_fract_z
 _atom_site_occupancy
 _atom_site_hle17_bader_spin_density
 _atom_site_hle17_ddec_charge
 _atom_site_hle17_ddec_spin_density
 _atom_site_hle17_ddec_sum_bond_order
 _atom_site_hle17_magmom
 _atom_site_hse06_10hf_bader_spin_density
 _atom_site_hse06_10hf_ddec_charge
 _atom_site_hse06_10hf_ddec_spin_density
 _atom_site_hse06_10hf_ddec_sum_bond_order
 _atom_site_hse06_10hf_magmom
 _atom_site_hse06_bader_spin_density
 _atom_site_hse06_ddec_charge
 _atom_site_hse06_ddec_spin_density
 _atom_site_hse06_ddec_sum_bond_order
 _atom_site_hse06_magmom
 _atom_site_pbe_bader_charge
 _atom_site_pbe_bader_spin_density
 _atom_site_pbe_cm5_charge
 _atom_site_pbe_ddec_charge
 _atom_site_pbe_ddec_spin_density
 _atom_site_pbe_ddec_sum_bond_order
 _atom_site_pbe_magmom
Zn  Zn0  1  0.99999763  0.49999960  0.49999936  1  0  1.022686  0  1.806564  0  0  0.848051  0  2.243167  0  0  0.894312  0  2.192865  0  1.309861  0  0.665147  0.815647  0  2.277589  0
Zn  Zn1  1  0.50000069  0.49999960  0.00000000  1  0  1.022657  0  1.806485  0  0  0.848065  0  2.243086  0  0  0.894324  0  2.192789  0  1.309858  0  0.665157  0.815663  0  2.277509  0
Zn  Zn2  1  0.50000069  0.00000000  0.50000000  1  0  1.022667  0  1.806467  0  0  0.848042  0  2.243069  0  0  0.8943  0  2.192772  0  1.30986  0  0.665149  0.815638  0  2.277491  0
Zn  Zn3  1  0.00000125  0.00000000  0.00000000  1  0  1.022654  0  1.806459  0  0  0.848051  0  2.243055  0  0  0.894308  0  2.192761  0  1.309846  0  0.665149  0.815647  0  2.277477  0
H  H4  1  0.80656654  0.32736069  0.46969531  1  0  0.407829  0  0.905214  0  0  0.372681  0  0.977078  0  0  0.384106  0  0.960484  0  0.647764  0  0.283229  0.364632  0  0.988747  0
H  H5  1  0.69343427  0.67263935  0.96969531  1  0  0.407878  0  0.905157  0  0  0.372698  0  0.977069  0  0  0.384122  0  0.960478  0  0.647757  0  0.283242  0.36465  0  0.988736  0
H  H6  1  0.30656710  0.17263975  0.53030469  1  0  0.407887  0  0.905124  0  0  0.372685  0  0.977075  0  0  0.384109  0  0.960483  0  0.647765  0  0.283232  0.364637  0  0.988741  0
H  H7  1  0.19343358  0.82736112  0.03030469  1  0  0.407894  0  0.905132  0  0  0.37272  0  0.977036  0  0  0.384143  0  0.960445  0  0.647764  0  0.283253  0.364671  0  0.988704  0
H  H8  1  0.19343234  0.67263767  0.53030405  1  0  0.407852  0  0.905186  0  0  0.372668  0  0.977104  0  0  0.384092  0  0.960511  0  0.647801  0  0.283215  0.364621  0  0.988769  0
H  H9  1  0.30656585  0.32736069  0.03030469  1  0  0.407885  0  0.905147  0  0  0.372706  0  0.977057  0  0  0.38413  0  0.960466  0  0.647758  0  0.283244  0.364658  0  0.988724  0
H  H10  1  0.69343302  0.82736028  0.46969531  1  0  0.407897  0  0.905123  0  0  0.3727  0  0.977063  0  0  0.384125  0  0.960469  0  0.647751  0  0.283249  0.364652  0  0.988729  0
H  H11  1  0.80656654  0.17263891  0.96969531  1  0  0.407871  0  0.905154  0  0  0.372691  0  0.977067  0  0  0.384114  0  0.960477  0  0.647763  0  0.283236  0.364642  0  0.988734  0
H  H12  1  0.99281215  0.28255695  0.45707652  1  0  0.413857  0  0.895459  0  0  0.38053  0  0.96378  0  0  0.392095  0  0.947014  0  0.649105  0  0.285276  0.372365  0  0.975582  0
H  H13  1  0.50718866  0.71744392  0.95707716  1  0  0.413724  0  0.89565  0  0  0.380475  0  0.963854  0  0  0.392024  0  0.947096  0  0.649092  0  0.285243  0.37231  0  0.975657  0
H  H14  1  0.49281271  0.21744433  0.54292348  1  0  0.41367  0  0.895715  0  0  0.380459  0  0.963864  0  0  0.392009  0  0.947106  0  0.649089  0  0.285234  0.372294  0  0.975666  0
H  H15  1  0.00718798  0.78255571  0.04292284  1  0  0.413706  0  0.895668  0  0  0.380464  0  0.963862  0  0  0.392011  0  0.947105  0  0.649089  0  0.285235  0.372299  0  0.975663  0
H  H16  1  0.00718673  0.71744308  0.54292284  1  0  0.413852  0  0.895468  0  0  0.380529  0  0.963784  0  0  0.392094  0  0.947018  0  0.649102  0  0.285268  0.372364  0  0.975586  0
H  H17  1  0.49281146  0.28255611  0.04292348  1  0  0.413732  0  0.895637  0  0  0.380483  0  0.963842  0  0  0.392032  0  0.947085  0  0.649094  0  0.285246  0.372318  0  0.975644  0
H  H18  1  0.50718741  0.78255571  0.45707652  1  0  0.41383  0  0.895504  0  0  0.380507  0  0.963821  0  0  0.392071  0  0.947056  0  0.6491  0  0.285266  0.372342  0  0.975623  0
H  H19  1  0.99281215  0.21744433  0.95707716  1  0  0.413712  0  0.895659  0  0  0.380468  0  0.963853  0  0  0.392017  0  0.947096  0  0.64909  0  0.285236  0.372304  0  0.975654  0
H  H20  1  0.05327243  0.79119666  0.25331658  1  0  0.100296  0  0.954867  0  0  0.110935  0  1.013599  0  0  0.113701  0  1.013503  0  0.097948  0  0.105482  0.108934  0  1.013838  0
H  H21  1  0.44672576  0.20880337  0.75331722  1  0  0.100302  0  0.954856  0  0  0.110941  0  1.013589  0  0  0.113708  0  1.013493  0  0.097951  0  0.10549  0.10894  0  1.013828  0
H  H22  1  0.55327436  0.70880297  0.74668278  1  0  0.100307  0  0.95485  0  0  0.110946  0  1.013583  0  0  0.113713  0  1.013486  0  0.097954  0  0.10549  0.108945  0  1.013823  0
H  H23  1  0.94672645  0.29119706  0.24668278  1  0  0.100307  0  0.954851  0  0  0.110945  0  1.013586  0  0  0.113712  0  1.01349  0  0.09795  0  0.105488  0.108944  0  1.013826  0
H  H24  1  0.94672645  0.20880337  0.74668278  1  0  0.100313  0  0.954851  0  0  0.110951  0  1.013584  0  0  0.113718  0  1.013488  0  0.097953  0  0.105492  0.108951  0  1.013823  0
H  H25  1  0.55327311  0.79119666  0.24668342  1  0  0.100302  0  0.954861  0  0  0.110941  0  1.013594  0  0  0.113709  0  1.013496  0  0.097828  0  0.105486  0.108941  0  1.013833  0
H  H26  1  0.44672701  0.29119706  0.25331722  1  0  0.100303  0  0.954862  0  0  0.110941  0  1.013598  0  0  0.113708  0  1.013502  0  0.097949  0  0.105483  0.108941  0  1.013837  0
H  H27  1  0.05327243  0.70880381  0.75331658  1  0  0.100306  0  0.954869  0  0  0.110945  0  1.013599  0  0  0.113712  0  1.013506  0  0.097834  0  0.105486  0.108945  0  1.013839  0
H  H28  1  0.23712704  0.46095985  0.19152026  1  0  0.110353  0  0.946597  0  0  0.121247  0  1.004254  0  0  0.124141  0  1.004136  0  0.101622  0  0.10747  0.119137  0  1.004549  0
H  H29  1  0.26287490  0.53904018  0.69152026  1  0  0.110354  0  0.946623  0  0  0.121252  0  1.004276  0  0  0.124146  0  1.004157  0  0.101679  0  0.107463  0.119143  0  1.00457  0
H  H30  1  0.73712648  0.03904059  0.80847974  1  0  0.110356  0  0.946593  0  0  0.121249  0  1.00425  0  0  0.124142  0  1.004133  0  0.101671  0  0.107471  0.119139  0  1.004545  0
H  H31  1  0.76287434  0.96095944  0.30847974  1  0  0.110363  0  0.946578  0  0  0.121258  0  1.004233  0  0  0.124152  0  1.004116  0  0.101675  0  0.107478  0.119148  0  1.004528  0
H  H32  1  0.76287559  0.53904018  0.80847910  1  0  0.110347  0  0.946647  0  0  0.121245  0  1.004295  0  0  0.124139  0  1.004177  0  0.101692  0  0.107463  0.119135  0  1.00459  0
H  H33  1  0.73712648  0.46095985  0.30847974  1  0  0.110346  0  0.946615  0  0  0.121246  0  1.004265  0  0  0.12414  0  1.004148  0  0.101647  0  0.107465  0.119137  0  1.00456  0
H  H34  1  0.26287490  0.96095944  0.19152026  1  0  0.11036  0  0.9466  0  0  0.121257  0  1.004253  0  0  0.124151  0  1.004136  0  0.101678  0  0.107476  0.119148  0  1.004548  0
H  H35  1  0.23712704  0.03904059  0.69152026  1  0  0.110356  0  0.946583  0  0  0.121251  0  1.004242  0  0  0.124144  0  1.004125  0  0.101645  0  0.107476  0.119141  0  1.004537  0
H  H36  1  0.98843469  0.71956079  0.39978500  1  0  0.079505  0  0.967133  0  0  0.086731  0  1.032428  0  0  0.08933  0  1.030001  0  0.139484  0  0.116757  0.084772  0  1.034278  0
H  H37  1  0.51156488  0.28043924  0.89978436  1  0  0.079498  0  0.967117  0  0  0.086724  0  1.032412  0  0  0.08932  0  1.02999  0  0.139486  0  0.116756  0.084765  0  1.034262  0
H  H38  1  0.48843525  0.78043883  0.60021564  1  0  0.079512  0  0.967099  0  0  0.086741  0  1.032397  0  0  0.089339  0  1.029971  0  0.139493  0  0.116761  0.084783  0  1.034245  0
H  H39  1  0.01156544  0.21956120  0.10021564  1  0  0.079514  0  0.967102  0  0  0.08674  0  1.032401  0  0  0.089337  0  1.029977  0  0.139491  0  0.116761  0.08478  0  1.034251  0
H  H40  1  0.01156544  0.28043840  0.60021500  1  0  0.079498  0  0.967104  0  0  0.086721  0  1.032406  0  0  0.08932  0  1.029979  0  0.139477  0  0.116747  0.084763  0  1.034255  0
H  H41  1  0.48843525  0.71956079  0.10021564  1  0  0.079508  0  0.967111  0  0  0.086735  0  1.032403  0  0  0.089332  0  1.029979  0  0.139492  0  0.116761  0.084776  0  1.034253  0
H  H42  1  0.51156612  0.21956120  0.39978436  1  0  0.079502  0  0.967116  0  0  0.086736  0  1.032406  0  0  0.089333  0  1.029982  0  0.139489  0  0.11676  0.084776  0  1.034256  0
H  H43  1  0.98843594  0.78043967  0.89978436  1  0  0.079521  0  0.967108  0  0  0.086746  0  1.032407  0  0  0.089344  0  1.029982  0  0.139494  0  0.116768  0.084787  0  1.034257  0
H  H44  1  0.16235311  0.40260763  0.34065072  1  0  0.081661  0  0.937816  0  0  0.09108  0  0.999916  0  0  0.093356  0  0.998337  0  0.073545  0  0.117133  0.0894  0  1.00111  0
H  H45  1  0.33764882  0.59739156  0.84065072  1  0  0.081668  0  0.937817  0  0  0.091065  0  0.99994  0  0  0.09334  0  0.998363  0  0.073559  0  0.117123  0.089385  0  1.001131  0
H  H46  1  0.66235130  0.09739196  0.65934928  1  0  0.081667  0  0.937806  0  0  0.091089  0  0.999909  0  0  0.093363  0  0.998331  0  0.073557  0  0.117128  0.089408  0  1.001103  0
H  H47  1  0.83764951  0.90260807  0.15934928  1  0  0.081671  0  0.937809  0  0  0.091092  0  0.99991  0  0  0.093367  0  0.998332  0  0.073558  0  0.117128  0.089412  0  1.001102  0
H  H48  1  0.83764826  0.59739156  0.65934864  1  0  0.081663  0  0.937808  0  0  0.091083  0  0.999908  0  0  0.093359  0  0.998329  0  0.073551  0  0.117135  0.089403  0  1.001102  0
H  H49  1  0.66235255  0.40260847  0.15934928  1  0  0.081679  0  0.937806  0  0  0.091102  0  0.999897  0  0  0.093377  0  0.99832  0  0.073555  0  0.11714  0.089422  0  1.001091  0
H  H50  1  0.33764882  0.90260807  0.34065072  1  0  0.081672  0  0.937806  0  0  0.091093  0  0.999905  0  0  0.093368  0  0.998327  0  0.073558  0  0.117129  0.089413  0  1.001099  0
H  H51  1  0.16235311  0.09739196  0.84065072  1  0  0.081679  0  0.937796  0  0  0.091103  0  0.99989  0  0  0.093378  0  0.998313  0  0.073554  0  0.117142  0.089422  0  1.001084  0
H  H52  1  0.17952584  0.65924256  0.14710197  1  0  0.101416  0  0.968998  0  0  0.109424  0  1.033678  0  0  0.112271  0  1.03131  0  0.126488  0  0.107106  0.107204  0  1.035605  0
H  H53  1  0.32047360  0.34075747  0.64710260  1  0  0.101395  0  0.968983  0  0  0.109396  0  1.033675  0  0  0.112243  0  1.031307  0  0.126495  0  0.107091  0.107173  0  1.035606  0
H  H54  1  0.67952778  0.84075707  0.85289740  1  0  0.101396  0  0.968979  0  0  0.109403  0  1.033667  0  0  0.11225  0  1.031299  0  0.126493  0  0.107097  0.107182  0  1.035597  0
H  H55  1  0.82047428  0.15924296  0.35289740  1  0  0.101388  0  0.968987  0  0  0.109393  0  1.033677  0  0  0.11224  0  1.031307  0  0.126491  0  0.107089  0.107171  0  1.035606  0
H  H56  1  0.82047303  0.34075747  0.85289740  1  0  0.101409  0  0.968971  0  0  0.109414  0  1.033662  0  0  0.112261  0  1.031293  0  0.126453  0  0.107099  0.107192  0  1.035592  0
H  H57  1  0.67952653  0.65924256  0.35289740  1  0  0.101391  0  0.968982  0  0  0.109392  0  1.033675  0  0  0.11224  0  1.031304  0  0.126494  0  0.10709  0.107171  0  1.035604  0
H  H58  1  0.32047360  0.15924296  0.14710260  1  0  0.101396  0  0.968977  0  0  0.109403  0  1.033665  0  0  0.11225  0  1.031297  0  0.126495  0  0.107096  0.107182  0  1.035594  0
H  H59  1  0.17952584  0.84075707  0.64710197  1  0  0.101378  0  0.968992  0  0  0.109382  0  1.033684  0  0  0.112229  0  1.031315  0  0.126489  0  0.107092  0.107161  0  1.035613  0
C  C60  1  0.55238788  0.42057422  0.50660391  1  0  0.182364  0  3.869698  0  0  0.157327  0  4.147169  0  0  0.168999  0  4.160644  0  0.768925  0  0.09418  0.149514  0  4.13772  0
C  C61  1  0.94761043  0.57942749  0.00660263  1  0  0.182381  0  3.869622  0  0  0.157285  0  4.147104  0  0  0.168955  0  4.160579  0  0.769091  0  0.094167  0.149473  0  4.137656  0
C  C62  1  0.05238969  0.07942706  0.49339673  1  0  0.182357  0  3.869661  0  0  0.157258  0  4.147128  0  0  0.168928  0  4.160604  0  0.769094  0  0.094165  0.149447  0  4.13768  0
C  C63  1  0.44761099  0.92057297  0.99339737  1  0  0.182326  0  3.869588  0  0  0.157245  0  4.147074  0  0  0.168914  0  4.160553  0  0.769106  0  0.094165  0.149432  0  4.137626  0
C  C64  1  0.44760475  0.57942665  0.49339737  1  0  0.182534  0  3.869593  0  0  0.15741  0  4.147061  0  0  0.169081  0  4.160534  0  0.768982  0  0.0942  0.149598  0  4.137613  0
C  C65  1  0.05238969  0.42057338  0.99339737  1  0  0.182353  0  3.869669  0  0  0.157269  0  4.147134  0  0  0.168939  0  4.16061  0  0.76892  0  0.094167  0.149457  0  4.137687  0
C  C66  1  0.94761043  0.92057297  0.50660263  1  0  0.182357  0  3.869661  0  0  0.157259  0  4.147127  0  0  0.168929  0  4.160604  0  0.768914  0  0.094166  0.149447  0  4.137679  0
C  C67  1  0.55239038  0.07942706  0.00660327  1  0  0.182384  0  3.869595  0  0  0.157309  0  4.147057  0  0  0.168977  0  4.160535  0  0.769092  0  0.094183  0.149496  0  4.137609  0
C  C68  1  0.38062810  0.46541148  0.50692322  1  0  0.18562  0  3.885442  0  0  0.162908  0  4.168133  0  0  0.175832  0  4.180809  0  0.794944  0  0.092812  0.154162  0  4.15923  0
C  C69  1  0.11937009  0.53458772  0.00692386  1  0  0.185723  0  3.885466  0  0  0.16303  0  4.16815  0  0  0.175957  0  4.180826  0  0.794962  0  0.092869  0.154283  0  4.159248  0
C  C70  1  0.88063004  0.03458728  0.49307614  1  0  0.185809  0  3.88543  0  0  0.163103  0  4.168136  0  0  0.176031  0  4.18081  0  0.794957  0  0.09287  0.154355  0  4.159234  0
C  C71  1  0.61937203  0.96541275  0.99307550  1  0  0.185798  0  3.885477  0  0  0.163084  0  4.168183  0  0  0.176012  0  4.180861  0  0.794967  0  0.09288  0.154336  0  4.159282  0
C  C72  1  0.61936828  0.53458939  0.49307614  1  0  0.185575  0  3.885581  0  0  0.162923  0  4.168182  0  0  0.175849  0  4.180857  0  0.794982  0  0.09282  0.154177  0  4.159278  0
C  C73  1  0.88063004  0.46541315  0.99307614  1  0  0.18581  0  3.885429  0  0  0.1631  0  4.168131  0  0  0.176027  0  4.180807  0  0.79496  0  0.092872  0.154353  0  4.15923  0
C  C74  1  0.11937009  0.96541275  0.50692386  1  0  0.18576  0  3.885501  0  0  0.163068  0  4.168182  0  0  0.175998  0  4.180859  0  0.794961  0  0.092879  0.15432  0  4.15928  0
C  C75  1  0.38063060  0.03458728  0.00692577  1  0  0.185777  0  3.885475  0  0  0.163076  0  4.168168  0  0  0.176005  0  4.180847  0  0.79479  0  0.092879  0.154328  0  4.159267  0
C  C76  1  0.08019643  0.70451056  0.27032504  1  0  -0.12563  0  3.734738  0  0  -0.133156  0  3.977535  0  0  -0.140918  0  3.999473  0  -0.02631  0  -0.085342  -0.1282  0  3.962726  0
C  C77  1  0.41980425  0.29548947  0.77032504  1  0  -0.125641  0  3.734686  0  0  -0.133172  0  3.977487  0  0  -0.140934  0  3.999425  0  -0.026519  0  -0.085338  -0.128217  0  3.962678  0
C  C78  1  0.58019712  0.79548990  0.72967496  1  0  -0.1257  0  3.734783  0  0  -0.133231  0  3.977595  0  0  -0.140993  0  3.999533  0  -0.026312  0  -0.085381  -0.128275  0  3.962786  0
C  C79  1  0.91980369  0.20451013  0.22967496  1  0  -0.125679  0  3.73475  0  0  -0.133211  0  3.977554  0  0  -0.140973  0  3.999492  0  -0.02645  0  -0.085358  -0.128256  0  3.962746  0
C  C80  1  0.91980369  0.29548947  0.72967432  1  0  -0.125662  0  3.734686  0  0  -0.133189  0  3.977486  0  0  -0.140952  0  3.999424  0  -0.026528  0  -0.085337  -0.128234  0  3.962679  0
C  C81  1  0.58019712  0.70451056  0.22967496  1  0  -0.125666  0  3.734735  0  0  -0.133199  0  3.977535  0  0  -0.140961  0  3.999472  0  -0.026189  0  -0.085354  -0.128243  0  3.962725  0
C  C82  1  0.41980425  0.20451013  0.27032504  1  0  -0.125687  0  3.734762  0  0  -0.133221  0  3.977569  0  0  -0.140983  0  3.999507  0  -0.026452  0  -0.08536  -0.128265  0  3.962761  0
C  C83  1  0.08019643  0.79548990  0.77032504  1  0  -0.125659  0  3.734775  0  0  -0.133193  0  3.977577  0  0  -0.140955  0  3.999514  0  -0.026323  0  -0.085352  -0.128238  0  3.96277  0
C  C84  1  0.18107032  0.52056408  0.23574582  1  0  -0.132859  0  3.739819  0  0  -0.144734  0  3.991391  0  0  -0.153523  0  4.016018  0  -0.044703  0  -0.087441  -0.139093  0  3.97481  0
C  C85  1  0.31892912  0.47943511  0.73574518  1  0  -0.132877  0  3.739861  0  0  -0.144757  0  3.991437  0  0  -0.153546  0  4.016064  0  -0.044772  0  -0.087422  -0.139117  0  3.974855  0
C  C86  1  0.68107100  0.97943555  0.76425482  1  0  -0.132858  0  3.739812  0  0  -0.144738  0  3.991396  0  0  -0.153527  0  4.016023  0  -0.044773  0  -0.087406  -0.139097  0  3.974815  0
C  C87  1  0.81892981  0.02056448  0.26425482  1  0  -0.132876  0  3.739767  0  0  -0.14476  0  3.99135  0  0  -0.153549  0  4.015977  0  -0.044765  0  -0.087437  -0.139119  0  3.97477  0
C  C88  1  0.81892981  0.47943511  0.76425418  1  0  -0.132878  0  3.739836  0  0  -0.144757  0  3.991413  0  0  -0.153546  0  4.016041  0  -0.044769  0  -0.087438  -0.139115  0  3.974832  0
C  C89  1  0.68106975  0.52056408  0.26425482  1  0  -0.132846  0  3.739839  0  0  -0.144734  0  3.991416  0  0  -0.153523  0  4.016043  0  -0.044745  0  -0.087425  -0.139093  0  3.974835  0
C  C90  1  0.31893037  0.02056448  0.23574518  1  0  -0.132869  0  3.739825  0  0  -0.144754  0  3.991404  0  0  -0.153543  0  4.016033  0  -0.044771  0  -0.087427  -0.139113  0  3.974823  0
C  C91  1  0.18107032  0.97943555  0.73574518  1  0  -0.132844  0  3.739866  0  0  -0.144733  0  3.991449  0  0  -0.153522  0  4.016077  0  -0.04475  0  -0.087429  -0.139092  0  3.974867  0
C  C92  1  0.04380333  0.66528142  0.35165257  1  0  0.130497  0  3.698363  0  0  0.100226  0  3.946135  0  0  0.107484  0  3.963875  0  0.433247  0  0.048619  0.095595  0  3.934073  0
C  C93  1  0.45619611  0.33471861  0.85165320  1  0  0.130506  0  3.698351  0  0  0.100225  0  3.946114  0  0  0.107482  0  3.963857  0  0.433455  0  0.048607  0.095594  0  3.934053  0
C  C94  1  0.54380401  0.83471905  0.64834743  1  0  0.130515  0  3.698386  0  0  0.100211  0  3.946151  0  0  0.107467  0  3.963894  0  0.433245  0  0.048604  0.09558  0  3.934089  0
C  C95  1  0.95619555  0.16528098  0.14834743  1  0  0.130491  0  3.698375  0  0  0.100209  0  3.946135  0  0  0.107465  0  3.963881  0  0.43338  0  0.048605  0.095577  0  3.934075  0
C  C96  1  0.95619555  0.33471861  0.64834680  1  0  0.130554  0  3.698423  0  0  0.100265  0  3.946191  0  0  0.107523  0  3.963931  0  0.433453  0  0.048632  0.095633  0  3.93413  0
C  C97  1  0.54380401  0.66528142  0.14834743  1  0  0.130487  0  3.698349  0  0  0.100228  0  3.946113  0  0  0.107484  0  3.963856  0  0.433244  0  0.048618  0.095597  0  3.934052  0
C  C98  1  0.45619611  0.16528098  0.35165257  1  0  0.13049  0  3.698388  0  0  0.100206  0  3.946151  0  0  0.107463  0  3.963894  0  0.433379  0  0.048603  0.095576  0  3.93409  0
C  C99  1  0.04380458  0.83471905  0.85165257  1  0  0.130478  0  3.698383  0  0  0.100195  0  3.946145  0  0  0.107452  0  3.963889  0  0.433376  0  0.048599  0.095564  0  3.934085  0
C  C100  1  0.14074923  0.48789505  0.31830036  1  0  0.11776  0  3.715231  0  0  0.087099  0  3.966126  0  0  0.093586  0  3.985337  0  0.452454  0  0.044278  0.082988  0  3.953028  0
C  C101  1  0.35925271  0.51210498  0.81829973  1  0  0.117769  0  3.715199  0  0  0.08711  0  3.966091  0  0  0.093594  0  3.985304  0  0.45246  0  0.044278  0.082997  0  3.952995  0
C  C102  1  0.64074867  0.01210454  0.68170027  1  0  0.117791  0  3.715219  0  0  0.087103  0  3.966098  0  0  0.093589  0  3.985311  0  0.452456  0  0.044272  0.082989  0  3.953002  0
C  C103  1  0.85925214  0.98789549  0.18170027  1  0  0.117761  0  3.715206  0  0  0.087089  0  3.966087  0  0  0.093575  0  3.9853  0  0.452459  0  0.044276  0.082976  0  3.95299  0
C  C104  1  0.85925090  0.51210498  0.68169964  1  0  0.11781  0  3.715184  0  0  0.087127  0  3.966073  0  0  0.093613  0  3.985284  0  0.452454  0  0.044277  0.083014  0  3.952976  0
C  C105  1  0.64074867  0.48789505  0.18170027  1  0  0.117703  0  3.715205  0  0  0.087051  0  3.966093  0  0  0.093536  0  3.985305  0  0.452454  0  0.044257  0.082938  0  3.952996  0
C  C106  1  0.35925146  0.98789549  0.31829973  1  0  0.117762  0  3.715207  0  0  0.08709  0  3.966089  0  0  0.093576  0  3.985301  0  0.452457  0  0.044275  0.082977  0  3.952992  0
C  C107  1  0.14074923  0.01210454  0.81829973  1  0  0.117741  0  3.71521  0  0  0.08707  0  3.966092  0  0  0.093555  0  3.985306  0  0.452457  0  0.044261  0.082957  0  3.952995  0
C  C108  1  0.14969019  0.63106371  0.21118758  1  0  -0.002008  0  3.721053  0  0  -0.022599  0  3.968912  0  0  -0.019143  0  3.989167  0  -0.020428  0  -0.067481  -0.024479  0  3.955069  0
C  C109  1  0.35030925  0.36893632  0.71118758  1  0  -0.001942  0  3.721056  0  0  -0.022529  0  3.968926  0  0  -0.019073  0  3.989181  0  -0.020445  0  -0.067473  -0.024411  0  3.95509  0
C  C110  1  0.64969212  0.86893592  0.78881178  1  0  -0.00192  0  3.721078  0  0  -0.022504  0  3.968935  0  0  -0.019048  0  3.989189  0  -0.020444  0  -0.067473  -0.024384  0  3.955093  0
C  C111  1  0.85030994  0.13106411  0.28881242  1  0  -0.001916  0  3.721005  0  0  -0.022497  0  3.968862  0  0  -0.019041  0  3.989116  0  -0.020446  0  -0.067461  -0.024378  0  3.955022  0
C  C112  1  0.85030994  0.36893632  0.78881178  1  0  -0.001954  0  3.72094  0  0  -0.022543  0  3.9688  0  0  -0.019087  0  3.989055  0  -0.020384  0  -0.067471  -0.024423  0  3.954959  0
C  C113  1  0.64969087  0.63106371  0.28881242  1  0  -0.001931  0  3.720999  0  0  -0.022514  0  3.968866  0  0  -0.019058  0  3.989119  0  -0.020439  0  -0.067467  -0.024396  0  3.955029  0
C  C114  1  0.35030925  0.13106411  0.21118822  1  0  -0.001916  0  3.721023  0  0  -0.022495  0  3.968876  0  0  -0.01904  0  3.989132  0  -0.020442  0  -0.067464  -0.024378  0  3.95504  0
C  C115  1  0.14969019  0.86893676  0.71118758  1  0  -0.001941  0  3.721098  0  0  -0.02252  0  3.968947  0  0  -0.019063  0  3.989203  0  -0.020437  0  -0.067471  -0.024402  0  3.955111  0
N  N116  1  0.07257396  0.55864177  0.37531391  1  0  -0.330135  0  3.283288  0  0  -0.249873  0  3.542439  0  0  -0.269252  0  3.561036  0  -1.228929  0  -0.321525  -0.236839  0  3.529682  0
N  N117  1  0.42742548  0.44135826  0.87531328  1  0  -0.33018  0  3.283343  0  0  -0.249865  0  3.542414  0  0  -0.269244  0  3.561015  0  -1.228929  0  -0.321509  -0.236831  0  3.529657  0
N  N118  1  0.57257589  0.94135786  0.62468672  1  0  -0.330216  0  3.283393  0  0  -0.249863  0  3.542436  0  0  -0.269242  0  3.561036  0  -1.228913  0  -0.321492  -0.236828  0  3.52968  0
N  N119  1  0.92742492  0.05864217  0.12468672  1  0  -0.330179  0  3.283343  0  0  -0.249865  0  3.542414  0  0  -0.269245  0  3.561016  0  -1.228917  0  -0.321511  -0.236831  0  3.529657  0
N  N120  1  0.92742492  0.44135743  0.62468609  1  0  -0.330274  0  3.283417  0  0  -0.249953  0  3.542499  0  0  -0.269332  0  3.561095  0  -1.228934  0  -0.321547  -0.236918  0  3.529742  0
N  N121  1  0.57257465  0.55864177  0.12468609  1  0  -0.330116  0  3.283282  0  0  -0.249858  0  3.542418  0  0  -0.269238  0  3.561017  0  -1.228903  0  -0.32152  -0.236825  0  3.529663  0
N  N122  1  0.42742548  0.05864217  0.37531328  1  0  -0.330175  0  3.283333  0  0  -0.249861  0  3.542412  0  0  -0.269242  0  3.561014  0  -1.228934  0  -0.321509  -0.236828  0  3.529655  0
N  N123  1  0.07257521  0.94135786  0.87531328  1  0  -0.330168  0  3.283369  0  0  -0.24985  0  3.54243  0  0  -0.26923  0  3.561032  0  -1.228912  0  -0.321505  -0.236815  0  3.529671  0
O  O124  1  0.91597560  0.34592814  0.44206921  1  0  -0.835406  0  1.910868  0  0  -0.77997  0  2.123736  0  0  -0.800892  0  2.088619  0  -1.288975  0  -0.584922  -0.765126  0  2.148067  0
O  O125  1  0.58402521  0.65407189  0.94206921  1  0  -0.835319  0  1.910921  0  0  -0.779932  0  2.123734  0  0  -0.800834  0  2.088674  0  -1.288956  0  -0.584918  -0.765088  0  2.148064  0
O  O126  1  0.41597616  0.15407146  0.55793079  1  0  -0.835299  0  1.910963  0  0  -0.779899  0  2.123749  0  0  -0.800798  0  2.088681  0  -1.288955  0  -0.584894  -0.765055  0  2.148078  0
O  O127  1  0.08402453  0.84592773  0.05793079  1  0  -0.835313  0  1.910935  0  0  -0.779934  0  2.123745  0  0  -0.800833  0  2.088689  0  -1.288953  0  -0.584913  -0.76509  0  2.148075  0
O  O128  1  0.08402328  0.65407106  0.55793079  1  0  -0.835405  0  1.910803  0  0  -0.779972  0  2.123706  0  0  -0.800895  0  2.088591  0  -1.288972  0  -0.58492  -0.765126  0  2.148035  0
O  O129  1  0.41597491  0.34592814  0.05793079  1  0  -0.835335  0  1.910909  0  0  -0.779951  0  2.123728  0  0  -0.800852  0  2.088667  0  -1.288958  0  -0.584922  -0.765107  0  2.148057  0
O  O130  1  0.58402397  0.84592773  0.44206984  1  0  -0.835406  0  1.91079  0  0  -0.779967  0  2.123713  0  0  -0.80089  0  2.088596  0  -1.288942  0  -0.584941  -0.765121  0  2.148041  0
O  O131  1  0.91597560  0.15407146  0.94206921  1  0  -0.835296  0  1.910931  0  0  -0.779912  0  2.12374  0  0  -0.800812  0  2.088676  0  -1.288953  0  -0.584901  -0.765068  0  2.148069  0
O  O132  1  0.61571124  0.32395576  0.51354112  1  0  -0.500471  0  2.14037  0  0  -0.437512  0  2.351383  0  0  -0.459445  0  2.347739  0  -1.16957  0  -0.289589  -0.422201  0  2.353529  0
O  O133  1  0.88428832  0.67604511  0.01353985  1  0  -0.500661  0  2.140456  0  0  -0.437528  0  2.351365  0  0  -0.459461  0  2.347719  0  -1.169612  0  -0.289591  -0.422218  0  2.353508  0
O  O134  1  0.11571180  0.17604468  0.48645951  1  0  -0.500685  0  2.140461  0  0  -0.437509  0  2.35138  0  0  -0.459447  0  2.347747  0  -1.169604  0  -0.289582  -0.422197  0  2.353515  0
O  O135  1  0.38429013  0.82395452  0.98645888  1  0  -0.500624  0  2.140429  0  0  -0.437506  0  2.351352  0  0  -0.45944  0  2.34771  0  -1.169603  0  -0.289583  -0.422194  0  2.353494  0
O  O136  1  0.38428139  0.67604427  0.48645824  1  0  -0.500695  0  2.140418  0  0  -0.437528  0  2.35135  0  0  -0.45946  0  2.347712  0  -1.169502  0  -0.289592  -0.422231  0  2.353517  0
O  O137  1  0.11571180  0.32395492  0.98645951  1  0  -0.500646  0  2.140459  0  0  -0.437516  0  2.351365  0  0  -0.459451  0  2.347721  0  -1.1696  0  -0.289584  -0.422206  0  2.353507  0
O  O138  1  0.88428832  0.82395535  0.51354049  1  0  -0.500686  0  2.14046  0  0  -0.43751  0  2.351377  0  0  -0.459447  0  2.347744  0  -1.169604  0  -0.289581  -0.422201  0  2.35352  0
O  O139  1  0.61571124  0.17604551  0.01354049  1  0  -0.500667  0  2.140426  0  0  -0.437541  0  2.351334  0  0  -0.459474  0  2.347691  0  -1.169616  0  -0.289603  -0.422231  0  2.35348  0
O  O140  1  0.23898864  0.42083401  0.51552191  1  0  -0.495901  0  2.149395  0  0  -0.43636  0  2.403807  0  0  -0.458879  0  2.398234  0  -1.161666  0  -0.298599  -0.420575  0  2.407143  0
O  O141  1  0.26101079  0.57916267  0.01552319  1  0  -0.495921  0  2.149438  0  0  -0.436465  0  2.403976  0  0  -0.458979  0  2.398383  0  -1.161615  0  -0.298656  -0.420681  0  2.407314  0
O  O142  1  0.73899058  0.07916224  0.48447681  1  0  -0.495973  0  2.14946  0  0  -0.436502  0  2.403994  0  0  -0.459015  0  2.398398  0  -1.161606  0  -0.298663  -0.420717  0  2.407331  0
O  O143  1  0.76101023  0.92083779  0.98447618  1  0  -0.495974  0  2.149542  0  0  -0.436505  0  2.40409  0  0  -0.459016  0  2.39849  0  -1.161632  0  -0.298671  -0.42072  0  2.407426  0
O  O144  1  0.76100774  0.57916519  0.48447809  1  0  -0.495912  0  2.14956  0  0  -0.436421  0  2.404007  0  0  -0.458937  0  2.398426  0  -1.161639  0  -0.29863  -0.420634  0  2.407341  0
O  O145  1  0.73899058  0.42083820  0.98447681  1  0  -0.495963  0  2.14946  0  0  -0.436495  0  2.403998  0  0  -0.459008  0  2.398406  0  -1.161599  0  -0.298655  -0.420709  0  2.407335  0
O  O146  1  0.26101079  0.92083779  0.51552319  1  0  -0.495948  0  2.149503  0  0  -0.436497  0  2.404061  0  0  -0.459001  0  2.398446  0  -1.161607  0  -0.29868  -0.42071  0  2.407397  0
O  O147  1  0.23899114  0.07916140  0.01552446  1  0  -0.495937  0  2.149436  0  0  -0.436502  0  2.404024  0  0  -0.459003  0  2.398398  0  -1.161602  0  -0.298671  -0.420715  0  2.40736  0
