# generated using pymatgen
data_Na2H10C2(N2O)5
_symmetry_space_group_name_H-M   'P 1'
_cell_length_a   7.10056938
_cell_length_b   7.50939612
_cell_length_c   11.95414099
_cell_angle_alpha   80.26238006
_cell_angle_beta   81.51776203
_cell_angle_gamma   68.75474807
_symmetry_Int_Tables_number   1
_chemical_formula_structural   Na2H10C2(N2O)5
_chemical_formula_sum   'Na4 H20 C4 N20 O10'
_cell_volume   582.94339872
_cell_formula_units_Z   2
loop_
 _symmetry_equiv_pos_site_id
 _symmetry_equiv_pos_as_xyz
  1  'x, y, z'
loop_
 _atom_site_type_symbol
 _atom_site_label
 _atom_site_symmetry_multiplicity
 _atom_site_fract_x
 _atom_site_fract_y
 _atom_site_fract_z
 _atom_site_occupancy
 _atom_site_hle17_bader_spin_density
 _atom_site_hle17_ddec_charge
 _atom_site_hle17_ddec_spin_density
 _atom_site_hle17_ddec_sum_bond_order
 _atom_site_hle17_magmom
 _atom_site_hse06_10hf_bader_spin_density
 _atom_site_hse06_10hf_ddec_charge
 _atom_site_hse06_10hf_ddec_spin_density
 _atom_site_hse06_10hf_ddec_sum_bond_order
 _atom_site_hse06_10hf_magmom
 _atom_site_hse06_bader_spin_density
 _atom_site_hse06_ddec_charge
 _atom_site_hse06_ddec_spin_density
 _atom_site_hse06_ddec_sum_bond_order
 _atom_site_hse06_magmom
 _atom_site_pbe_bader_spin_density
 _atom_site_pbe_cm5_charge
 _atom_site_pbe_ddec_charge
 _atom_site_pbe_ddec_spin_density
 _atom_site_pbe_ddec_sum_bond_order
 _atom_site_pbe_magmom
Na  Na0  1  0.86729026  0.37700597  0.58589900  1  0  0.886512  0  0.411396  0  0  0.835778  0  0.579614  0  0  0.845855  0  0.556753  0  0  0.675021  0.828452  0  0.595883  0
Na  Na1  1  0.13271245  0.62299464  0.41410201  1  0  0.886509  0  0.411387  0  0  0.835769  0  0.579613  0  0  0.845847  0  0.556748  0  0  0.675015  0.82844  0  0.59588  0
Na  Na2  1  0.63974450  0.45885261  0.86301281  1  0  0.881907  0  0.389475  0  0  0.817026  0  0.571071  0  0  0.828949  0  0.547018  0  0  0.633112  0.808384  0  0.588203  0
Na  Na3  1  0.36025873  0.54114652  0.13698329  1  0  0.881911  0  0.389484  0  0  0.81701  0  0.571119  0  0  0.82893  0  0.547068  0  0  0.633126  0.808364  0  0.588253  0
H  H4  1  0.70381759  0.77247622  0.44980279  1  0  0.380567  0  0.941172  0  0  0.342215  0  1.019015  0  0  0.35247  0  1.00386  0  0  0.284542  0.334971  0  1.02972  0
H  H5  1  0.29618477  0.22752149  0.55019773  1  0  0.380525  0  0.94123  0  0  0.342166  0  1.019083  0  0  0.352421  0  1.003928  0  0  0.284502  0.334923  0  1.029786  0
H  H6  1  0.73270256  0.77210481  0.57662754  1  0  0.384556  0  0.937509  0  0  0.344032  0  1.017935  0  0  0.354756  0  1.002376  0  0  0.284977  0.336473  0  1.028887  0
H  H7  1  0.26729785  0.22789435  0.42337467  1  0  0.3846  0  0.937456  0  0  0.344071  0  1.017888  0  0  0.354796  0  1.002328  0  0  0.284987  0.336512  0  1.02884  0
H  H8  1  0.66628190  0.16620184  0.50358208  1  0  0.410486  0  0.859365  0  0  0.377255  0  0.944305  0  0  0.386256  0  0.930818  0  0  0.309615  0.370817  0  0.952787  0
H  H9  1  0.33372099  0.83379442  0.49641687  1  0  0.410505  0  0.85933  0  0  0.377243  0  0.94432  0  0  0.386247  0  0.93083  0  0  0.309611  0.370805  0  0.9528  0
H  H10  1  0.81683090  0.18891852  0.39265914  1  0  0.382891  0  0.941948  0  0  0.337105  0  1.029154  0  0  0.348579  0  1.012719  0  0  0.289092  0.329041  0  1.040683  0
H  H11  1  0.18317093  0.81108064  0.60734211  1  0  0.382905  0  0.941944  0  0  0.337117  0  1.029152  0  0  0.34859  0  1.012717  0  0  0.289104  0.329053  0  1.040681  0
H  H12  1  0.09638115  0.35181981  0.76855991  1  0  0.387318  0  0.932465  0  0  0.347542  0  1.01284  0  0  0.357956  0  0.997561  0  0  0.283347  0.340187  0  1.023616  0
H  H13  1  0.90362228  0.64817502  0.23143999  1  0  0.387356  0  0.9324  0  0  0.347579  0  1.012778  0  0  0.357992  0  0.9975  0  0  0.283379  0.340223  0  1.023555  0
H  H14  1  0.98406806  0.57169601  0.77885504  1  0  0.397985  0  0.910453  0  0  0.366334  0  0.976835  0  0  0.375667  0  0.963093  0  0  0.29291  0.359747  0  0.986538  0
H  H15  1  0.01592967  0.42829878  0.22114370  1  0  0.398046  0  0.910399  0  0  0.366372  0  0.97682  0  0  0.375708  0  0.963072  0  0  0.292898  0.359782  0  0.986526  0
H  H16  1  0.44158885  0.57099854  0.62742501  1  0  0.426843  0  0.876195  0  0  0.400627  0  0.931801  0  0  0.410975  0  0.916621  0  0  0.288869  0.393305  0  0.942531  0
H  H17  1  0.55841546  0.42899774  0.37257549  1  0  0.426806  0  0.876248  0  0  0.400583  0  0.931862  0  0  0.41093  0  0.916684  0  0  0.288888  0.393258  0  0.942595  0
H  H18  1  0.48183978  0.36068798  0.68869860  1  0  0.401589  0  0.899444  0  0  0.369594  0  0.970676  0  0  0.378471  0  0.957467  0  0  0.299442  0.363336  0  0.979997  0
H  H19  1  0.51816630  0.63931117  0.31129725  1  0  0.401631  0  0.899301  0  0  0.369614  0  0.970625  0  0  0.378492  0  0.957415  0  0  0.299459  0.363355  0  0.979946  0
H  H20  1  0.74220694  0.63719442  0.03799785  1  0  0.397242  0  0.90202  0  0  0.356344  0  0.989228  0  0  0.366997  0  0.973134  0  0  0.28899  0.348717  0  1.000742  0
H  H21  1  0.25780039  0.36280908  0.96199909  1  0  0.397184  0  0.90199  0  0  0.356328  0  0.989225  0  0  0.36698  0  0.973135  0  0  0.288976  0.348703  0  1.000738  0
H  H22  1  0.80290924  0.41920996  0.08890782  1  0  0.397113  0  0.912686  0  0  0.358991  0  0.989438  0  0  0.369603  0  0.973753  0  0  0.287631  0.351501  0  1.000507  0
H  H23  1  0.19709612  0.58079495  0.91108662  1  0  0.397105  0  0.912725  0  0  0.359  0  0.98944  0  0  0.369614  0  0.973752  0  0  0.28765  0.351512  0  1.000509  0
C  C24  1  0.86727176  0.93717980  0.88787743  1  0  0.364246  0  3.849016  0  0  0.325072  0  4.148236  0  0  0.331489  0  4.168781  0  0  0.310574  0.320924  0  4.134229  0
C  C25  1  0.13272776  0.06281790  0.11212418  1  0  0.364132  0  3.849128  0  0  0.324992  0  4.148303  0  0  0.33141  0  4.168847  0  0  0.310575  0.320843  0  4.134295  0
C  C26  1  0.61078820  0.02040547  0.15654394  1  0  0.355381  0  3.842772  0  0  0.31871  0  4.146474  0  0  0.323411  0  4.16684  0  0  0.312725  0.315548  0  4.132694  0
C  C27  1  0.38920439  0.97959940  0.84345584  1  0  0.355521  0  3.842732  0  0  0.318886  0  4.14638  0  0  0.323586  0  4.166745  0  0  0.312831  0.315726  0  4.1326  0
N  N28  1  0.81584794  0.11071047  0.82359925  1  0  -0.347104  0  3.003107  0  0  -0.322777  0  3.298517  0  0  -0.333919  0  3.31532  0  0  -0.2573  -0.315289  0  3.287231  0
N  N29  1  0.18414589  0.88928718  0.17639870  1  0  -0.347067  0  3.003158  0  0  -0.322744  0  3.298559  0  0  -0.333886  0  3.315365  0  0  -0.257291  -0.315257  0  3.287272  0
N  N30  1  0.92289961  0.07784138  0.72339494  1  0  -0.121493  0  3.029874  0  0  -0.109837  0  3.334593  0  0  -0.111339  0  3.348309  0  0  -0.148255  -0.108508  0  3.325236  0
N  N31  1  0.07710045  0.92215488  0.27660594  1  0  -0.12147  0  3.029904  0  0  -0.109813  0  3.334614  0  0  -0.111313  0  3.34833  0  0  -0.148251  -0.108484  0  3.325256  0
N  N32  1  0.03681901  0.89217725  0.72681704  1  0  -0.08035  0  3.066811  0  0  -0.048367  0  3.343373  0  0  -0.053119  0  3.35783  0  0  -0.078567  -0.044939  0  3.333528  0
N  N33  1  0.96318300  0.10781758  0.27318549  1  0  -0.080511  0  3.066956  0  0  -0.048526  0  3.343524  0  0  -0.05328  0  3.357984  0  0  -0.078634  -0.045099  0  3.333679  0
N  N34  1  0.00425769  0.79900705  0.82922354  1  0  -0.333419  0  3.020235  0  0  -0.284694  0  3.273809  0  0  -0.297813  0  3.289286  0  0  -0.190397  -0.275775  0  3.263353  0
N  N35  1  0.99574326  0.20099067  0.17077961  1  0  -0.333275  0  3.020134  0  0  -0.284546  0  3.27371  0  0  -0.297667  0  3.289192  0  0  -0.190346  -0.275628  0  3.263253  0
N  N36  1  0.79311398  0.89622689  0.99987026  1  0  -0.166826  0  2.976175  0  0  -0.131485  0  3.252174  0  0  -0.13139  0  3.25577  0  0  -0.119292  -0.131533  0  3.249817  0
N  N37  1  0.20688269  0.10377079  0.00012994  1  0  -0.166864  0  2.976259  0  0  -0.131542  0  3.252272  0  0  -0.131449  0  3.255874  0  0  -0.119318  -0.131587  0  3.249913  0
N  N38  1  0.68629272  0.04853370  0.04454613  1  0  -0.14127  0  2.977364  0  0  -0.12338  0  3.262458  0  0  -0.119259  0  3.267443  0  0  -0.120695  -0.125936  0  3.259001  0
N  N39  1  0.31369951  0.95146827  0.95545149  1  0  -0.141213  0  2.977486  0  0  -0.123331  0  3.262579  0  0  -0.119211  0  3.267561  0  0  -0.120707  -0.125889  0  3.259122  0
N  N40  1  0.66315653  0.85960713  0.23280469  1  0  -0.312915  0  3.021255  0  0  -0.271422  0  3.278686  0  0  -0.28188  0  3.294274  0  0  -0.189535  -0.264317  0  3.26835  0
N  N41  1  0.33682895  0.14039770  0.76719489  1  0  -0.312981  0  3.02124  0  0  -0.271499  0  3.278662  0  0  -0.281958  0  3.294251  0  0  -0.189573  -0.264391  0  3.268325  0
N  N42  1  0.55120249  0.91296041  0.32915637  1  0  -0.13686  0  3.054128  0  0  -0.099139  0  3.322425  0  0  -0.104656  0  3.336023  0  0  -0.086463  -0.09518  0  3.313308  0
N  N43  1  0.44879669  0.08704596  0.67084600  1  0  -0.136772  0  3.054163  0  0  -0.099045  0  3.322478  0  0  -0.104559  0  3.336076  0  0  -0.086423  -0.095086  0  3.31336  0
N  N44  1  0.43351800  0.09934179  0.31155696  1  0  -0.072162  0  3.038938  0  0  -0.041841  0  3.315706  0  0  -0.045379  0  3.33021  0  0  -0.072502  -0.03922  0  3.305896  0
N  N45  1  0.56648490  0.90066605  0.68844492  1  0  -0.072205  0  3.039032  0  0  -0.041908  0  3.315841  0  0  -0.045447  0  3.330345  0  0  -0.072539  -0.039287  0  3.306031  0
N  N46  1  0.47012522  0.17049543  0.20487726  1  0  -0.308998  0  2.936939  0  0  -0.286618  0  3.220918  0  0  -0.295901  0  3.236823  0  0  -0.224467  -0.280265  0  3.210169  0
N  N47  1  0.52987217  0.82950804  0.79512392  1  0  -0.309088  0  2.93687  0  0  -0.286717  0  3.220854  0  0  -0.296  0  3.236758  0  0  -0.224484  -0.280357  0  3.210091  0
O  O48  1  0.80076835  0.70753654  0.50777531  1  0  -0.903214  0  1.84027  0  0  -0.851144  0  2.030473  0  0  -0.86692  0  1.996074  0  0  -0.703353  -0.839913  0  2.054532  0
O  O49  1  0.19923331  0.29246695  0.49222548  1  0  -0.903209  0  1.840239  0  0  -0.851133  0  2.03046  0  0  -0.86691  0  1.996061  0  0  -0.703326  -0.839903  0  2.054521  0
O  O50  1  0.72600859  0.25589092  0.45752966  1  0  -0.852906  0  1.885125  0  0  -0.795193  0  2.081027  0  0  -0.812887  0  2.04827  0  0  -0.617287  -0.782684  0  2.102842  0
O  O51  1  0.27398791  0.74411109  0.54247092  1  0  -0.85297  0  1.885107  0  0  -0.795224  0  2.081047  0  0  -0.812919  0  2.048287  0  0  -0.617304  -0.782713  0  2.102859  0
O  O52  1  0.96623227  0.45914074  0.75664516  1  0  -0.886061  0  1.834372  0  0  -0.835718  0  2.015629  0  0  -0.851346  0  1.983829  0  0  -0.667912  -0.824565  0  2.037885  0
O  O53  1  0.03377114  0.54085406  0.24335057  1  0  -0.886155  0  1.834291  0  0  -0.835799  0  2.01557  0  0  -0.851428  0  1.983766  0  0  -0.667915  -0.82463  0  2.037796  0
O  O54  1  0.53125591  0.46798754  0.68003167  1  0  -0.904027  0  1.819918  0  0  -0.858363  0  2.003104  0  0  -0.874315  0  1.971438  0  0  -0.69479  -0.847015  0  2.025262  0
O  O55  1  0.46875071  0.53201019  0.31996762  1  0  -0.904026  0  1.819765  0  0  -0.858322  0  2.003089  0  0  -0.874275  0  1.971423  0  0  -0.694831  -0.846966  0  2.025228  0
O  O56  1  0.70155592  0.52334475  0.04434305  1  0  -0.887019  0  1.826819  0  0  -0.836622  0  2.02416  0  0  -0.851284  0  1.988297  0  0  -0.670035  -0.826251  0  2.049422  0
O  O57  1  0.29843739  0.47666593  0.95566105  1  0  -0.886943  0  1.826926  0  0  -0.836605  0  2.024243  0  0  -0.851267  0  1.988386  0  0  -0.670055  -0.826234  0  2.049503  0
