# generated using pymatgen
data_ZnH28C30(N2Cl)2
_symmetry_space_group_name_H-M   'P 1'
_cell_length_a   10.11892347
_cell_length_b   14.37292177
_cell_length_c   22.52217886
_cell_angle_alpha   89.99972113
_cell_angle_beta   89.99994056
_cell_angle_gamma   90.00003083
_symmetry_Int_Tables_number   1
_chemical_formula_structural   ZnH28C30(N2Cl)2
_chemical_formula_sum   'Zn4 H112 C120 N16 Cl8'
_cell_volume   3275.59180723
_cell_formula_units_Z   4
loop_
 _symmetry_equiv_pos_site_id
 _symmetry_equiv_pos_as_xyz
  1  'x, y, z'
loop_
 _atom_site_type_symbol
 _atom_site_label
 _atom_site_symmetry_multiplicity
 _atom_site_fract_x
 _atom_site_fract_y
 _atom_site_fract_z
 _atom_site_occupancy
 _atom_site_pbe_bader_charge
 _atom_site_pbe_bader_spin_density
 _atom_site_pbe_cm5_charge
 _atom_site_pbe_ddec_charge
 _atom_site_pbe_ddec_spin_density
 _atom_site_pbe_ddec_sum_bond_order
 _atom_site_pbe_magmom
Zn  Zn0  1  0.25000087  0.67111942  0.24999958  1  1.118148  0  0.547339  0.612305  0  2.705073  0
Zn  Zn1  1  0.25000035  0.82888154  0.75000158  1  1.118165  0  0.547255  0.612206  0  2.705125  0
Zn  Zn2  1  0.74999999  0.32888170  0.75000002  1  1.118181  0  0.547354  0.612286  0  2.705057  0
Zn  Zn3  1  0.74999853  0.17111889  0.24999979  1  1.118174  0  0.547322  0.612263  0  2.705124  0
H  H4  1  0.02262229  0.89981789  0.87449347  1  0.055117  0  0.091649  0.042372  0  1.049244  0
H  H5  1  0.02262008  0.60018299  0.12550690  1  0.055168  0  0.091631  0.042313  0  1.049206  0
H  H6  1  0.47738556  0.60017448  0.37449336  1  0.055187  0  0.091678  0.042467  0  1.049264  0
H  H7  1  0.47738143  0.89981753  0.62550680  1  0.055063  0  0.091663  0.042333  0  1.04923  0
H  H8  1  0.97738450  0.10017837  0.12550568  1  0.055218  0  0.091691  0.042452  0  1.049284  0
H  H9  1  0.97738375  0.39981674  0.87449447  1  0.055261  0  0.091648  0.042334  0  1.049193  0
H  H10  1  0.52261431  0.39982317  0.62550668  1  0.055187  0  0.091669  0.042453  0  1.04927  0
H  H11  1  0.52261548  0.10017942  0.37449280  1  0.055179  0  0.091669  0.042444  0  1.049286  0
H  H12  1  0.13962663  0.74356995  0.13887614  1  0.122009  0  0.108592  0.079214  0  1.048244  0
H  H13  1  0.13963075  0.75642819  0.86112374  1  0.122062  0  0.108592  0.079192  0  1.048241  0
H  H14  1  0.36036693  0.75643325  0.63888053  1  0.122064  0  0.108609  0.079221  0  1.048208  0
H  H15  1  0.36036824  0.74356915  0.36112324  1  0.122038  0  0.108585  0.079157  0  1.048244  0
H  H16  1  0.86037027  0.25643256  0.86112168  1  0.122061  0  0.108603  0.079189  0  1.048259  0
H  H17  1  0.86036813  0.24357085  0.13887719  1  0.122069  0  0.108587  0.079178  0  1.048261  0
H  H18  1  0.63962701  0.24356787  0.36112306  1  0.122058  0  0.108596  0.079206  0  1.048251  0
H  H19  1  0.63962768  0.25643476  0.63887725  1  0.122036  0  0.108602  0.079214  0  1.048252  0
H  H20  1  0.85809242  0.95979597  0.18203265  1  0.134683  0  0.096664  0.101562  0  1.054264  0
H  H21  1  0.85809944  0.54019897  0.81796867  1  0.134525  0  0.096643  0.10152  0  1.0542  0
H  H22  1  0.64190565  0.54020432  0.68203116  1  0.134714  0  0.096648  0.101489  0  1.054263  0
H  H23  1  0.64190523  0.95979680  0.31796848  1  0.134679  0  0.096641  0.101501  0  1.054283  0
H  H24  1  0.14190448  0.04020446  0.81796872  1  0.134699  0  0.09665  0.101486  0  1.054275  0
H  H25  1  0.14190241  0.45979798  0.18203182  1  0.134743  0  0.096653  0.1015  0  1.054315  0
H  H26  1  0.35809719  0.45979890  0.31796711  1  0.134699  0  0.096644  0.101515  0  1.0543  0
H  H27  1  0.35809365  0.04020502  0.68203200  1  0.13464  0  0.096646  0.101495  0  1.054274  0
H  H28  1  0.05968909  0.79699333  0.31574973  1  0.094139  0  0.120571  0.090965  0  0.978213  0
H  H29  1  0.05968567  0.70300408  0.68425108  1  0.094201  0  0.120579  0.090973  0  0.978311  0
H  H30  1  0.44031889  0.70300226  0.81575247  1  0.094142  0  0.120564  0.090968  0  0.978247  0
H  H31  1  0.44031768  0.79699600  0.18425037  1  0.094231  0  0.120514  0.090891  0  0.978214  0
H  H32  1  0.94031275  0.20300431  0.68424943  1  0.094171  0  0.120605  0.091016  0  0.978237  0
H  H33  1  0.94031420  0.29699357  0.31574985  1  0.094196  0  0.120594  0.09101  0  0.978284  0
H  H34  1  0.55968295  0.29699539  0.18424979  1  0.094209  0  0.120596  0.091015  0  0.978252  0
H  H35  1  0.55968219  0.20300443  0.81575011  1  0.094219  0  0.120542  0.090929  0  0.978251  0
H  H36  1  0.15374977  0.88087364  0.95804800  1  0.075656  0  0.098446  0.10092  0  1.012573  0
H  H37  1  0.15374974  0.61912868  0.04195365  1  0.075629  0  0.09843  0.100887  0  1.012559  0
H  H38  1  0.34624998  0.61912713  0.45804745  1  0.07563  0  0.09845  0.100927  0  1.012591  0
H  H39  1  0.34624800  0.88087248  0.54195278  1  0.075625  0  0.098434  0.100925  0  1.012567  0
H  H40  1  0.84625504  0.11912470  0.04195337  1  0.07574  0  0.098444  0.100915  0  1.01263  0
H  H41  1  0.84625606  0.38087453  0.95804639  1  0.075754  0  0.098466  0.100947  0  1.012563  0
H  H42  1  0.65374890  0.38087121  0.54195259  1  0.075637  0  0.098442  0.100948  0  1.01253  0
H  H43  1  0.65374693  0.11912725  0.45804638  1  0.075642  0  0.098443  0.100909  0  1.012582  0
H  H44  1  0.92397618  0.90604119  0.79144401  1  -0.011777  0  0.087972  0.028349  0  0.986231  0
H  H45  1  0.92397574  0.59395725  0.20855462  1  -0.0118  0  0.087972  0.028376  0  0.986193  0
H  H46  1  0.57603053  0.59395756  0.29144455  1  -0.011715  0  0.087941  0.02827  0  0.986142  0
H  H47  1  0.57602720  0.90603726  0.70855468  1  -0.011719  0  0.087947  0.028347  0  0.986221  0
H  H48  1  0.07602765  0.09396202  0.20855515  1  -0.01173  0  0.087937  0.028312  0  0.986179  0
H  H49  1  0.07602413  0.40603830  0.79144631  1  -0.011813  0  0.087972  0.02836  0  0.986256  0
H  H50  1  0.42396835  0.40603799  0.70855505  1  -0.011656  0  0.087951  0.028289  0  0.986204  0
H  H51  1  0.42396970  0.09396177  0.29144403  1  -0.011695  0  0.087929  0.028287  0  0.986188  0
H  H52  1  0.64967521  0.81789827  0.80172119  1  0.041183  0  0.086087  0.08358  0  1.007266  0
H  H53  1  0.64967388  0.68209659  0.19827890  1  0.041183  0  0.08609  0.08357  0  1.007281  0
H  H54  1  0.85033246  0.68210250  0.30171866  1  0.041061  0  0.086073  0.083556  0  1.00724  0
H  H55  1  0.85033008  0.81789522  0.69827955  1  0.041116  0  0.086089  0.083598  0  1.007187  0
H  H56  1  0.35032960  0.18210355  0.19827885  1  0.041104  0  0.086096  0.083596  0  1.0072  0
H  H57  1  0.35032599  0.31789758  0.80171981  1  0.041112  0  0.086104  0.083584  0  1.007234  0
H  H58  1  0.14966642  0.31789584  0.69828049  1  0.041024  0  0.086082  0.083569  0  1.007223  0
H  H59  1  0.14966979  0.18210520  0.30171783  1  0.041094  0  0.086098  0.083595  0  1.007205  0
H  H60  1  0.80016551  0.75584690  0.80076530  1  0.047952  0  0.0803  0.074914  0  1.041805  0
H  H61  1  0.80016224  0.74414941  0.19923293  1  0.048041  0  0.080338  0.074989  0  1.041795  0
H  H62  1  0.69983821  0.74415318  0.30076177  1  0.048028  0  0.080347  0.074988  0  1.041757  0
H  H63  1  0.69983677  0.75584239  0.69923829  1  0.047933  0  0.080302  0.074916  0  1.041785  0
H  H64  1  0.19983930  0.24415353  0.19923341  1  0.047966  0  0.080306  0.074953  0  1.041805  0
H  H65  1  0.19983565  0.25584614  0.80076533  1  0.047951  0  0.080287  0.074889  0  1.041811  0
H  H66  1  0.30015671  0.25584446  0.69923650  1  0.047996  0  0.080331  0.074964  0  1.041773  0
H  H67  1  0.30016211  0.24415525  0.30076219  1  0.047975  0  0.080299  0.074904  0  1.041823  0
H  H68  1  0.76390560  0.88092228  0.09248906  1  0.057681  0  0.102169  0.105969  0  0.994472  0
H  H69  1  0.76391049  0.61907262  0.90751008  1  0.057748  0  0.102125  0.10589  0  0.994546  0
H  H70  1  0.73608872  0.61908356  0.59248950  1  0.057703  0  0.10214  0.105928  0  0.994595  0
H  H71  1  0.73609002  0.88092525  0.40750966  1  0.057703  0  0.102155  0.10596  0  0.994511  0
H  H72  1  0.23609328  0.11907954  0.90750965  1  0.057659  0  0.102181  0.105987  0  0.994474  0
H  H73  1  0.23609234  0.38092294  0.09249085  1  0.057669  0  0.102177  0.105995  0  0.994453  0
H  H74  1  0.26390719  0.38092174  0.40751054  1  0.057687  0  0.102178  0.105981  0  0.994477  0
H  H75  1  0.26390392  0.11908214  0.59248817  1  0.057711  0  0.102183  0.105978  0  0.994516  0
H  H76  1  0.18532826  0.86173480  0.06669909  1  0.081858  0  0.104312  0.107262  0  0.988345  0
H  H77  1  0.18533212  0.63826753  0.93330343  1  0.08183  0  0.104305  0.107242  0  0.988298  0
H  H78  1  0.31466646  0.63827591  0.56669677  1  0.081921  0  0.104289  0.107249  0  0.988313  0
H  H79  1  0.31466867  0.86173064  0.43330258  1  0.081822  0  0.104312  0.107251  0  0.988349  0
H  H80  1  0.81467062  0.13827467  0.93330317  1  0.08185  0  0.104286  0.107289  0  0.988311  0
H  H81  1  0.81467170  0.36173220  0.06669750  1  0.081863  0  0.104316  0.107279  0  0.988332  0
H  H82  1  0.68533044  0.36172590  0.43330238  1  0.081822  0  0.104305  0.107276  0  0.988336  0
H  H83  1  0.68532724  0.13827535  0.56669657  1  0.081877  0  0.10431  0.107308  0  0.988333  0
H  H84  1  0.89996630  0.92541773  0.28904454  1  0.125077  0  0.103799  0.114387  0  1.016397  0
H  H85  1  0.89996371  0.57458070  0.71095675  1  0.125092  0  0.103776  0.114336  0  1.016456  0
H  H86  1  0.60004140  0.57458104  0.78904341  1  0.125049  0  0.103781  0.114319  0  1.016471  0
H  H87  1  0.60003824  0.92541797  0.21095714  1  0.125105  0  0.103813  0.114381  0  1.016452  0
H  H88  1  0.10003455  0.07458131  0.71095639  1  0.125112  0  0.103811  0.114379  0  1.016383  0
H  H89  1  0.10003715  0.42541694  0.28904417  1  0.125106  0  0.10379  0.114346  0  1.016482  0
H  H90  1  0.39996638  0.42541938  0.21095619  1  0.12506  0  0.103805  0.11434  0  1.016437  0
H  H91  1  0.39996261  0.07458246  0.78904334  1  0.1251  0  0.103793  0.114361  0  1.016444  0
H  H92  1  0.73331634  0.89861326  0.98304453  1  0.100482  0  0.106894  0.108574  0  0.995673  0
H  H93  1  0.73331734  0.60138511  0.01695507  1  0.100431  0  0.106907  0.108616  0  0.995629  0
H  H94  1  0.76668300  0.60138751  0.48304673  1  0.100464  0  0.106919  0.108597  0  0.995633  0
H  H95  1  0.76668407  0.89861574  0.51695418  1  0.10043  0  0.106907  0.108662  0  0.995579  0
H  H96  1  0.26668748  0.10138717  0.01695329  1  0.100395  0  0.106909  0.108631  0  0.995668  0
H  H97  1  0.26668944  0.39861254  0.98304719  1  0.10039  0  0.106886  0.108585  0  0.995686  0
H  H98  1  0.23331686  0.39861361  0.51695464  1  0.100433  0  0.106903  0.108582  0  0.995661  0
H  H99  1  0.23331383  0.10139095  0.48304364  1  0.100451  0  0.106899  0.108568  0  0.995673  0
H  H100  1  0.79750884  0.05513759  0.80117310  1  -0.002695  0  0.078954  0.071359  0  1.050193  0
H  H101  1  0.79750968  0.44486023  0.19882625  1  -0.002755  0  0.078956  0.071343  0  1.050137  0
H  H102  1  0.70249550  0.44486121  0.30117649  1  -0.00277  0  0.078927  0.071322  0  1.050184  0
H  H103  1  0.70248995  0.05513587  0.69882335  1  -0.002689  0  0.078932  0.071344  0  1.050129  0
H  H104  1  0.20249103  0.94486284  0.19882472  1  -0.002688  0  0.078944  0.071352  0  1.050132  0
H  H105  1  0.20248920  0.55513672  0.80117380  1  -0.002701  0  0.078977  0.071385  0  1.050096  0
H  H106  1  0.29750437  0.55513573  0.69882266  1  -0.002668  0  0.078924  0.071311  0  1.050207  0
H  H107  1  0.29750596  0.94486455  0.30117670  1  -0.002663  0  0.078936  0.071356  0  1.05018  0
H  H108  1  0.64794980  0.99175923  0.80104692  1  0.030419  0  0.086449  0.085742  0  1.003548  0
H  H109  1  0.64794932  0.50823702  0.19895450  1  0.030425  0  0.086446  0.085754  0  1.003511  0
H  H110  1  0.85205590  0.50823875  0.30104804  1  0.03032  0  0.086423  0.085687  0  1.003522  0
H  H111  1  0.85204969  0.99175897  0.69895195  1  0.030401  0  0.086451  0.085736  0  1.00355  0
H  H112  1  0.35205106  0.00823980  0.19895312  1  0.030388  0  0.086437  0.085707  0  1.003574  0
H  H113  1  0.35204857  0.49175993  0.80104510  1  0.030427  0  0.086445  0.08572  0  1.003563  0
H  H114  1  0.14794397  0.49175819  0.69895156  1  0.030313  0  0.086418  0.085658  0  1.003571  0
H  H115  1  0.14794622  0.00824146  0.30104676  1  0.030367  0  0.086429  0.085713  0  1.003553  0
C  C116  1  0.92796956  0.89878547  0.89925819  1  0.643092  0  0.063427  0.062379  0  4.010683  0
C  C117  1  0.92796147  0.60121297  0.10074310  1  0.643528  0  0.063403  0.062293  0  4.011151  0
C  C118  1  0.57201911  0.60121316  0.39926048  1  0.642667  0  0.063239  0.062048  0  4.009998  0
C  C119  1  0.57203382  0.89878376  0.60074230  1  0.643192  0  0.063466  0.062433  0  4.010665  0
C  C120  1  0.07202142  0.10121357  0.10073919  1  0.642555  0  0.063242  0.062104  0  4.010109  0
C  C121  1  0.07203840  0.39878676  0.89925872  1  0.643362  0  0.063362  0.062284  0  4.010761  0
C  C122  1  0.42798174  0.39878588  0.60073867  1  0.642522  0  0.06324  0.06206  0  4.010097  0
C  C123  1  0.42797890  0.10121528  0.39926040  1  0.642941  0  0.063271  0.062106  0  4.010154  0
C  C124  1  0.97660609  0.86894705  0.08685991  1  0.029451  0  -0.008343  0.062476  0  4.011412  0
C  C125  1  0.97660900  0.63105350  0.91314091  1  0.029855  0  -0.008386  0.062454  0  4.011541  0
C  C126  1  0.52339022  0.63105605  0.58685953  1  0.029103  0  -0.008342  0.062508  0  4.011499  0
C  C127  1  0.52339149  0.86894641  0.41313973  1  0.029073  0  -0.008332  0.062486  0  4.011418  0
C  C128  1  0.02339378  0.13105547  0.91314057  1  0.029086  0  -0.008392  0.062458  0  4.011525  0
C  C129  1  0.02339383  0.36894623  0.08686047  1  0.029514  0  -0.008359  0.062475  0  4.011474  0
C  C130  1  0.47660669  0.36894507  0.41314052  1  0.029048  0  -0.008392  0.062459  0  4.011532  0
C  C131  1  0.47660442  0.13105610  0.58685898  1  0.029152  0  -0.008331  0.062592  0  4.011472  0
C  C132  1  0.08396358  0.78592864  0.17037970  1  0.380151  0  0.048493  0.032802  0  3.909523  0
C  C133  1  0.08396674  0.71406948  0.82962020  1  0.380751  0  0.048547  0.032879  0  3.909422  0
C  C134  1  0.41603288  0.71407293  0.67038242  1  0.379993  0  0.048571  0.032925  0  3.909395  0
C  C135  1  0.41603528  0.78592879  0.32962088  1  0.380512  0  0.048552  0.032928  0  3.909393  0
C  C136  1  0.91603432  0.21407248  0.82961945  1  0.3801  0  0.048513  0.03283  0  3.909412  0
C  C137  1  0.91603510  0.28592886  0.17037984  1  0.380089  0  0.048535  0.032916  0  3.909441  0
C  C138  1  0.58396303  0.28592750  0.32962028  1  0.380104  0  0.048496  0.032818  0  3.90939  0
C  C139  1  0.58396360  0.21407372  0.67037961  1  0.38015  0  0.048509  0.032812  0  3.909348  0
C  C140  1  0.94129204  0.89007649  0.96375728  1  0.040036  0  -0.008623  0.06893  0  4.012417  0
C  C141  1  0.94129202  0.60992266  0.03624444  1  0.040007  0  -0.008593  0.068898  0  4.012378  0
C  C142  1  0.55871130  0.60992095  0.46375778  1  0.040235  0  -0.008626  0.068919  0  4.01263  0
C  C143  1  0.55870935  0.89007805  0.53624279  1  0.040088  0  -0.00858  0.069034  0  4.012481  0
C  C144  1  0.05871376  0.10992116  0.03624187  1  0.040284  0  -0.008555  0.069012  0  4.012513  0
C  C145  1  0.05871378  0.39007847  0.96375782  1  0.040123  0  -0.008553  0.069022  0  4.012195  0
C  C146  1  0.44128758  0.39007948  0.53624315  1  0.040275  0  -0.008635  0.068897  0  4.012726  0
C  C147  1  0.44128657  0.10992308  0.46375637  1  0.039996  0  -0.008651  0.068908  0  4.012532  0
C  C148  1  0.99512577  0.85415580  0.15098028  1  0.028707  0  0.007168  0.038522  0  3.982442  0
C  C149  1  0.99512884  0.64584128  0.84902053  1  0.028466  0  0.007143  0.038482  0  3.982383  0
C  C150  1  0.50487039  0.64584542  0.65098074  1  0.028747  0  0.007166  0.038495  0  3.982566  0
C  C151  1  0.50487181  0.85415564  0.34902029  1  0.028672  0  0.007168  0.038486  0  3.982521  0
C  C152  1  0.00487212  0.14584602  0.84901976  1  0.02873  0  0.007159  0.038484  0  3.982502  0
C  C153  1  0.00487103  0.35415637  0.15097996  1  0.028694  0  0.007124  0.038444  0  3.9824  0
C  C154  1  0.49512552  0.35415501  0.34901930  1  0.028744  0  0.007158  0.038455  0  3.982455  0
C  C155  1  0.49512411  0.14584617  0.65098019  1  0.028695  0  0.00713  0.038454  0  3.982477  0
C  C156  1  0.92685859  0.90460952  0.19472022  1  -0.051177  0  -0.058141  -0.070672  0  3.889378  0
C  C157  1  0.92686173  0.59538753  0.80527930  1  -0.05103  0  -0.058119  -0.070639  0  3.889424  0
C  C158  1  0.57313845  0.59539136  0.69472080  1  -0.051502  0  -0.058136  -0.070625  0  3.889456  0
C  C159  1  0.57314001  0.90460903  0.30528065  1  -0.050979  0  -0.058141  -0.070631  0  3.889476  0
C  C160  1  0.07314029  0.09539160  0.80527983  1  -0.051682  0  -0.058145  -0.07061  0  3.889404  0
C  C161  1  0.07313913  0.40461011  0.19472075  1  -0.051736  0  -0.058115  -0.070591  0  3.889382  0
C  C162  1  0.42685845  0.40461046  0.30527924  1  -0.051186  0  -0.058139  -0.070681  0  3.88942  0
C  C163  1  0.42685788  0.09539279  0.69471984  1  -0.051674  0  -0.058128  -0.070614  0  3.889527  0
C  C164  1  0.03895473  0.81562924  0.26971597  1  0.446864  0  0.053502  0.091996  0  3.914413  0
C  C165  1  0.03895415  0.68436886  0.73028307  1  0.446829  0  0.053511  0.092026  0  3.914473  0
C  C166  1  0.46105138  0.68436879  0.76971788  1  0.446716  0  0.053402  0.091904  0  3.914678  0
C  C167  1  0.46105007  0.81563087  0.23028452  1  0.446813  0  0.053532  0.092051  0  3.914504  0
C  C168  1  0.96104810  0.18436910  0.73028318  1  0.446716  0  0.053423  0.091848  0  3.914587  0
C  C169  1  0.96104769  0.31563087  0.26971653  1  0.446718  0  0.053428  0.0919  0  3.914661  0
C  C170  1  0.53894750  0.31562955  0.23028350  1  0.446755  0  0.053422  0.091863  0  3.914594  0
C  C171  1  0.53894979  0.18437026  0.76971597  1  0.446731  0  0.053495  0.092003  0  3.91461  0
C  C172  1  0.06839184  0.87956967  0.98770190  1  -0.105586  0  -0.081804  -0.110081  0  3.974061  0
C  C173  1  0.06839583  0.62042914  0.01229890  1  -0.105369  0  -0.081762  -0.109928  0  3.973935  0
C  C174  1  0.43160487  0.62043157  0.48769909  1  -0.105658  0  -0.081804  -0.11005  0  3.97379  0
C  C175  1  0.43160791  0.87957016  0.51229977  1  -0.105502  0  -0.08179  -0.110179  0  3.974091  0
C  C176  1  0.93160901  0.12042867  0.01229947  1  -0.10573  0  -0.081782  -0.110048  0  3.973922  0
C  C177  1  0.93161194  0.37957198  0.98770159  1  -0.105589  0  -0.081799  -0.110089  0  3.97403  0
C  C178  1  0.56839302  0.37957025  0.51230051  1  -0.105475  0  -0.081774  -0.110031  0  3.97375  0
C  C179  1  0.56839097  0.12043166  0.48769939  1  -0.105684  0  -0.081784  -0.109984  0  3.973782  0
C  C180  1  0.82036434  0.90560626  0.80797662  1  0.405802  0  0.000742  0.13859  0  3.902782  0
C  C181  1  0.82036395  0.59439145  0.19202249  1  0.405828  0  0.000695  0.138517  0  3.902772  0
C  C182  1  0.67964232  0.59439167  0.30797889  1  0.405689  0  0.000727  0.138603  0  3.902832  0
C  C183  1  0.67963903  0.90560389  0.69202162  1  0.405688  0  0.000696  0.138456  0  3.902826  0
C  C184  1  0.17964047  0.09439625  0.19202164  1  0.405652  0  0.000757  0.138547  0  3.902881  0
C  C185  1  0.17963691  0.40560411  0.80797799  1  0.405711  0  0.000666  0.138426  0  3.902911  0
C  C186  1  0.32035656  0.40560389  0.69202115  1  0.405585  0  0.000717  0.138505  0  3.903112  0
C  C187  1  0.32035886  0.09439653  0.30797797  1  0.405589  0  0.000732  0.138549  0  3.902929  0
C  C188  1  0.75104570  0.81855863  0.78387165  1  -0.127386  0  -0.169375  -0.19219  0  3.91761  0
C  C189  1  0.75104433  0.68143697  0.21612750  1  -0.015975  0  -0.169455  -0.192341  0  3.91773  0
C  C190  1  0.74895905  0.68143810  0.28387184  1  -0.127155  0  -0.169437  -0.192257  0  3.917568  0
C  C191  1  0.74895761  0.81855749  0.71612776  1  -0.015778  0  -0.169424  -0.19224  0  3.917583  0
C  C192  1  0.24895812  0.18144250  0.21612662  1  -0.015849  0  -0.169436  -0.192317  0  3.917686  0
C  C193  1  0.24895554  0.31855789  0.78387210  1  -0.127191  0  -0.169389  -0.192139  0  3.917529  0
C  C194  1  0.25103884  0.31855746  0.71612776  1  -0.015725  0  -0.169449  -0.192284  0  3.917631  0
C  C195  1  0.25104226  0.18144294  0.28387095  1  -0.127163  0  -0.169383  -0.192195  0  3.917623  0
C  C196  1  0.84930207  0.88122367  0.06291819  1  -0.100834  0  -0.084806  -0.119811  0  3.969706  0
C  C197  1  0.84930590  0.61877474  0.93708313  1  -0.101402  0  -0.084724  -0.11967  0  3.969619  0
C  C198  1  0.65069924  0.61877891  0.56291823  1  -0.101447  0  -0.084784  -0.119804  0  3.969556  0
C  C199  1  0.65069750  0.88122360  0.43708186  1  -0.100733  0  -0.084825  -0.119804  0  3.969686  0
C  C200  1  0.15069978  0.11878023  0.93708141  1  -0.100709  0  -0.084721  -0.11972  0  3.969566  0
C  C201  1  0.15069990  0.38122221  0.06291780  1  -0.10077  0  -0.084798  -0.119834  0  3.969757  0
C  C202  1  0.34930162  0.38122151  0.43708137  1  -0.100712  0  -0.084751  -0.119743  0  3.969546  0
C  C203  1  0.34929940  0.11878031  0.56291685  1  -0.100847  0  -0.084765  -0.119783  0  3.969745  0
C  C204  1  0.08591356  0.86836676  0.04849128  1  -0.016527  0  -0.086986  -0.122567  0  3.982514  0
C  C205  1  0.08591342  0.63163344  0.95150951  1  -0.016521  0  -0.087008  -0.122619  0  3.98268  0
C  C206  1  0.41408614  0.63163922  0.54849248  1  -0.016192  0  -0.086939  -0.122553  0  3.982472  0
C  C207  1  0.41408536  0.86836599  0.45150949  1  -0.01612  0  -0.08697  -0.122493  0  3.982528  0
C  C208  1  0.91408927  0.13163645  0.95150876  1  -0.01613  0  -0.086996  -0.122651  0  3.982595  0
C  C209  1  0.91408744  0.36836629  0.04849008  1  -0.01655  0  -0.087029  -0.122649  0  3.982641  0
C  C210  1  0.58591175  0.36836260  0.45150756  1  -0.016047  0  -0.086947  -0.12259  0  3.982468  0
C  C211  1  0.58590957  0.13163862  0.54849055  1  -0.016128  0  -0.087013  -0.122728  0  3.982612  0
C  C212  1  0.94967418  0.88535712  0.25450664  1  -0.004107  0  -0.071382  -0.098153  0  3.942506  0
C  C213  1  0.94967253  0.61464063  0.74549464  1  -0.004353  0  -0.071335  -0.098092  0  3.942618  0
C  C214  1  0.55032865  0.61464191  0.75450718  1  -0.003901  0  -0.0713  -0.097996  0  3.942557  0
C  C215  1  0.55032737  0.88535778  0.24549428  1  -0.004427  0  -0.071316  -0.098066  0  3.942643  0
C  C216  1  0.05032470  0.11464330  0.74549340  1  -0.003612  0  -0.071356  -0.098061  0  3.942486  0
C  C217  1  0.05032437  0.38535632  0.25450674  1  -0.003608  0  -0.071313  -0.09802  0  3.942659  0
C  C218  1  0.44967517  0.38535782  0.24549286  1  -0.004234  0  -0.071313  -0.097949  0  3.942528  0
C  C219  1  0.44967151  0.11464335  0.75450620  1  -0.003688  0  -0.071322  -0.098084  0  3.942671  0
C  C220  1  0.83168070  0.89080511  0.00213498  1  -0.001501  0  -0.075963  -0.093553  0  3.945505  0
C  C221  1  0.83168142  0.60919260  0.99786457  1  -0.0007  0  -0.075975  -0.093606  0  3.94547  0
C  C222  1  0.66831481  0.60919446  0.50213326  1  -0.000751  0  -0.076001  -0.093546  0  3.945557  0
C  C223  1  0.66831789  0.89080875  0.49786459  1  -0.001364  0  -0.076008  -0.093737  0  3.945596  0
C  C224  1  0.16832016  0.10919323  0.99786595  1  -0.001498  0  -0.076028  -0.093659  0  3.945513  0
C  C225  1  0.16832240  0.39080713  0.00213636  1  -0.001404  0  -0.075961  -0.093547  0  3.945546  0
C  C226  1  0.33168209  0.39080736  0.49786633  1  -0.001368  0  -0.075996  -0.093561  0  3.945425  0
C  C227  1  0.33168000  0.10919724  0.50213323  1  -0.001442  0  -0.076003  -0.093599  0  3.945623  0
C  C228  1  0.74994486  0.99207032  0.78394775  1  -0.056881  0  -0.169558  -0.193929  0  3.921365  0
C  C229  1  0.74994731  0.50792736  0.21605185  1  -0.056901  0  -0.169553  -0.193941  0  3.921237  0
C  C230  1  0.75005890  0.50792710  0.28394981  1  0.057655  0  -0.169544  -0.193889  0  3.921263  0
C  C231  1  0.75005562  0.99206919  0.71604979  1  0.057597  0  -0.169575  -0.193918  0  3.921386  0
C  C232  1  0.25005501  0.00793081  0.21605096  1  -0.056843  0  -0.169545  -0.19386  0  3.921312  0
C  C233  1  0.25005256  0.49206959  0.78394731  1  -0.056833  0  -0.169575  -0.193885  0  3.921223  0
C  C234  1  0.24993998  0.49206915  0.71604935  1  0.057615  0  -0.16953  -0.193831  0  3.921297  0
C  C235  1  0.24994227  0.00793124  0.28394937  1  0.057601  0  -0.169555  -0.193962  0  3.921377  0
N  N236  1  0.81682931  0.90337126  0.87232919  1  -1.211129  0  -0.325052  -0.28422  0  3.262945  0
N  N237  1  0.81683203  0.59662575  0.12766992  1  -1.211732  0  -0.325022  -0.284058  0  3.263449  0
N  N238  1  0.68318808  0.59663036  0.37232568  1  -1.211081  0  -0.324899  -0.283979  0  3.262166  0
N  N239  1  0.68317308  0.90336660  0.62767039  1  -1.211254  0  -0.325135  -0.284224  0  3.263034  0
N  N240  1  0.18318637  0.09663056  0.12767307  1  -1.210937  0  -0.324979  -0.284057  0  3.262114  0
N  N241  1  0.18317278  0.40337120  0.87233056  1  -1.211552  0  -0.324998  -0.284091  0  3.263164  0
N  N242  1  0.31680783  0.40336798  0.62767525  1  -1.210944  0  -0.324932  -0.283982  0  3.262133  0
N  N243  1  0.31681295  0.09663244  0.37232565  1  -1.211077  0  -0.324917  -0.283977  0  3.26218  0
N  N244  1  0.10476710  0.76689541  0.22802246  1  -1.254877  0  -0.333961  -0.213337  0  3.612836  0
N  N245  1  0.10476646  0.73310202  0.77197832  1  -1.255459  0  -0.334013  -0.21338  0  3.612843  0
N  N246  1  0.39523516  0.73310433  0.72802647  1  -1.254685  0  -0.33396  -0.213377  0  3.612869  0
N  N247  1  0.39523273  0.76689739  0.27197773  1  -1.255239  0  -0.334015  -0.213376  0  3.612733  0
N  N248  1  0.89523376  0.23310501  0.77197536  1  -1.254841  0  -0.333948  -0.21327  0  3.612676  0
N  N249  1  0.89523044  0.26689632  0.22802350  1  -1.254822  0  -0.333967  -0.213377  0  3.612802  0
N  N250  1  0.60476274  0.26689471  0.27197624  1  -1.25481  0  -0.333913  -0.213246  0  3.612589  0
N  N251  1  0.60476417  0.23310513  0.72802364  1  -1.254805  0  -0.333938  -0.213296  0  3.612725  0
Cl  Cl252  1  0.19245312  0.59837536  0.33360929  1  -0.668006  0  -0.32579  -0.498437  0  1.156005  0
Cl  Cl253  1  0.19245186  0.90162280  0.66639145  1  -0.667983  0  -0.325782  -0.498428  0  1.156021  0
Cl  Cl254  1  0.30754692  0.90162566  0.83361059  1  -0.668019  0  -0.325741  -0.498362  0  1.156014  0
Cl  Cl255  1  0.30754955  0.59837532  0.16639054  1  -0.667993  0  -0.325802  -0.498448  0  1.155989  0
Cl  Cl256  1  0.80754774  0.40162437  0.66639031  1  -0.668008  0  -0.325785  -0.498416  0  1.155988  0
Cl  Cl257  1  0.80754702  0.09837554  0.33360903  1  -0.668006  0  -0.325789  -0.498435  0  1.156019  0
Cl  Cl258  1  0.69245493  0.09837546  0.16639034  1  -0.667998  0  -0.32579  -0.498436  0  1.156003  0
Cl  Cl259  1  0.69245427  0.40162302  0.83361039  1  -0.667998  0  -0.325801  -0.498429  0  1.15599  0
