# generated using pymatgen
data_AgH4C4N3O2
_symmetry_space_group_name_H-M   'P 1'
_cell_length_a   6.01520507
_cell_length_b   7.60575845
_cell_length_c   7.60560465
_cell_angle_alpha   61.86591460
_cell_angle_beta   79.42617249
_cell_angle_gamma   79.42804157
_symmetry_Int_Tables_number   1
_chemical_formula_structural   AgH4C4N3O2
_chemical_formula_sum   'Ag2 H8 C8 N6 O4'
_cell_volume   299.74296138
_cell_formula_units_Z   2
loop_
 _symmetry_equiv_pos_site_id
 _symmetry_equiv_pos_as_xyz
  1  'x, y, z'
loop_
 _atom_site_type_symbol
 _atom_site_label
 _atom_site_symmetry_multiplicity
 _atom_site_fract_x
 _atom_site_fract_y
 _atom_site_fract_z
 _atom_site_occupancy
 _atom_site_pbe_bader_spin_density
 _atom_site_pbe_cm5_charge
 _atom_site_pbe_ddec_charge
 _atom_site_pbe_ddec_spin_density
 _atom_site_pbe_ddec_sum_bond_order
 _atom_site_pbe_magmom
Ag  Ag0  1  0.25000262  0.04390828  0.95609926  1  0  0.409498  0.28195  0  1.983151  0
Ag  Ag1  1  0.74999982  0.95609267  0.04389920  1  0  0.409447  0.28186  0  1.983218  0
H  H2  1  0.49318093  0.70571084  0.82552183  1  0  0.119552  0.10469  0  1.004485  0
H  H3  1  0.00680593  0.17448711  0.29430038  1  0  0.119565  0.104769  0  1.004311  0
H  H4  1  0.50682121  0.29427823  0.17447932  1  0  0.11957  0.104776  0  1.00448  0
H  H5  1  0.99319186  0.82551103  0.70569598  1  0  0.119564  0.104733  0  1.004413  0
H  H6  1  0.66278287  0.67784694  0.51117133  1  0  0.116145  0.079444  0  1.071268  0
H  H7  1  0.83720120  0.48884363  0.32215465  1  0  0.116155  0.079514  0  1.071229  0
H  H8  1  0.33722369  0.32214635  0.48883396  1  0  0.116145  0.079455  0  1.071156  0
H  H9  1  0.16279427  0.51115887  0.67784533  1  0  0.116148  0.079456  0  1.071309  0
C  C10  1  0.49628353  0.83757625  0.67959345  1  0  0.051984  0.040188  0  3.90794  0
C  C11  1  0.00371380  0.32041745  0.16241730  1  0  0.051962  0.040069  0  3.907794  0
C  C12  1  0.50372542  0.16241106  0.32041288  1  0  0.051907  0.040033  0  3.908338  0
C  C13  1  0.99628678  0.67958674  0.83757339  1  0  0.051995  0.040189  0  3.907701  0
C  C14  1  0.59051345  0.82268473  0.50500172  1  0  0.052339  0.059731  0  3.888097  0
C  C15  1  0.90948037  0.49501890  0.17730069  1  0  0.052249  0.059456  0  3.887702  0
C  C16  1  0.40949245  0.17729962  0.49500631  1  0  0.052257  0.059594  0  3.88809  0
C  C17  1  0.09051807  0.50498989  0.82268559  1  0  0.052264  0.059491  0  3.887774  0
N  N18  1  0.40561641  0.01451605  0.67479268  1  0  -0.318488  -0.14977  0  3.538559  0
N  N19  1  0.09439705  0.32520589  0.98547416  1  0  -0.318459  -0.149642  0  3.538644  0
N  N20  1  0.59439338  0.98546376  0.32521688  1  0  -0.318441  -0.149817  0  3.538864  0
N  N21  1  0.90560674  0.67480146  0.01450813  1  0  -0.318494  -0.149696  0  3.538454  0
N  N22  1  0.24999675  0.66162739  0.33837627  1  0  -0.066004  0.199879  0  3.592025  0
N  N23  1  0.74999385  0.33838523  0.66163299  1  0  -0.066043  0.19983  0  3.5921  0
O  O24  1  0.12444863  0.81966841  0.32518524  1  0  -0.193231  -0.375082  0  2.240908  0
O  O25  1  0.37555891  0.67480601  0.18033927  1  0  -0.193205  -0.37503  0  2.240894  0
O  O26  1  0.87554844  0.18034717  0.67482055  1  0  -0.1932  -0.375068  0  2.240909  0
O  O27  1  0.62442518  0.32520533  0.81966744  1  0  -0.193183  -0.374999  0  2.240948  0
