# generated using pymatgen
data_ZnH22C18(NO)6
_symmetry_space_group_name_H-M   'P 1'
_cell_length_a   10.35486145
_cell_length_b   10.72640969
_cell_length_c   12.47400000
_cell_angle_alpha   104.36901649
_cell_angle_beta   102.24969199
_cell_angle_gamma   110.71146457
_symmetry_Int_Tables_number   1
_chemical_formula_structural   ZnH22C18(NO)6
_chemical_formula_sum   'Zn2 H44 C36 N12 O12'
_cell_volume   1184.63821377
_cell_formula_units_Z   2
loop_
 _symmetry_equiv_pos_site_id
 _symmetry_equiv_pos_as_xyz
  1  'x, y, z'
loop_
 _atom_site_type_symbol
 _atom_site_label
 _atom_site_symmetry_multiplicity
 _atom_site_fract_x
 _atom_site_fract_y
 _atom_site_fract_z
 _atom_site_occupancy
 _atom_site_hle17_bader_spin_density
 _atom_site_hle17_ddec_charge
 _atom_site_hle17_ddec_spin_density
 _atom_site_hle17_ddec_sum_bond_order
 _atom_site_hle17_magmom
 _atom_site_hse06_10hf_bader_spin_density
 _atom_site_hse06_10hf_ddec_charge
 _atom_site_hse06_10hf_ddec_spin_density
 _atom_site_hse06_10hf_ddec_sum_bond_order
 _atom_site_hse06_10hf_magmom
 _atom_site_hse06_bader_spin_density
 _atom_site_hse06_ddec_charge
 _atom_site_hse06_ddec_spin_density
 _atom_site_hse06_ddec_sum_bond_order
 _atom_site_hse06_magmom
 _atom_site_pbe_bader_charge
 _atom_site_pbe_bader_spin_density
 _atom_site_pbe_cm5_charge
 _atom_site_pbe_ddec_charge
 _atom_site_pbe_ddec_spin_density
 _atom_site_pbe_ddec_sum_bond_order
 _atom_site_pbe_magmom
Zn  Zn0  1  0.55582329  0.94821155  0.72332102  1  0  0.978589  0  1.860588  0  0  0.778551  0  2.337356  0  0  0.826538  0  2.284056  0  1.243258  0  0.694667  0.745217  0  2.373693  0
Zn  Zn1  1  0.44417764  0.05178646  0.27667848  1  0  0.978631  0  1.860561  0  0  0.778578  0  2.337325  0  0  0.826564  0  2.284026  0  1.243262  0  0.69468  0.745243  0  2.373665  0
H  H2  1  0.64242768  0.61976998  0.81457983  1  0  0.306801  0  0.925369  0  0  0.287503  0  0.990043  0  0  0.295849  0  0.983896  0  0.518569  0  0.306165  0.281771  0  0.99416  0
H  H3  1  0.35756976  0.38022910  0.18542089  1  0  0.306818  0  0.92537  0  0  0.287506  0  0.990044  0  0  0.295853  0  0.983893  0  0.518579  0  0.306145  0.281779  0  0.994165  0
H  H4  1  0.80031205  0.82455889  0.80586077  1  0  0.309764  0  0.914807  0  0  0.287943  0  0.98443  0  0  0.296225  0  0.977998  0  0.519681  0  0.30721  0.281981  0  0.989174  0
H  H5  1  0.19968639  0.17544019  0.19413932  1  0  0.309761  0  0.914864  0  0  0.28792  0  0.984504  0  0  0.296205  0  0.978074  0  0.519677  0  0.307202  0.281958  0  0.989247  0
H  H6  1  0.85762360  0.55277001  0.37139237  1  0  0.301853  0  0.861912  0  0  0.296283  0  0.903613  0  0  0.302935  0  0.899264  0  0.446929  0  0.332433  0.291662  0  0.90667  0
H  H7  1  0.14237728  0.44723014  0.62860838  1  0  0.301817  0  0.861905  0  0  0.296251  0  0.903616  0  0  0.302901  0  0.899268  0  0.446918  0  0.33241  0.29163  0  0.906673  0
H  H8  1  0.61932682  0.42594742  0.34725457  1  0  0.303889  0  0.945824  0  0  0.281779  0  1.018613  0  0  0.290412  0  1.011185  0  0.492516  0  0.297658  0.275743  0  1.023733  0
H  H9  1  0.38067360  0.57405166  0.65274586  1  0  0.303699  0  0.94603  0  0  0.281729  0  1.018642  0  0  0.290361  0  1.011212  0  0.492519  0  0.297637  0.275703  0  1.023758  0
H  H10  1  0.82960393  0.21303817  0.85339635  1  0  0.094648  0  0.941298  0  0  0.101993  0  1.005128  0  0  0.105497  0  1.001047  0  0.125515  0  0.118518  0.099419  0  1.007909  0
H  H11  1  0.17039498  0.78696197  0.14660325  1  0  0.094621  0  0.941306  0  0  0.101967  0  1.005142  0  0  0.10547  0  1.001062  0  0.125442  0  0.118503  0.099392  0  1.007923  0
H  H12  1  0.91229525  0.47333647  0.90441609  1  0  0.135541  0  0.969322  0  0  0.142402  0  1.029469  0  0  0.147011  0  1.027003  0  0.135006  0  0.110685  0.139159  0  1.031328  0
H  H13  1  0.08770319  0.52666261  0.09558480  1  0  0.135553  0  0.969271  0  0  0.142394  0  1.029441  0  0  0.147004  0  1.026974  0  0.134996  0  0.110669  0.139153  0  1.031299  0
H  H14  1  0.46466195  0.38823543  0.73225073  1  0  0.117643  0  0.946542  0  0  0.127572  0  1.004471  0  0  0.131946  0  1.002419  0  0.066656  0  0.107434  0.124414  0  1.006269  0
H  H15  1  0.53533649  0.61176365  0.26775016  1  0  0.117636  0  0.94659  0  0  0.127568  0  1.00452  0  0  0.131944  0  1.002468  0  0.066638  0  0.107439  0.12441  0  1.006317  0
H  H16  1  0.40123998  0.13015661  0.68224215  1  0  0.077076  0  0.945456  0  0  0.086264  0  1.007197  0  0  0.088827  0  1.004757  0  0.104546  0  0.114774  0.084285  0  1.009074  0
H  H17  1  0.59875846  0.86984247  0.31775714  1  0  0.077005  0  0.945536  0  0  0.086209  0  1.007262  0  0  0.088771  0  1.004821  0  0.104563  0  0.114746  0.084231  0  1.009139  0
H  H18  1  0.00509221  0.03084151  0.88689720  1  0  0.069911  0  0.919688  0  0  0.086977  0  0.978908  0  0  0.08766  0  0.978532  0  0.072082  0  0.107961  0.086279  0  0.979442  0
H  H19  1  0.99490623  0.96915757  0.11310369  1  0  0.069904  0  0.919687  0  0  0.086971  0  0.978917  0  0  0.087655  0  0.978541  0  0.072062  0  0.107946  0.086272  0  0.979453  0
H  H20  1  0.10266802  0.94535596  0.95281110  1  0  0.067164  0  0.923363  0  0  0.082916  0  0.984592  0  0  0.083696  0  0.984001  0  0.062711  0  0.104256  0.082247  0  0.985028  0
H  H21  1  0.89733089  0.05464419  0.04719011  1  0  0.067176  0  0.923328  0  0  0.082927  0  0.984564  0  0  0.083707  0  0.983974  0  0.062691  0  0.104271  0.082258  0  0.985  0
H  H22  1  0.35928877  0.80734965  0.46408628  1  0  0.098406  0  0.942344  0  0  0.106483  0  1.005073  0  0  0.10884  0  1.003117  0  0.161476  0  0.122802  0.104721  0  1.006629  0
H  H23  1  0.64071268  0.19264729  0.53591389  1  0  0.098402  0  0.942316  0  0  0.10649  0  1.005038  0  0  0.108848  0  1.00308  0  0.161484  0  0.122807  0.104727  0  1.006596  0
H  H24  1  0.09281747  0.65983784  0.35784786  1  0  0.117152  0  0.941943  0  0  0.128509  0  0.998325  0  0  0.132064  0  0.997741  0  0.055016  0  0.110361  0.125972  0  0.999045  0
H  H25  1  0.90718253  0.34015804  0.64215182  1  0  0.117148  0  0.941939  0  0  0.128513  0  0.99831  0  0  0.132068  0  0.997727  0  0.055026  0  0.110367  0.125976  0  0.999029  0
H  H26  1  0.02891437  0.72366682  0.69632167  1  0  0.14547  0  0.975084  0  0  0.152928  0  1.03058  0  0  0.157874  0  1.027886  0  0.146701  0  0.115975  0.149447  0  1.032688  0
H  H27  1  0.97108600  0.27633439  0.30367922  1  0  0.145462  0  0.975077  0  0  0.152957  0  1.030533  0  0  0.157867  0  1.027888  0  0.146686  0  0.115973  0.149474  0  1.032647  0
H  H28  1  0.29875430  0.86164861  0.78729334  1  0  0.085841  0  0.940825  0  0  0.098134  0  0.996115  0  0  0.100524  0  0.993978  0  0.141599  0  0.121295  0.096373  0  0.997678  0
H  H29  1  0.70124705  0.13835260  0.21270772  1  0  0.085792  0  0.940867  0  0  0.098081  0  0.996174  0  0  0.100466  0  0.994037  0  0.141603  0  0.121279  0.096321  0  0.997736  0
H  H30  1  0.54913485  0.40194442  0.55179304  1  0  0.060289  0  0.94077  0  0  0.072805  0  1.011861  0  0  0.07256  0  1.013116  0  0.051753  0  0.100145  0.072808  0  1.011245  0
H  H31  1  0.45086457  0.59805466  0.44820722  1  0  0.060311  0  0.940758  0  0  0.07282  0  1.011858  0  0  0.072575  0  1.013114  0  0.051754  0  0.100161  0.072823  0  1.011242  0
H  H32  1  0.42790816  0.34936521  0.40726849  1  0  0.075957  0  0.946315  0  0  0.089175  0  1.012506  0  0  0.090386  0  1.011506  0  0.112341  0  0.108172  0.088208  0  1.013171  0
H  H33  1  0.57209319  0.65063600  0.59273016  1  0  0.075932  0  0.946345  0  0  0.089152  0  1.01254  0  0  0.090363  0  1.01154  0  0.112333  0  0.108175  0.088186  0  1.013204  0
H  H34  1  0.82578730  0.85740677  0.47467417  1  0  0.127146  0  0.938599  0  0  0.14723  0  0.995688  0  0  0.14953  0  0.994788  0  0.044084  0  0.094109  0.145445  0  0.996627  0
H  H35  1  0.17421400  0.14259657  0.52532413  1  0  0.127186  0  0.938546  0  0  0.147277  0  0.995629  0  0  0.149577  0  0.994728  0  0.044092  0  0.094122  0.145492  0  0.996567  0
H  H36  1  0.93501213  0.90802223  0.62438104  1  0  0.133489  0  0.95345  0  0  0.150202  0  1.014994  0  0  0.152794  0  1.014287  0  0.056886  0  0.092706  0.148356  0  1.015569  0
H  H37  1  0.06498964  0.09198218  0.37561756  1  0  0.133553  0  0.953435  0  0  0.150279  0  1.014953  0  0  0.152871  0  1.014246  0  0.056938  0  0.092748  0.148438  0  1.015523  0
H  H38  1  0.91855549  0.03941363  0.56449715  1  0  0.12629  0  0.950321  0  0  0.147088  0  1.00923  0  0  0.148541  0  1.009983  0  0.071091  0  0.094838  0.145924  0  1.008931  0
H  H39  1  0.08144483  0.96058971  0.43550177  1  0  0.126336  0  0.950317  0  0  0.147151  0  1.009208  0  0  0.148604  0  1.009961  0  0.071165  0  0.094877  0.145985  0  1.008912  0
H  H40  1  0.48730812  0.69457489  0.00941512  1  0  0.133239  0  0.941355  0  0  0.151892  0  0.997648  0  0  0.15393  0  0.997761  0  0.062727  0  0.092879  0.150381  0  0.997713  0
H  H41  1  0.51269568  0.30542738  0.99058660  1  0  0.133275  0  0.941387  0  0  0.151932  0  0.997667  0  0  0.153968  0  0.997784  0  0.062685  0  0.092889  0.150423  0  0.997731  0
H  H42  1  0.55797120  0.88568144  0.06856859  1  0  0.13698  0  0.960658  0  0  0.152876  0  1.025068  0  0  0.15544  0  1.023956  0  0.089514  0  0.093253  0.150963  0  1.026004  0
H  H43  1  0.44203359  0.11432083  0.93143330  1  0  0.136979  0  0.960667  0  0  0.152862  0  1.025086  0  0  0.155427  0  1.023973  0  0.089706  0  0.093243  0.15095  0  1.026022  0
H  H44  1  0.67559960  0.80224687  0.04128820  1  0  0.13225  0  0.939663  0  0  0.151356  0  0.999632  0  0  0.153541  0  0.999227  0  0.044875  0  0.097537  0.149863  0  0.999849  0
H  H45  1  0.32440425  0.19775327  0.95871307  1  0  0.132196  0  0.939626  0  0  0.1513  0  0.999613  0  0  0.153485  0  0.999208  0  0.044933  0  0.097517  0.149807  0  0.999829  0
C  C46  1  0.75193161  0.25538838  0.82587638  1  0  0.141346  0  3.723304  0  0  0.109601  0  3.97254  0  0  0.119796  0  3.98921  0  0.396845  0  0.042653  0.103229  0  3.960749  0
C  C47  1  0.24806683  0.74461070  0.17412371  1  0  0.141395  0  3.723296  0  0  0.109645  0  3.972536  0  0  0.119838  0  3.98921  0  0.396888  0  0.042679  0.103273  0  3.960747  0
C  C48  1  0.79852288  0.40094070  0.85505403  1  0  -0.236965  0  3.691598  0  0  -0.252871  0  3.940349  0  0  -0.264364  0  3.958902  0  0.059049  0  -0.098974  -0.245573  0  3.927812  0
C  C49  1  0.20147410  0.59905731  0.14494717  1  0  -0.236966  0  3.691465  0  0  -0.25285  0  3.940227  0  0  -0.264344  0  3.958781  0  0.059061  0  -0.098955  -0.245554  0  3.927689  0
C  C50  1  0.69540645  0.45419225  0.82172740  1  0  0.342134  0  3.793084  0  0  0.325359  0  4.04447  0  0  0.34264  0  4.060139  0  0.443271  0  0.128337  0.314031  0  4.033694  0
C  C51  1  0.30459391  0.54580896  0.17827509  1  0  0.342105  0  3.793052  0  0  0.325297  0  4.044451  0  0  0.342577  0  4.060121  0  0.443283  0  0.128321  0.313982  0  4.033675  0
C  C52  1  0.54869783  0.35313290  0.76010128  1  0  -0.243378  0  3.711655  0  0  -0.256805  0  3.964812  0  0  -0.268085  0  3.982655  0  -0.012853  0  -0.09747  -0.249696  0  3.95306  0
C  C53  1  0.45130107  0.64686725  0.23989992  1  0  -0.2434  0  3.711771  0  0  -0.256841  0  3.964973  0  0  -0.268122  0  3.982816  0  -0.012797  0  -0.097511  -0.249729  0  3.953215  0
C  C54  1  0.51255584  0.20967645  0.73333715  1  0  0.148985  0  3.75663  0  0  0.114395  0  4.013419  0  0  0.124737  0  4.030405  0  0.455925  0  0.041188  0.107727  0  4.00175  0
C  C55  1  0.48744307  0.79032369  0.26666245  1  0  0.149051  0  3.756802  0  0  0.114449  0  4.013587  0  0  0.124793  0  4.03057  0  0.455897  0  0.041225  0.10778  0  4.00192  0
C  C56  1  0.86674046  0.70991520  0.90060590  1  0  0.717473  0  3.884545  0  0  0.650782  0  4.188034  0  0  0.685571  0  4.183404  0  1.81502  0  0.327842  0.627315  0  4.190474  0
C  C57  1  0.13325647  0.29008494  0.09939496  1  0  0.717589  0  3.884556  0  0  0.650724  0  4.188251  0  0  0.685521  0  4.18362  0  1.814919  0  0.327825  0.627269  0  4.190686  0
C  C58  1  0.00289150  0.96284329  0.93995231  1  0  0.038126  0  3.671163  0  0  -0.024282  0  3.941878  0  0  -0.019969  0  3.95359  0  0.323676  0  -0.060659  -0.027111  0  3.933981  0
C  C59  1  0.99710595  0.03715579  0.06004841  1  0  0.038114  0  3.671131  0  0  -0.024328  0  3.941859  0  0  -0.020013  0  3.95358  0  0.345705  0  -0.060638  -0.027157  0  3.933962  0
C  C60  1  0.28179039  0.78454750  0.51138603  1  0  0.171768  0  3.688397  0  0  0.135033  0  3.94578  0  0  0.146622  0  3.960914  0  0.414762  0  0.054303  0.127558  0  3.935511  0
C  C61  1  0.71821008  0.21544945  0.48861396  1  0  0.171732  0  3.688265  0  0  0.135  0  3.94565  0  0  0.146588  0  3.960784  0  0.414787  0  0.054309  0.127526  0  3.93538  0
C  C62  1  0.13297066  0.70408467  0.45350757  1  0  -0.240289  0  3.694658  0  0  -0.257034  0  3.950532  0  0  -0.268652  0  3.969452  0  0.018585  0  -0.096755  -0.249577  0  3.938258  0
C  C63  1  0.86703126  0.29591334  0.54649210  1  0  -0.240288  0  3.694601  0  0  -0.257047  0  3.950489  0  0  -0.268666  0  3.96941  0  0.018576  0  -0.096762  -0.249588  0  3.938214  0
C  C64  1  0.03640445  0.67878707  0.51850453  1  0  0.328934  0  3.800953  0  0  0.31338  0  4.059875  0  0  0.329073  0  4.076587  0  0.463866  0  0.122788  0.303162  0  4.048262  0
C  C65  1  0.96359498  0.32121201  0.48149413  1  0  0.329002  0  3.800815  0  0  0.31346  0  4.059726  0  0  0.329155  0  4.076424  0  0.463876  0  0.122815  0.303242  0  4.048114  0
C  C66  1  0.09810768  0.73903376  0.64205636  1  0  -0.244293  0  3.713467  0  0  -0.261802  0  3.966574  0  0  -0.272806  0  3.984803  0  -0.053844  0  -0.103325  -0.25514  0  3.954561  0
C  C67  1  0.90189420  0.26096638  0.35794296  1  0  -0.244344  0  3.713425  0  0  -0.261894  0  3.966525  0  0  -0.272873  0  3.984771  0  -0.053963  0  -0.103363  -0.255231  0  3.954515  0
C  C68  1  0.24789628  0.81625528  0.69211459  1  0  0.13034  0  3.75558  0  0  0.098405  0  4.005642  0  0  0.107857  0  4.023402  0  0.426239  0  0.039744  0.092399  0  3.993564  0
C  C69  1  0.75210413  0.18374380  0.30788425  1  0  0.130393  0  3.755583  0  0  0.098458  0  4.005674  0  0  0.107919  0  4.023419  0  0.426345  0  0.039767  0.092452  0  3.993596  0
C  C70  1  0.77812352  0.56546782  0.51178020  1  0  0.706003  0  3.90308  0  0  0.63783  0  4.20994  0  0  0.670971  0  4.208108  0  1.812745  0  0.325784  0.615372  0  4.210944  0
C  C71  1  0.22187731  0.43453445  0.48822020  1  0  0.705993  0  3.90311  0  0  0.637789  0  4.210045  0  0  0.670925  0  4.208213  0  1.812728  0  0.325744  0.615346  0  4.211048  0
C  C72  1  0.52067176  0.43852163  0.47902265  1  0  0.038312  0  3.64797  0  0  -0.022086  0  3.913734  0  0  -0.017391  0  3.924189  0  0.291044  0  -0.066832  -0.025029  0  3.906292  0
C  C73  1  0.47932861  0.56147958  0.52097743  1  0  0.038385  0  3.647937  0  0  -0.022022  0  3.913771  0  0  -0.017328  0  3.924224  0  0.313591  0  -0.066814  -0.024949  0  3.906334  0
C  C74  1  0.72830520  0.92462837  0.60009501  1  0  0.724534  0  3.861317  0  0  0.684628  0  4.153005  0  0  0.717446  0  4.14729  0  1.555141  0  0.197918  0.662403  0  4.15586  0
C  C75  1  0.27169615  0.07537284  0.39990365  1  0  0.724636  0  3.861121  0  0  0.684723  0  4.152827  0  0  0.717541  0  4.147109  0  1.555081  0  0.197926  0.662499  0  4.155685  0
C  C76  1  0.86065306  0.93149672  0.56469204  1  0  -0.443794  0  3.674683  0  0  -0.516808  0  3.905452  0  0  -0.523679  0  3.90871  0  -0.102664  0  -0.247671  -0.511757  0  3.903268  0
C  C77  1  0.13934772  0.06850768  0.43530559  1  0  -0.443952  0  3.674657  0  0  -0.517002  0  3.905437  0  0  -0.52387  0  3.90869  0  -0.102775  0  -0.247734  -0.511955  0  3.903254  0
C  C78  1  0.53795848  0.80050581  0.88702859  1  0  0.752986  0  3.835139  0  0  0.711141  0  4.132398  0  0  0.744693  0  4.124167  0  1.556309  0  0.210137  0.688453  0  4.137062  0
C  C79  1  0.46204485  0.19949540  0.11297362  1  0  0.753033  0  3.834934  0  0  0.711152  0  4.132229  0  0  0.744706  0  4.123994  0  1.556261  0  0.210152  0.688466  0  4.136891  0
C  C80  1  0.56484389  0.79560122  0.00953316  1  0  -0.460466  0  3.67403  0  0  -0.533599  0  3.904757  0  0  -0.541014  0  3.908016  0  -0.106375  0  -0.251241  -0.528331  0  3.90222  0
C  C81  1  0.43515991  0.20440106  0.99046856  1  0  -0.460479  0  3.673998  0  0  -0.533595  0  3.904737  0  0  -0.54101  0  3.908  0  -0.106545  0  -0.251255  -0.528331  0  3.902199  0
N  N82  1  0.61167664  0.15939984  0.76513346  1  0  -0.369027  0  3.325155  0  0  -0.283593  0  3.607715  0  0  -0.305701  0  3.622282  0  -1.262462  0  -0.352845  -0.268661  0  3.597629  0
N  N83  1  0.38832133  0.84059818  0.23486472  1  0  -0.369021  0  3.325325  0  0  -0.283581  0  3.607884  0  0  -0.305688  0  3.622452  0  -1.262469  0  -0.352847  -0.268649  0  3.597798  0
N  N84  1  0.72822637  0.59499022  0.84309748  1  0  -0.491563  0  3.315843  0  0  -0.430334  0  3.55227  0  0  -0.45447  0  3.557262  0  -1.273868  0  -0.400499  -0.413866  0  3.548222  0
N  N85  1  0.27177206  0.40500886  0.15690342  1  0  -0.491628  0  3.315723  0  0  -0.430276  0  3.552138  0  0  -0.454407  0  3.557125  0  -1.273844  0  -0.400463  -0.413844  0  3.548115  0
N  N86  1  0.87495596  0.82868672  0.87666659  1  0  -0.480628  0  3.291815  0  0  -0.421535  0  3.55194  0  0  -0.444009  0  3.559196  0  -1.267111  0  -0.433009  -0.406238  0  3.54686  0
N  N87  1  0.12504347  0.17131236  0.12333447  1  0  -0.480668  0  3.291798  0  0  -0.421475  0  3.551934  0  0  -0.443976  0  3.55922  0  -1.266994  0  -0.433009  -0.406177  0  3.546848  0
N  N88  1  0.34008422  0.83937922  0.62959276  1  0  -0.358534  0  3.327118  0  0  -0.27497  0  3.616728  0  0  -0.295815  0  3.62825  0  -1.241279  0  -0.348057  -0.260883  0  3.608321  0
N  N89  1  0.65991718  0.16061986  0.37040545  1  0  -0.358458  0  3.326977  0  0  -0.274923  0  3.616625  0  0  -0.295771  0  3.62815  0  -1.241288  0  -0.348062  -0.260837  0  3.608217  0
N  N90  1  0.88873407  0.59727150  0.46005439  1  0  -0.493292  0  3.304221  0  0  -0.439991  0  3.54892  0  0  -0.461962  0  3.554068  0  -1.239384  0  -0.399707  -0.424972  0  3.544949  0
N  N91  1  0.11126728  0.40272971  0.53994506  1  0  -0.493261  0  3.304083  0  0  -0.439965  0  3.548799  0  0  -0.461931  0  3.553943  0  -1.239353  0  -0.399679  -0.424948  0  3.544825  0
N  N92  1  0.64188259  0.48042325  0.43438912  1  0  -0.498233  0  3.311203  0  0  -0.440636  0  3.571891  0  0  -0.463731  0  3.580009  0  -1.238497  0  -0.438147  -0.425089  0  3.565981  0
N  N93  1  0.35811731  0.51957689  0.56560985  1  0  -0.498088  0  3.311327  0  0  -0.440613  0  3.571965  0  0  -0.463698  0  3.580076  0  -1.238492  0  -0.438149  -0.425109  0  3.566079  0
O  O94  1  0.96940678  0.70436597  0.96878113  1  0  -0.609635  0  1.876875  0  0  -0.56968  0  2.091607  0  0  -0.590724  0  2.082539  0  -1.169138  0  -0.319567  -0.555067  0  2.097162  0
O  O95  1  0.03059264  0.29563311  0.03122074  1  0  -0.609646  0  1.877005  0  0  -0.569639  0  2.091817  0  0  -0.590685  0  2.082747  0  -1.169147  0  -0.319543  -0.555027  0  2.097365  0
O  O96  1  0.80435758  0.61375085  0.61894973  1  0  -0.581165  0  1.930312  0  0  -0.534395  0  2.152451  0  0  -0.555694  0  2.147713  0  -1.145769  0  -0.300853  -0.519525  0  2.155747  0
O  O97  1  0.19564221  0.38625356  0.38104933  1  0  -0.581212  0  1.93041  0  0  -0.534413  0  2.152553  0  0  -0.555705  0  2.14781  0  -1.145769  0  -0.300835  -0.51954  0  2.15584  0
O  O98  1  0.73182323  0.91990385  0.70410197  1  0  -0.663808  0  2.008242  0  0  -0.581717  0  2.264555  0  0  -0.610211  0  2.249522  0  -1.177323  0  -0.331436  -0.561615  0  2.273942  0
O  O99  1  0.26817671  0.08009416  0.29589495  1  0  -0.663883  0  2.008251  0  0  -0.581764  0  2.264543  0  0  -0.610258  0  2.249514  0  -1.177281  0  -0.331439  -0.561658  0  2.273922  0
O  O100  1  0.62195283  0.92770453  0.53268364  1  0  -0.633033  0  1.91433  0  0  -0.582435  0  2.144818  0  0  -0.607732  0  2.137969  0  -1.183921  0  -0.316936  -0.564819  0  2.148923  0
O  O101  1  0.37804801  0.07229774  0.46731675  1  0  -0.633081  0  1.914237  0  0  -0.582478  0  2.144724  0  0  -0.607776  0  2.137874  0  -1.183888  0  -0.316954  -0.564863  0  2.148828  0
O  O102  1  0.55751784  0.92194326  0.87809403  1  0  -0.64514  0  2.004399  0  0  -0.572389  0  2.265695  0  0  -0.600889  0  2.251146  0  -1.174774  0  -0.330919  -0.552691  0  2.27495  0
O  O103  1  0.44248648  0.07805795  0.12190595  1  0  -0.645183  0  2.004301  0  0  -0.57239  0  2.265591  0  0  -0.60089  0  2.251038  0  -1.174793  0  -0.330913  -0.552694  0  2.274846  0
O  O104  1  0.50132493  0.68777367  0.80098324  1  0  -0.683058  0  1.947873  0  0  -0.632438  0  2.178141  0  0  -0.655117  0  2.166151  0  -1.231055  0  -0.341638  -0.616633  0  2.185836  0
O  O105  1  0.49867497  0.31222647  0.19901813  1  0  -0.683096  0  1.947811  0  0  -0.632446  0  2.178121  0  0  -0.655124  0  2.166129  0  -1.231041  0  -0.341633  -0.616641  0  2.185816  0
