# generated using pymatgen
data_CdH28C26(NO)6
_symmetry_space_group_name_H-M   'P 1'
_cell_length_a   8.89379028
_cell_length_b   9.99553451
_cell_length_c   11.82718717
_cell_angle_alpha   61.95605600
_cell_angle_beta   87.40971484
_cell_angle_gamma   73.21667826
_symmetry_Int_Tables_number   1
_chemical_formula_structural   CdH28C26(NO)6
_chemical_formula_sum   'Cd1 H28 C26 N6 O6'
_cell_volume   883.32052812
_cell_formula_units_Z   1
loop_
 _symmetry_equiv_pos_site_id
 _symmetry_equiv_pos_as_xyz
  1  'x, y, z'
loop_
 _atom_site_type_symbol
 _atom_site_label
 _atom_site_symmetry_multiplicity
 _atom_site_fract_x
 _atom_site_fract_y
 _atom_site_fract_z
 _atom_site_occupancy
 _atom_site_hle17_bader_spin_density
 _atom_site_hle17_ddec_charge
 _atom_site_hle17_ddec_spin_density
 _atom_site_hle17_ddec_sum_bond_order
 _atom_site_hle17_magmom
 _atom_site_hse06_10hf_bader_spin_density
 _atom_site_hse06_10hf_ddec_charge
 _atom_site_hse06_10hf_ddec_spin_density
 _atom_site_hse06_10hf_ddec_sum_bond_order
 _atom_site_hse06_10hf_magmom
 _atom_site_hse06_bader_spin_density
 _atom_site_hse06_ddec_charge
 _atom_site_hse06_ddec_spin_density
 _atom_site_hse06_ddec_sum_bond_order
 _atom_site_hse06_magmom
 _atom_site_pbe_bader_spin_density
 _atom_site_pbe_cm5_charge
 _atom_site_pbe_ddec_charge
 _atom_site_pbe_ddec_spin_density
 _atom_site_pbe_ddec_sum_bond_order
 _atom_site_pbe_magmom
Cd  Cd0  1  0.50000054  0.49999907  0.49999936  1  0  1.015581  0  1.800631  0  0  0.804013  0  2.260699  0  0  0.855348  0  2.218267  0  0  0.783849  0.768919  0  2.288282  0
H  H1  1  0.22658715  0.94437954  0.82339908  1  0  0.067331  0  0.926128  0  0  0.086465  0  0.983758  0  0  0.087108  0  0.984479  0  0  0.090908  0.085971  0  0.983331  0
H  H2  1  0.77341581  0.05561625  0.17659965  1  0  0.067302  0  0.926095  0  0  0.086454  0  0.983717  0  0  0.087096  0  0.98444  0  0  0.090899  0.085958  0  0.983289  0
H  H3  1  0.03941951  0.00335117  0.87141941  1  0  0.066347  0  0.93783  0  0  0.08573  0  0.996954  0  0  0.086168  0  0.998391  0  0  0.089983  0.085332  0  0.996051  0
H  H4  1  0.96058079  0.99665293  0.12857701  1  0  0.066385  0  0.937814  0  0  0.085766  0  0.996946  0  0  0.086217  0  0.998367  0  0  0.090001  0.085361  0  0.996049  0
H  H5  1  0.00770922  0.73500677  0.94075361  1  0  0.07811  0  0.91752  0  0  0.098705  0  0.969415  0  0  0.099966  0  0.969032  0  0  0.095801  0.097682  0  0.969872  0
H  H6  1  0.99228477  0.26499948  0.05924980  1  0  0.078052  0  0.917576  0  0  0.098713  0  0.969463  0  0  0.099973  0  0.969083  0  0  0.095792  0.097712  0  0.969894  0
H  H7  1  0.19149240  0.67665797  0.88633198  1  0  0.077292  0  0.938651  0  0  0.095191  0  0.996954  0  0  0.095922  0  0.997797  0  0  0.09319  0.094735  0  0.996241  0
H  H8  1  0.80849530  0.32333979  0.11367327  1  0  0.077236  0  0.938581  0  0  0.095183  0  0.996905  0  0  0.095912  0  0.997752  0  0  0.093179  0.094723  0  0.996198  0
H  H9  1  0.57469472  0.59266631  0.20878132  1  0  0.078822  0  0.938728  0  0  0.087283  0  1.001113  0  0  0.089894  0  0.99852  0  0  0.11428  0.085388  0  1.002986  0
H  H10  1  0.42530861  0.40732831  0.79121616  1  0  0.078811  0  0.938698  0  0  0.087258  0  1.001104  0  0  0.089868  0  0.998511  0  0  0.114283  0.085363  0  1.002977  0
H  H11  1  0.44422537  0.67745135  0.99272448  1  0  0.105221  0  0.939645  0  0  0.118351  0  0.992523  0  0  0.121617  0  0.992232  0  0  0.107589  0.115936  0  0.993104  0
H  H12  1  0.55577347  0.32254675  0.00727350  1  0  0.105234  0  0.939644  0  0  0.118376  0  0.992503  0  0  0.121642  0  0.992212  0  0  0.107631  0.11596  0  0.993083  0
H  H13  1  0.00009558  0.70085059  0.15923337  1  0  0.114397  0  0.940263  0  0  0.124074  0  0.998627  0  0  0.127893  0  0.996885  0  0  0.10934  0.121402  0  0.999866  0
H  H14  1  0.99990777  0.29915105  0.84077321  1  0  0.114444  0  0.940173  0  0  0.124116  0  0.998546  0  0  0.127936  0  0.996803  0  0  0.109339  0.121443  0  0.999787  0
H  H15  1  0.14701966  0.61513883  0.36514426  1  0  0.086628  0  0.95717  0  0  0.093896  0  1.024828  0  0  0.095534  0  1.023207  0  0  0.117424  0.092574  0  1.026095  0
H  H16  1  0.85298811  0.38486655  0.63485648  1  0  0.086626  0  0.95731  0  0  0.093904  0  1.024952  0  0  0.095542  0  1.023333  0  0  0.11743  0.092581  0  1.02622  0
H  H17  1  0.90908614  0.97410783  0.70583594  1  0  0.080288  0  0.920751  0  0  0.099516  0  0.974218  0  0  0.10074  0  0.974341  0  0  0.093685  0.098536  0  0.97428  0
H  H18  1  0.09091378  0.02589746  0.29416004  1  0  0.08027  0  0.920807  0  0  0.099504  0  0.974264  0  0  0.100721  0  0.974389  0  0  0.093695  0.098521  0  0.974324  0
H  H19  1  0.02488176  0.10628314  0.63742337  1  0  0.095397  0  0.96099  0  0  0.105631  0  1.033141  0  0  0.10683  0  1.033318  0  0  0.096159  0.104878  0  1.032731  0
H  H20  1  0.97512156  0.89371505  0.36257441  1  0  0.095439  0  0.960947  0  0  0.105689  0  1.033071  0  0  0.10689  0  1.033243  0  0  0.096167  0.104935  0  1.03266  0
H  H21  1  0.13870876  0.56590258  0.59480004  1  0  0.080284  0  0.967438  0  0  0.082347  0  1.043207  0  0  0.08519  0  1.039909  0  0  0.111712  0.080455  0  1.045193  0
H  H22  1  0.86128863  0.43409303  0.40520318  1  0  0.080267  0  0.967505  0  0  0.08234  0  1.04325  0  0  0.085181  0  1.039957  0  0  0.111718  0.080451  0  1.045234  0
H  H23  1  0.96372130  0.74142033  0.67153614  1  0  0.112977  0  0.938592  0  0  0.124272  0  0.994906  0  0  0.127854  0  0.993735  0  0  0.108537  0.121785  0  0.995832  0
H  H24  1  0.03627942  0.25857894  0.32846554  1  0  0.112982  0  0.938577  0  0  0.12426  0  0.994912  0  0  0.127855  0  0.99372  0  0  0.108538  0.121774  0  0.995836  0
H  H25  1  0.30487830  0.99962127  0.58366970  1  0  0.116799  0  0.965386  0  0  0.126635  0  1.023545  0  0  0.129779  0  1.022735  0  0  0.105802  0.124559  0  1.024039  0
H  H26  1  0.69512282  0.00037324  0.41633213  1  0  0.116759  0  0.965425  0  0  0.126613  0  1.023567  0  0  0.129755  0  1.022761  0  0  0.105785  0.124538  0  1.024061  0
H  H27  1  0.46800833  0.81290832  0.50892574  1  0  0.07961  0  0.973988  0  0  0.083122  0  1.045301  0  0  0.087025  0  1.040352  0  0  0.107756  0.080304  0  1.048879  0
H  H28  1  0.53199090  0.18708858  0.49107354  1  0  0.079539  0  0.973998  0  0  0.083067  0  1.045294  0  0  0.086968  0  1.040348  0  0  0.107754  0.080254  0  1.048868  0
C  C29  1  0.10921269  0.92644331  0.83299258  1  0  -0.085279  0  3.658124  0  0  -0.124221  0  3.919971  0  0  -0.125618  0  3.934565  0  0  -0.156203  -0.122954  0  3.909533  0
C  C30  1  0.89078954  0.07355480  0.16700951  1  0  -0.085362  0  3.658071  0  0  -0.124292  0  3.919974  0  0  -0.125696  0  3.934567  0  0  -0.156268  -0.123023  0  3.90954  0
C  C31  1  0.12570653  0.75141903  0.92809149  1  0  -0.164546  0  3.720169  0  0  -0.209544  0  3.975299  0  0  -0.210877  0  3.987094  0  0  -0.160417  -0.208439  0  3.966825  0
C  C32  1  0.87429124  0.24857892  0.07191503  1  0  -0.164307  0  3.719719  0  0  -0.209507  0  3.975113  0  0  -0.210841  0  3.98691  0  0  -0.160331  -0.208414  0  3.96663  0
C  C33  1  0.44755794  0.61713072  0.19288586  1  0  0.134343  0  3.733287  0  0  0.104215  0  3.982855  0  0  0.111944  0  4.002116  0  0  0.042476  0.099254  0  3.969823  0
C  C34  1  0.55244426  0.38286746  0.80711113  1  0  0.134417  0  3.733127  0  0  0.104307  0  3.982708  0  0  0.112038  0  4.001965  0  0  0.042537  0.099346  0  3.969679  0
C  C35  1  0.37378495  0.66521711  0.07305645  1  0  -0.188375  0  3.73311  0  0  -0.205063  0  3.976456  0  0  -0.214225  0  3.998625  0  0  -0.090578  -0.199341  0  3.961765  0
C  C36  1  0.62621685  0.33478582  0.92694123  1  0  -0.1884  0  3.733159  0  0  -0.205089  0  3.976475  0  0  -0.214251  0  3.998642  0  0  -0.09062  -0.199365  0  3.961783  0
C  C37  1  0.20955509  0.69685862  0.05661714  1  0  0.153489  0  3.741074  0  0  0.17094  0  3.978334  0  0  0.176274  0  4.001709  0  0  0.012113  0.167564  0  3.962267  0
C  C38  1  0.79044340  0.30314058  0.94338634  1  0  0.153458  0  3.740946  0  0  0.17095  0  3.978258  0  0  0.176284  0  4.001632  0  0  0.012046  0.167572  0  3.962197  0
C  C39  1  0.12768090  0.67871986  0.16415587  1  0  -0.174966  0  3.701544  0  0  -0.191584  0  3.945364  0  0  -0.200657  0  3.966842  0  0  -0.085039  -0.185536  0  3.930704  0
C  C40  1  0.87231905  0.32128534  0.83584691  1  0  -0.17512  0  3.701514  0  0  -0.191734  0  3.945336  0  0  -0.20081  0  3.966815  0  0  -0.085063  -0.185685  0  3.930676  0
C  C41  1  0.21009284  0.62966414  0.28108649  1  0  0.147202  0  3.701945  0  0  0.113914  0  3.95605  0  0  0.12229  0  3.975084  0  0  0.047463  0.10851  0  3.943027  0
C  C42  1  0.78991308  0.37034001  0.71891480  1  0  0.147266  0  3.701941  0  0  0.113987  0  3.956024  0  0  0.12236  0  3.975062  0  0  0.047503  0.108584  0  3.943004  0
C  C43  1  0.03063515  0.98109388  0.69872097  1  0  -0.174058  0  3.689426  0  0  -0.216802  0  3.941778  0  0  -0.219203  0  3.954872  0  0  -0.162612  -0.215076  0  3.932416  0
C  C44  1  0.96936780  0.01890545  0.30127976  1  0  -0.174109  0  3.689343  0  0  -0.216849  0  3.94171  0  0  -0.219242  0  3.954792  0  0  -0.162613  -0.215118  0  3.932336  0
C  C45  1  0.17227986  0.66332891  0.59344490  1  0  0.12485  0  3.725964  0  0  0.093342  0  3.985842  0  0  0.101288  0  4.003486  0  0  0.040323  0.088349  0  3.973421  0
C  C46  1  0.82771566  0.33666904  0.40655832  1  0  0.124794  0  3.726031  0  0  0.093292  0  3.9859  0  0  0.101239  0  4.003548  0  0  0.040295  0.088296  0  3.973479  0
C  C47  1  0.07592835  0.76063966  0.63886333  1  0  -0.179233  0  3.714828  0  0  -0.197944  0  3.965241  0  0  -0.20643  0  3.986166  0  0  -0.086512  -0.19261  0  3.950986  0
C  C48  1  0.92407314  0.23935720  0.36114180  1  0  -0.179211  0  3.714673  0  0  -0.197904  0  3.965104  0  0  -0.206397  0  3.986013  0  0  -0.086513  -0.19257  0  3.950848  0
C  C49  1  0.12270952  0.88227875  0.64007454  1  0  0.160488  0  3.722324  0  0  0.17591  0  3.960505  0  0  0.181484  0  3.983321  0  0  0.013698  0.172519  0  3.944753  0
C  C50  1  0.87728896  0.11772048  0.35992724  1  0  0.160547  0  3.722143  0  0  0.175945  0  3.96035  0  0  0.181521  0  3.98316  0  0  0.013728  0.172556  0  3.944595  0
C  C51  1  0.26513173  0.90305862  0.59001654  1  0  -0.175012  0  3.694323  0  0  -0.189664  0  3.935124  0  0  -0.198503  0  3.9574  0  0  -0.089173  -0.184083  0  3.920011  0
C  C52  1  0.73487049  0.09693595  0.40998269  1  0  -0.174997  0  3.694262  0  0  -0.189654  0  3.935082  0  0  -0.198494  0  3.957356  0  0  -0.089173  -0.184072  0  3.919969  0
C  C53  1  0.35486057  0.80195898  0.54562446  1  0  0.121795  0  3.729093  0  0  0.094263  0  3.977288  0  0  0.101394  0  3.995756  0  0  0.03673  0.089777  0  3.964533  0
C  C54  1  0.64514093  0.19803435  0.45437782  1  0  0.121858  0  3.728997  0  0  0.094304  0  3.977228  0  0  0.101437  0  3.9957  0  0  0.036741  0.089813  0  3.96448  0
N  N55  1  0.36732453  0.59890352  0.29587030  1  0  -0.333252  0  3.256601  0  0  -0.25483  0  3.520043  0  0  -0.27581  0  3.539974  0  0  -0.331864  -0.240642  0  3.505978  0
N  N56  1  0.63267840  0.40109942  0.70412819  1  0  -0.333314  0  3.256472  0  0  -0.254918  0  3.519953  0  0  -0.275898  0  3.539882  0  0  -0.331919  -0.240731  0  3.505891  0
N  N57  1  0.31067380  0.68228623  0.54832282  1  0  -0.351354  0  3.265625  0  0  -0.275093  0  3.533499  0  0  -0.296081  0  3.554313  0  0  -0.337356  -0.260876  0  3.518342  0
N  N58  1  0.68932325  0.31770695  0.45168305  1  0  -0.351284  0  3.265568  0  0  -0.275028  0  3.533467  0  0  -0.296011  0  3.554265  0  0  -0.337345  -0.260811  0  3.518313  0
N  N59  1  0.75695260  0.70108701  0.42357416  1  0  0.716912  0  4.12309  0  0  0.735978  0  4.436418  0  0  0.764373  0  4.441021  0  0  0.093314  0.716979  0  4.432892  0
N  N60  1  0.24304282  0.29891827  0.57641605  1  0  0.716764  0  4.123247  0  0  0.735834  0  4.436575  0  0  0.76423  0  4.441178  0  0  0.093251  0.716836  0  4.43305  0
O  O61  1  0.63849407  0.68541979  0.37654608  1  0  -0.545514  0  1.792681  0  0  -0.520533  0  2.040463  0  0  -0.537969  0  2.028677  0  0  -0.240299  -0.509049  0  2.048489  0
O  O62  1  0.36150361  0.31458195  0.62344544  1  0  -0.545439  0  1.792714  0  0  -0.520469  0  2.040501  0  0  -0.537901  0  2.028711  0  0  -0.240274  -0.508986  0  2.048529  0
O  O63  1  0.74108701  0.73342284  0.51515796  1  0  -0.469776  0  1.72416  0  0  -0.460103  0  1.932678  0  0  -0.473202  0  1.926592  0  0  -0.192078  -0.451577  0  1.936889  0
O  O64  1  0.25889667  0.26660500  0.48481963  1  0  -0.469755  0  1.724332  0  0  -0.460046  0  1.932786  0  0  -0.473158  0  1.926721  0  0  -0.192063  -0.45152  0  1.936998  0
O  O65  1  0.88536433  0.68446935  0.37504587  1  0  -0.464993  0  1.753534  0  0  -0.456407  0  1.977575  0  0  -0.469671  0  1.970303  0  0  -0.188079  -0.446769  0  1.981854  0
O  O66  1  0.11463569  0.31552157  0.62495571  1  0  -0.464955  0  1.753473  0  0  -0.45638  0  1.977532  0  0  -0.469634  0  1.970244  0  0  -0.188053  -0.446739  0  1.98181  0
