# generated using pymatgen
data_MgH14C6O11
_symmetry_space_group_name_H-M   'P 1'
_cell_length_a   5.79444417
_cell_length_b   10.42892396
_cell_length_c   17.97630000
_cell_angle_alpha   90.00000000
_cell_angle_beta   90.00000000
_cell_angle_gamma   90.00000000
_symmetry_Int_Tables_number   1
_chemical_formula_structural   MgH14C6O11
_chemical_formula_sum   'Mg4 H56 C24 O44'
_cell_volume   1086.30453050
_cell_formula_units_Z   4
loop_
 _symmetry_equiv_pos_site_id
 _symmetry_equiv_pos_as_xyz
  1  'x, y, z'
loop_
 _atom_site_type_symbol
 _atom_site_label
 _atom_site_symmetry_multiplicity
 _atom_site_fract_x
 _atom_site_fract_y
 _atom_site_fract_z
 _atom_site_occupancy
 _atom_site_hle17_bader_spin_density
 _atom_site_hle17_ddec_charge
 _atom_site_hle17_ddec_spin_density
 _atom_site_hle17_ddec_sum_bond_order
 _atom_site_hle17_magmom
 _atom_site_hse06_10hf_bader_spin_density
 _atom_site_hse06_10hf_ddec_charge
 _atom_site_hse06_10hf_ddec_spin_density
 _atom_site_hse06_10hf_ddec_sum_bond_order
 _atom_site_hse06_10hf_magmom
 _atom_site_hse06_bader_spin_density
 _atom_site_hse06_ddec_charge
 _atom_site_hse06_ddec_spin_density
 _atom_site_hse06_ddec_sum_bond_order
 _atom_site_hse06_magmom
 _atom_site_pbe_bader_charge
 _atom_site_pbe_bader_spin_density
 _atom_site_pbe_cm5_charge
 _atom_site_pbe_ddec_charge
 _atom_site_pbe_ddec_spin_density
 _atom_site_pbe_ddec_sum_bond_order
 _atom_site_pbe_magmom
Mg  Mg0  1  0.33935265  0.67580222  0.14722551  1  0  1.529198  0  1.097986  0  0  1.419274  0  1.356401  0  0  1.441498  0  1.320725  0  1.692976  0  0.815406  1.403581  0  1.381315  0
Mg  Mg1  1  0.16064699  0.32420027  0.64722496  1  0  1.529203  0  1.09796  0  0  1.419268  0  1.35637  0  0  1.441506  0  1.320683  0  1.692928  0  0.815427  1.403574  0  1.381286  0
Mg  Mg2  1  0.66064490  0.17579762  0.35277560  1  0  1.529222  0  1.097939  0  0  1.419282  0  1.356359  0  0  1.441527  0  1.320667  0  1.692941  0  0.815435  1.403589  0  1.381273  0
Mg  Mg3  1  0.83935057  0.82419912  0.85277449  1  0  1.529185  0  1.097985  0  0  1.419258  0  1.356413  0  0  1.441482  0  1.320737  0  1.692931  0  0.815413  1.403562  0  1.381332  0
H  H4  1  0.20653232  0.59282338  0.28493850  1  0  0.430974  0  0.87212  0  0  0.398248  0  0.938307  0  0  0.408736  0  0.922993  0  0.653707  0  0.295684  0.390916  0  0.948999  0
H  H5  1  0.29346559  0.40717624  0.78493850  1  0  0.430986  0  0.872101  0  0  0.398271  0  0.938273  0  0  0.408757  0  0.922964  0  0.653725  0  0.295699  0.39094  0  0.948964  0
H  H6  1  0.79346523  0.09282549  0.21506261  1  0  0.43089  0  0.872225  0  0  0.398209  0  0.938328  0  0  0.408693  0  0.923022  0  0.653739  0  0.295655  0.390878  0  0.949019  0
H  H7  1  0.70653369  0.90717605  0.71506150  1  0  0.430974  0  0.87212  0  0  0.398251  0  0.938303  0  0  0.408738  0  0.92299  0  0.653717  0  0.295701  0.39092  0  0.948994  0
H  H8  1  0.36638717  0.71510254  0.29345583  1  0  0.42978  0  0.874153  0  0  0.397223  0  0.940148  0  0  0.40786  0  0.924465  0  0.651646  0  0.295923  0.389743  0  0.951171  0
H  H9  1  0.13361074  0.28489900  0.79345527  1  0  0.429784  0  0.874131  0  0  0.397231  0  0.94012  0  0  0.407867  0  0.924438  0  0.651661  0  0.295922  0.389752  0  0.951141  0
H  H10  1  0.63360866  0.21510273  0.20654417  1  0  0.429779  0  0.874144  0  0  0.397221  0  0.94014  0  0  0.407858  0  0.924458  0  0.651589  0  0.295918  0.38974  0  0.951165  0
H  H11  1  0.86638854  0.78489785  0.70654417  1  0  0.429787  0  0.874135  0  0  0.39723  0  0.94013  0  0  0.407867  0  0.924448  0  0.651663  0  0.295931  0.38975  0  0.951152  0
H  H12  1  0.79907751  0.69053049  0.15513259  1  0  0.428265  0  0.878638  0  0  0.394734  0  0.945681  0  0  0.406311  0  0.928688  0  0.633946  0  0.295938  0.386597  0  0.957626  0
H  H13  1  0.70092487  0.30947200  0.65513203  1  0  0.428291  0  0.878602  0  0  0.394765  0  0.945637  0  0  0.406344  0  0.928643  0  0.633985  0  0.295966  0.386629  0  0.957582  0
H  H14  1  0.20092350  0.19052781  0.34486797  1  0  0.428294  0  0.8786  0  0  0.394753  0  0.94566  0  0  0.406336  0  0.928658  0  0.63398  0  0.295956  0.386616  0  0.957606  0
H  H15  1  0.29907442  0.80946990  0.84486741  1  0  0.428292  0  0.878601  0  0  0.394775  0  0.945623  0  0  0.406353  0  0.92863  0  0.63398  0  0.29596  0.386639  0  0.957568  0
H  H16  1  0.75152333  0.54293137  0.15117015  1  0  0.423876  0  0.883001  0  0  0.389409  0  0.952334  0  0  0.400832  0  0.935563  0  0.644169  0  0.292263  0.381412  0  0.964071  0
H  H17  1  0.74847731  0.45707112  0.65117071  1  0  0.423877  0  0.883036  0  0  0.389404  0  0.952375  0  0  0.400828  0  0.935605  0  0.644141  0  0.29228  0.381409  0  0.964109  0
H  H18  1  0.24847767  0.04292773  0.34882929  1  0  0.42386  0  0.883055  0  0  0.3894  0  0.952374  0  0  0.400821  0  0.935607  0  0.644129  0  0.292268  0.381403  0  0.964111  0
H  H19  1  0.25152024  0.95706998  0.84882985  1  0  0.423875  0  0.88301  0  0  0.38941  0  0.952338  0  0  0.400834  0  0.935567  0  0.644155  0  0.292274  0.381415  0  0.964072  0
H  H20  1  0.50064509  0.63419870  0.00780138  1  0  0.434748  0  0.858727  0  0  0.400445  0  0.927128  0  0  0.410614  0  0.912134  0  0.644236  0  0.30165  0.393246  0  0.937746  0
H  H21  1  0.99935211  0.36580092  0.50780083  1  0  0.43472  0  0.858757  0  0  0.400425  0  0.927159  0  0  0.410594  0  0.912163  0  0.644221  0  0.301625  0.393223  0  0.937782  0
H  H22  1  0.49935074  0.13419985  0.49219917  1  0  0.434695  0  0.858795  0  0  0.400398  0  0.9272  0  0  0.410565  0  0.912207  0  0.64412  0  0.301615  0.393196  0  0.937822  0
H  H23  1  0.00064545  0.86580073  0.99219917  1  0  0.434729  0  0.858753  0  0  0.400429  0  0.92715  0  0  0.410594  0  0.912161  0  0.644222  0  0.301638  0.393227  0  0.937773  0
H  H24  1  0.40721248  0.77639362  0.01387382  1  0  0.440328  0  0.82615  0  0  0.408175  0  0.902912  0  0  0.41829  0  0.8876  0  0.639951  0  0.314862  0.400946  0  0.913878  0
H  H25  1  0.09278716  0.22360600  0.51387382  1  0  0.440317  0  0.826159  0  0  0.408165  0  0.902929  0  0  0.41828  0  0.887615  0  0.639945  0  0.314846  0.400935  0  0.913896  0
H  H26  1  0.59278680  0.27639381  0.48612618  1  0  0.440348  0  0.82612  0  0  0.408196  0  0.902886  0  0  0.418313  0  0.887569  0  0.639953  0  0.314861  0.400966  0  0.913853  0
H  H27  1  0.90721212  0.72360677  0.98612618  1  0  0.440351  0  0.82612  0  0  0.408197  0  0.902885  0  0  0.418311  0  0.887573  0  0.63996  0  0.31487  0.400965  0  0.913855  0
H  H28  1  0.59185660  0.90631881  0.15762643  1  0  0.399605  0  0.902966  0  0  0.368847  0  0.974824  0  0  0.380722  0  0.9577  0  0.654681  0  0.30404  0.359822  0  0.987815  0
H  H29  1  0.90814578  0.09368272  0.65762587  1  0  0.39965  0  0.90291  0  0  0.368888  0  0.974765  0  0  0.380763  0  0.957641  0  0.654688  0  0.304055  0.359865  0  0.987754  0
H  H30  1  0.40814269  0.40631613  0.34237413  1  0  0.399639  0  0.902932  0  0  0.368869  0  0.974796  0  0  0.380744  0  0.957672  0  0.654672  0  0.304043  0.359844  0  0.987787  0
H  H31  1  0.09185178  0.59368157  0.84237413  1  0  0.399612  0  0.902978  0  0  0.368855  0  0.974821  0  0  0.380728  0  0.957699  0  0.654691  0  0.30404  0.35983  0  0.987812  0
H  H32  1  0.29074230  0.02166762  0.97281476  1  0  0.384486  0  0.87549  0  0  0.356006  0  0.953939  0  0  0.366332  0  0.941698  0  0.614363  0  0.307539  0.348733  0  0.962524  0
H  H33  1  0.20925562  0.97833391  0.47281365  1  0  0.384501  0  0.875435  0  0  0.356032  0  0.953887  0  0  0.366356  0  0.941646  0  0.614346  0  0.307543  0.348758  0  0.962472  0
H  H34  1  0.70925699  0.52166456  0.52718579  1  0  0.384535  0  0.87541  0  0  0.356059  0  0.953863  0  0  0.366386  0  0.94162  0  0.614391  0  0.307554  0.348786  0  0.962442  0
H  H35  1  0.79074539  0.47833506  0.02718691  1  0  0.384562  0  0.875408  0  0  0.356048  0  0.953921  0  0  0.366376  0  0.941678  0  0.614355  0  0.307548  0.348774  0  0.962493  0
H  H36  1  0.05938274  0.23482480  0.97928161  1  0  0.384333  0  0.870927  0  0  0.356569  0  0.95269  0  0  0.366498  0  0.94029  0  0.655894  0  0.307356  0.349357  0  0.961784  0
H  H37  1  0.44060999  0.76517674  0.47928050  1  0  0.384253  0  0.870959  0  0  0.356474  0  0.952761  0  0  0.366403  0  0.940363  0  0.655925  0  0.307299  0.34926  0  0.961857  0
H  H38  1  0.94061136  0.73482365  0.52071839  1  0  0.38427  0  0.870901  0  0  0.356495  0  0.952705  0  0  0.366423  0  0.940306  0  0.655933  0  0.307323  0.349283  0  0.961797  0
H  H39  1  0.55938756  0.26517789  0.02072062  1  0  0.384266  0  0.870931  0  0  0.356498  0  0.952712  0  0  0.366427  0  0.940312  0  0.655886  0  0.307326  0.349286  0  0.961807  0
H  H40  1  0.47713118  0.37256576  0.14234520  1  0  0.38484  0  0.865058  0  0  0.358685  0  0.935997  0  0  0.369601  0  0.923334  0  0.61079  0  0.31481  0.350903  0  0.945086  0
H  H41  1  0.02287018  0.62743673  0.64234353  1  0  0.384856  0  0.865029  0  0  0.358696  0  0.935968  0  0  0.369612  0  0.923307  0  0.610897  0  0.314805  0.350915  0  0.945058  0
H  H42  1  0.52287155  0.87256461  0.35765591  1  0  0.384824  0  0.865087  0  0  0.358666  0  0.936024  0  0  0.369581  0  0.923365  0  0.610883  0  0.314799  0.350885  0  0.945112  0
H  H43  1  0.97712737  0.12743692  0.85765536  1  0  0.384816  0  0.865065  0  0  0.358655  0  0.936007  0  0  0.369569  0  0.923344  0  0.610817  0  0.314804  0.350876  0  0.945091  0
H  H44  1  0.26162993  0.02727798  0.20116487  1  0  0.082284  0  0.919839  0  0  0.089394  0  0.981094  0  0  0.091659  0  0.979184  0  0.099132  0  0.119016  0.087671  0  0.982756  0
H  H45  1  0.23837489  0.97272356  0.70116375  1  0  0.08231  0  0.919813  0  0  0.089438  0  0.981065  0  0  0.091705  0  0.979158  0  0.099163  0  0.119031  0.087717  0  0.982724  0
H  H46  1  0.73837971  0.52727300  0.29883569  1  0  0.082315  0  0.91981  0  0  0.089475  0  0.981028  0  0  0.091721  0  0.979147  0  0.099192  0  0.119036  0.087751  0  0.982693  0
H  H47  1  0.76162784  0.47272183  0.79883625  1  0  0.082298  0  0.919801  0  0  0.089427  0  0.981059  0  0  0.091694  0  0.979152  0  0.099156  0  0.119024  0.087705  0  0.98272  0
H  H48  1  0.47089072  0.07751615  0.08074187  1  0  0.059657  0  0.912887  0  0  0.070491  0  0.973422  0  0  0.0717  0  0.972247  0  0.055958  0  0.11369  0.069475  0  0.974579  0
H  H49  1  0.02911064  0.92248539  0.58074187  1  0  0.059703  0  0.912888  0  0  0.070536  0  0.97341  0  0  0.071746  0  0.972234  0  0.055981  0  0.113711  0.069521  0  0.974565  0
H  H50  1  0.52911201  0.57751212  0.41925758  1  0  0.059675  0  0.912835  0  0  0.07051  0  0.973398  0  0  0.071721  0  0.972217  0  0.056003  0  0.113699  0.069494  0  0.974553  0
H  H51  1  0.97088691  0.42248366  0.91925980  1  0  0.059659  0  0.912862  0  0  0.070487  0  0.973407  0  0  0.071698  0  0.972228  0  0.055999  0  0.113701  0.069469  0  0.974567  0
H  H52  1  0.95710992  0.15125626  0.08200686  1  0  0.068272  0  0.928861  0  0  0.074443  0  0.994771  0  0  0.075896  0  0.993566  0  0.077343  0  0.112127  0.073235  0  0.996013  0
H  H53  1  0.54289245  0.84874432  0.58200520  1  0  0.068245  0  0.928873  0  0  0.074439  0  0.994745  0  0  0.075892  0  0.993537  0  0.077334  0  0.112116  0.07323  0  0.995987  0
H  H54  1  0.04289281  0.65125607  0.41799425  1  0  0.068282  0  0.928865  0  0  0.074451  0  0.994749  0  0  0.075907  0  0.993546  0  0.077332  0  0.112122  0.073242  0  0.995992  0
H  H55  1  0.45710510  0.34874259  0.91799480  1  0  0.068354  0  0.928764  0  0  0.074487  0  0.994701  0  0  0.075938  0  0.993492  0  0.077324  0  0.112136  0.073279  0  0.995942  0
H  H56  1  0.14310087  0.22828817  0.19640471  1  0  0.078081  0  0.928392  0  0  0.084219  0  0.994862  0  0  0.08661  0  0.992633  0  0.096182  0  0.11298  0.08243  0  0.9967  0
H  H57  1  0.35690222  0.77171528  0.69640415  1  0  0.078024  0  0.928385  0  0  0.084183  0  0.994862  0  0  0.086575  0  0.992634  0  0.096096  0  0.112952  0.082394  0  0.9967  0
H  H58  1  0.85689841  0.72828415  0.30359418  1  0  0.078044  0  0.928347  0  0  0.084204  0  0.994838  0  0  0.086598  0  0.992607  0  0.096041  0  0.112956  0.082415  0  0.996675  0
H  H59  1  0.64309706  0.27171643  0.80359473  1  0  0.078045  0  0.928364  0  0  0.084193  0  0.994851  0  0  0.086587  0  0.99262  0  0.096291  0  0.112959  0.082403  0  0.996688  0
C  C60  1  0.02348974  0.89643764  0.14992907  1  0  0.688013  0  3.79937  0  0  0.626752  0  4.107057  0  0  0.659996  0  4.098903  0  1.605353  0  0.234998  0.604049  0  4.112242  0
C  C61  1  0.47651853  0.10356006  0.64992907  1  0  0.687989  0  3.799427  0  0  0.626688  0  4.107178  0  0  0.659922  0  4.099042  0  1.60536  0  0.234931  0.603991  0  4.112359  0
C  C62  1  0.97652507  0.39643975  0.35007148  1  0  0.688031  0  3.799327  0  0  0.626752  0  4.10703  0  0  0.659988  0  4.098899  0  1.60574  0  0.234953  0.604048  0  4.112221  0
C  C63  1  0.52348593  0.60356179  0.85007093  1  0  0.687999  0  3.799408  0  0  0.626751  0  4.107124  0  0  0.659983  0  4.098992  0  1.605716  0  0.234964  0.604049  0  4.112309  0
C  C64  1  0.25625754  0.96527888  0.15146777  1  0  0.060935  0  3.616164  0  0  0.035398  0  3.86718  0  0  0.036002  0  3.874449  0  0.449228  0  0.002128  0.034628  0  3.862714  0
C  C65  1  0.24374555  0.03472362  0.65146721  1  0  0.060934  0  3.616073  0  0  0.035322  0  3.867207  0  0  0.035926  0  3.874483  0  0.449212  0  0.002097  0.034554  0  3.862734  0
C  C66  1  0.74374865  0.46527235  0.34853279  1  0  0.060919  0  3.616077  0  0  0.035281  0  3.867238  0  0  0.035902  0  3.87451  0  0.449244  0  0.002116  0.034517  0  3.862761  0
C  C67  1  0.75625200  0.53472151  0.84853279  1  0  0.06096  0  3.616014  0  0  0.035339  0  3.867144  0  0  0.035944  0  3.87442  0  0.449197  0  0.002121  0.03457  0  3.862675  0
C  C68  1  0.28768937  0.04889383  0.08175375  1  0  0.154584  0  3.562167  0  0  0.119747  0  3.823753  0  0  0.125252  0  3.832774  0  0.458272  0  -0.00501  0.116085  0  3.817716  0
C  C69  1  0.21231372  0.95110675  0.58175320  1  0  0.154349  0  3.562374  0  0  0.119571  0  3.82392  0  0  0.125073  0  3.832943  0  0.458315  0  -0.005123  0.115908  0  3.817883  0
C  C70  1  0.71231509  0.54889172  0.41824569  1  0  0.154497  0  3.562277  0  0  0.119645  0  3.823909  0  0  0.125162  0  3.832924  0  0.458321  0  -0.005076  0.115983  0  3.817871  0
C  C71  1  0.78768383  0.45110502  0.91824680  1  0  0.154535  0  3.562168  0  0  0.119747  0  3.823712  0  0  0.125249  0  3.832729  0  0.458311  0  -0.005044  0.116083  0  3.817678  0
C  C72  1  0.14223625  0.17313004  0.07950412  1  0  0.134953  0  3.615215  0  0  0.101791  0  3.877821  0  0  0.106979  0  3.887177  0  0.494217  0  -0.012172  0.098203  0  3.871523  0
C  C73  1  0.35776339  0.82687150  0.57950412  1  0  0.134993  0  3.615164  0  0  0.10182  0  3.87782  0  0  0.107016  0  3.887156  0  0.494587  0  -0.012161  0.09823  0  3.871525  0
C  C74  1  0.85776648  0.67312793  0.42049476  1  0  0.134914  0  3.615208  0  0  0.101819  0  3.877769  0  0  0.106991  0  3.887143  0  0.494157  0  -0.012165  0.09823  0  3.871473  0
C  C75  1  0.64223244  0.32687169  0.92049588  1  0  0.134847  0  3.615143  0  0  0.101715  0  3.877764  0  0  0.106914  0  3.887109  0  0.494146  0  -0.012203  0.098126  0  3.871467  0
C  C76  1  0.20598870  0.26524405  0.14259442  1  0  0.041685  0  3.598334  0  0  0.011558  0  3.85623  0  0  0.012146  0  3.86344  0  0.391389  0  -0.009732  0.011087  0  3.851212  0
C  C77  1  0.29400922  0.73475845  0.64259330  1  0  0.041799  0  3.59819  0  0  0.011594  0  3.856208  0  0  0.01218  0  3.863418  0  0.391034  0  -0.009755  0.011124  0  3.851188  0
C  C78  1  0.79400886  0.76524098  0.35740503  1  0  0.041789  0  3.598223  0  0  0.011561  0  3.856223  0  0  0.012151  0  3.863441  0  0.391479  0  -0.009725  0.011092  0  3.851205  0
C  C79  1  0.70598661  0.23475768  0.85740614  1  0  0.041804  0  3.598282  0  0  0.011655  0  3.856183  0  0  0.012234  0  3.863393  0  0.391255  0  -0.009667  0.011187  0  3.851162  0
C  C80  1  0.09893097  0.39940458  0.13175348  1  0  0.690072  0  3.830494  0  0  0.630759  0  4.141118  0  0  0.664287  0  4.132087  0  1.626146  0  0.228015  0.60803  0  4.14655  0
C  C81  1  0.40107039  0.60059792  0.63175348  1  0  0.69005  0  3.830554  0  0  0.630736  0  4.141201  0  0  0.664263  0  4.13217  0  1.626321  0  0.228025  0.608009  0  4.146631  0
C  C82  1  0.90107176  0.89940055  0.36824597  1  0  0.689981  0  3.830653  0  0  0.630677  0  4.141301  0  0  0.664198  0  4.132274  0  1.62634  0  0.227981  0.607947  0  4.146731  0
C  C83  1  0.59892716  0.10059715  0.86824597  1  0  0.690016  0  3.830572  0  0  0.630693  0  4.141211  0  0  0.664223  0  4.132179  0  1.626178  0  0.228002  0.607967  0  4.146638  0
O  O84  1  0.25899292  0.67093787  0.25851705  1  0  -0.925167  0  1.855932  0  0  -0.877404  0  2.0528  0  0  -0.895096  0  2.020647  0  -1.336386  0  -0.63039  -0.864844  0  2.074976  0
O  O85  1  0.24100327  0.32906367  0.75851649  1  0  -0.925186  0  1.855901  0  0  -0.877422  0  2.052764  0  0  -0.895117  0  2.020608  0  -1.336422  0  -0.630416  -0.864866  0  2.074944  0
O  O86  1  0.74100464  0.17093902  0.24148351  1  0  -0.925103  0  1.855991  0  0  -0.877348  0  2.052844  0  0  -0.895045  0  2.02069  0  -1.336378  0  -0.630365  -0.864787  0  2.075017  0
O  O87  1  0.75899256  0.82906156  0.74148295  1  0  -0.925181  0  1.855926  0  0  -0.877414  0  2.052781  0  0  -0.895106  0  2.020631  0  -1.336398  0  -0.63041  -0.864851  0  2.074953  0
O  O88  1  0.67804605  0.62529174  0.16732086  1  0  -0.925867  0  1.824008  0  0  -0.8709  0  2.017994  0  0  -0.888644  0  1.982299  0  -1.326981  0  -0.626424  -0.858411  0  2.042814  0
O  O89  1  0.82195632  0.37471172  0.66732031  1  0  -0.925903  0  1.824025  0  0  -0.870935  0  2.018009  0  0  -0.888684  0  1.982312  0  -1.32699  0  -0.626468  -0.858444  0  2.042829  0
O  O90  1  0.32195668  0.12528809  0.33267914  1  0  -0.925896  0  1.824056  0  0  -0.870926  0  2.018027  0  0  -0.888673  0  1.982324  0  -1.326971  0  -0.626441  -0.858436  0  2.042848  0
O  O91  1  0.17804469  0.87470961  0.83267914  1  0  -0.925888  0  1.824004  0  0  -0.870918  0  2.017959  0  0  -0.888663  0  1.982265  0  -1.327012  0  -0.626444  -0.858429  0  2.042776  0
O  O92  1  0.38194172  0.68869905  0.03148813  1  0  -0.896416  0  1.860377  0  0  -0.847864  0  2.056507  0  0  -0.863426  0  2.023196  0  -1.296359  0  -0.605839  -0.837019  0  2.079894  0
O  O93  1  0.11805792  0.31130153  0.53148757  1  0  -0.896389  0  1.860398  0  0  -0.847843  0  2.056502  0  0  -0.863405  0  2.023186  0  -1.29631  0  -0.605805  -0.836994  0  2.079892  0
O  O94  1  0.61805756  0.18869732  0.46851187  1  0  -0.896408  0  1.86042  0  0  -0.847857  0  2.056513  0  0  -0.86342  0  2.023195  0  -1.296217  0  -0.605807  -0.837009  0  2.079902  0
O  O95  1  0.88194137  0.81130230  0.96851187  1  0  -0.89642  0  1.860377  0  0  -0.847864  0  2.05649  0  0  -0.863421  0  2.023185  0  -1.296355  0  -0.605832  -0.837013  0  2.079884  0
O  O96  1  0.02492042  0.77753084  0.13474408  1  0  -0.681178  0  2.061305  0  0  -0.610111  0  2.290047  0  0  -0.635367  0  2.278371  0  -1.216233  0  -0.323592  -0.59264  0  2.29771  0
O  O97  1  0.47508267  0.22246974  0.63474464  1  0  -0.681159  0  2.061146  0  0  -0.610078  0  2.289907  0  0  -0.635333  0  2.278234  0  -1.216205  0  -0.323573  -0.592607  0  2.297567  0
O  O98  1  0.97507713  0.27753007  0.36525759  1  0  -0.681194  0  2.061084  0  0  -0.610085  0  2.289811  0  0  -0.635372  0  2.27816  0  -1.216594  0  -0.323598  -0.592614  0  2.297476  0
O  O99  1  0.52491661  0.72246667  0.86525536  1  0  -0.681101  0  2.06132  0  0  -0.610089  0  2.290113  0  0  -0.635342  0  2.278444  0  -1.216523  0  -0.323549  -0.592618  0  2.297773  0
O  O100  1  0.84347521  0.96213953  0.16228701  1  0  -0.614992  0  2.022956  0  0  -0.552838  0  2.24535  0  0  -0.578724  0  2.233976  0  -1.205664  0  -0.295903  -0.534469  0  2.253124  0
O  O101  1  0.65652716  0.03786393  0.66228534  1  0  -0.615006  0  2.023196  0  0  -0.55278  0  2.245599  0  0  -0.578663  0  2.234225  0  -1.205728  0  -0.295867  -0.534424  0  2.253382  0
O  O102  1  0.15653788  0.46213397  0.33771355  1  0  -0.615058  0  2.023234  0  0  -0.552826  0  2.245604  0  0  -0.578705  0  2.234228  0  -1.205789  0  -0.295866  -0.534459  0  2.253383  0
O  O103  1  0.34346694  0.53785990  0.83771355  1  0  -0.615099  0  2.023027  0  0  -0.552893  0  2.24539  0  0  -0.578775  0  2.234021  0  -1.205727  0  -0.295911  -0.534529  0  2.25317  0
O  O104  1  0.43014825  0.86892378  0.15633417  1  0  -0.647517  0  2.174016  0  0  -0.586697  0  2.401821  0  0  -0.602369  0  2.384671  0  -1.214867  0  -0.425921  -0.575265  0  2.414294  0
O  O105  1  0.06985485  0.13107776  0.65633306  1  0  -0.647508  0  2.17391  0  0  -0.586675  0  2.401762  0  0  -0.602351  0  2.384612  0  -1.21488  0  -0.425878  -0.575242  0  2.414232  0
O  O106  1  0.56985449  0.36892205  0.34366638  1  0  -0.647521  0  2.173938  0  0  -0.586683  0  2.401796  0  0  -0.602356  0  2.384635  0  -1.214899  0  -0.425907  -0.575252  0  2.414265  0
O  O107  1  0.93014444  0.63107469  0.84366750  1  0  -0.647484  0  2.173978  0  0  -0.586652  0  2.401814  0  0  -0.602325  0  2.384664  0  -1.214842  0  -0.425904  -0.575221  0  2.414286  0
O  O108  1  0.24325198  0.97126607  0.01694453  1  0  -0.572424  0  2.061756  0  0  -0.510475  0  2.277121  0  0  -0.527122  0  2.263127  0  -1.126103  0  -0.382906  -0.498616  0  2.286677  0
O  O109  1  0.25674939  0.02873643  0.51694342  1  0  -0.572293  0  2.061716  0  0  -0.510398  0  2.277106  0  0  -0.527045  0  2.263119  0  -1.126168  0  -0.382831  -0.498529  0  2.286643  0
O  O110  1  0.75675248  0.47126338  0.48305602  1  0  -0.572374  0  2.061712  0  0  -0.510443  0  2.277108  0  0  -0.527104  0  2.263124  0  -1.126177  0  -0.382851  -0.498576  0  2.286648  0
O  O111  1  0.74324644  0.52873432  0.98305714  1  0  -0.572468  0  2.061715  0  0  -0.510504  0  2.27709  0  0  -0.527155  0  2.263096  0  -1.126135  0  -0.382895  -0.498625  0  2.286618  0
O  O112  1  0.19748572  0.23490055  0.01064012  1  0  -0.569041  0  2.082588  0  0  -0.526907  0  2.323705  0  0  -0.541907  0  2.31028  0  -1.163407  0  -0.402126  -0.516018  0  2.333051  0
O  O113  1  0.30251047  0.76510194  0.51064012  1  0  -0.568962  0  2.082537  0  0  -0.526809  0  2.323666  0  0  -0.541807  0  2.310233  0  -1.163427  0  -0.402052  -0.515924  0  2.333021  0
O  O114  1  0.80251183  0.73489749  0.48935877  1  0  -0.568981  0  2.082474  0  0  -0.526854  0  2.323595  0  0  -0.541846  0  2.31017  0  -1.163381  0  -0.402098  -0.515969  0  2.332948  0
O  O115  1  0.69748709  0.26509926  0.98935988  1  0  -0.568988  0  2.082568  0  0  -0.526852  0  2.323693  0  0  -0.541853  0  2.310262  0  -1.163411  0  -0.402113  -0.515966  0  2.33304  0
O  O116  1  0.45231258  0.27880537  0.14406079  1  0  -0.545448  0  2.131883  0  0  -0.488693  0  2.351638  0  0  -0.504876  0  2.338894  0  -1.117791  0  -0.382859  -0.477195  0  2.360409  0
O  O117  1  0.04768706  0.72119713  0.64406079  1  0  -0.545498  0  2.131832  0  0  -0.488709  0  2.3516  0  0  -0.504907  0  2.338878  0  -1.117933  0  -0.38285  -0.477212  0  2.36037  0
O  O118  1  0.54768670  0.77880422  0.35593921  1  0  -0.545472  0  2.131876  0  0  -0.488677  0  2.351646  0  0  -0.504877  0  2.338929  0  -1.117924  0  -0.382859  -0.477178  0  2.360411  0
O  O119  1  0.95230877  0.22119636  0.85593921  1  0  -0.545457  0  2.13193  0  0  -0.488698  0  2.351715  0  0  -0.50488  0  2.338979  0  -1.117825  0  -0.382881  -0.477201  0  2.36048  0
O  O120  1  0.24431161  0.49080039  0.13469958  1  0  -0.722858  0  2.021488  0  0  -0.654767  0  2.259541  0  0  -0.679527  0  2.245739  0  -1.24607  0  -0.357647  -0.637508  0  2.268548  0
O  O121  1  0.25568975  0.50920306  0.63469680  1  0  -0.722852  0  2.021574  0  0  -0.65473  0  2.259602  0  0  -0.679493  0  2.245799  0  -1.246008  0  -0.35762  -0.637472  0  2.268607  0
O  O122  1  0.75569630  0.99079637  0.36530154  1  0  -0.72277  0  2.021559  0  0  -0.654667  0  2.259597  0  0  -0.679431  0  2.245797  0  -1.245985  0  -0.357583  -0.637411  0  2.268602  0
O  O123  1  0.74430608  0.00920133  0.86529931  1  0  -0.722835  0  2.021557  0  0  -0.654728  0  2.259593  0  0  -0.679487  0  2.245791  0  -1.246019  0  -0.357631  -0.637469  0  2.268595  0
O  O124  1  0.88400886  0.40982943  0.12242564  1  0  -0.628056  0  2.004435  0  0  -0.565533  0  2.22731  0  0  -0.590773  0  2.216748  0  -1.199655  0  -0.30791  -0.548193  0  2.234252  0
O  O125  1  0.61599351  0.59017210  0.62242731  1  0  -0.628058  0  2.004411  0  0  -0.565534  0  2.227269  0  0  -0.590768  0  2.216704  0  -1.199859  0  -0.307933  -0.548193  0  2.234208  0
O  O126  1  0.11599560  0.90982445  0.37757158  1  0  -0.628048  0  2.004482  0  0  -0.565536  0  2.22733  0  0  -0.590753  0  2.216751  0  -1.199853  0  -0.307936  -0.548189  0  2.234267  0
O  O127  1  0.38400405  0.09017325  0.87757325  1  0  -0.628049  0  2.00443  0  0  -0.565523  0  2.227282  0  0  -0.590766  0  2.216722  0  -1.199714  0  -0.307935  -0.548189  0  2.23423  0
