# generated using pymatgen
data_CdH18C32(NO)4
_symmetry_space_group_name_H-M   'P 1'
_cell_length_a   13.52134976
_cell_length_b   15.48880863
_cell_length_c   15.48871817
_cell_angle_alpha   98.14387714
_cell_angle_beta   108.97129307
_cell_angle_gamma   108.97146621
_symmetry_Int_Tables_number   1
_chemical_formula_structural   CdH18C32(NO)4
_chemical_formula_sum   'Cd4 H72 C128 N16 O16'
_cell_volume   2787.80609343
_cell_formula_units_Z   4
loop_
 _symmetry_equiv_pos_site_id
 _symmetry_equiv_pos_as_xyz
  1  'x, y, z'
loop_
 _atom_site_type_symbol
 _atom_site_label
 _atom_site_symmetry_multiplicity
 _atom_site_fract_x
 _atom_site_fract_y
 _atom_site_fract_z
 _atom_site_occupancy
 _atom_site_pbe_bader_charge
 _atom_site_pbe_bader_spin_density
 _atom_site_pbe_cm5_charge
 _atom_site_pbe_ddec_charge
 _atom_site_pbe_ddec_spin_density
 _atom_site_pbe_ddec_sum_bond_order
 _atom_site_pbe_magmom
Cd  Cd0  1  0.05162178  0.55675757  0.90361307  1  1.269477  0  0.771766  0.887929  0  2.146213  0
Cd  Cd1  1  0.44838063  0.09638601  0.44324205  1  1.269461  0  0.77177  0.887954  0  2.146188  0
Cd  Cd2  1  0.94837796  0.44324275  0.09638510  1  1.269482  0  0.771773  0.887939  0  2.14619  0
Cd  Cd3  1  0.55162034  0.90361360  0.55675637  1  1.269485  0  0.771749  0.887959  0  2.14621  0
H  H4  1  0.15346509  0.76884428  0.86967912  1  0.175848  0  0.119891  0.101546  0  1.012064  0
H  H5  1  0.34653494  0.13032008  0.23115281  1  0.175814  0  0.119902  0.101531  0  1.012122  0
H  H6  1  0.84653241  0.23115462  0.13032014  1  0.175819  0  0.11988  0.101513  0  1.012112  0
H  H7  1  0.65346895  0.86968238  0.76884428  1  0.175794  0  0.119873  0.101532  0  1.012047  0
H  H8  1  0.14297825  0.84713458  0.73564801  1  0.127799  0  0.110162  0.117791  0  0.997485  0
H  H9  1  0.35702475  0.26435378  0.15286450  1  0.127799  0  0.110156  0.117769  0  0.997508  0
H  H10  1  0.85702461  0.15286572  0.26435298  1  0.127784  0  0.110184  0.117801  0  0.997512  0
H  H11  1  0.64298563  0.73565078  0.84713539  1  0.127974  0  0.110112  0.11773  0  0.997619  0
H  H12  1  0.02425574  0.74378371  0.56805462  1  0.15004  0  0.108995  0.105779  0  1.027248  0
H  H13  1  0.47574422  0.43194397  0.25621846  1  0.150137  0  0.109009  0.105814  0  1.027185  0
H  H14  1  0.97574591  0.25621731  0.43194420  1  0.15009  0  0.109017  0.105803  0  1.027245  0
H  H15  1  0.52426590  0.56805844  0.74378491  1  0.150118  0  0.108984  0.105784  0  1.027261  0
H  H16  1  0.84933307  0.64475443  0.28760512  1  0.088746  0  0.103841  0.110107  0  1.014175  0
H  H17  1  0.65066880  0.71239084  0.35524449  1  0.088735  0  0.103877  0.110191  0  1.014088  0
H  H18  1  0.15067168  0.35524657  0.71239910  1  0.088763  0  0.103874  0.110129  0  1.014114  0
H  H19  1  0.34933324  0.28760449  0.64475426  1  0.088745  0  0.103857  0.110146  0  1.014096  0
H  H20  1  0.73310506  0.53481908  0.12308056  1  0.104673  0  0.102887  0.105365  0  1.023514  0
H  H21  1  0.76689282  0.87691345  0.46517918  1  0.104793  0  0.102922  0.105444  0  1.023532  0
H  H22  1  0.26690039  0.46518336  0.87691890  1  0.1047  0  0.102924  0.105382  0  1.023556  0
H  H23  1  0.23310425  0.12308617  0.53481748  1  0.104796  0  0.102931  0.105473  0  1.023559  0
H  H24  1  0.64343020  0.36171312  0.09933698  1  0.092836  0  0.10444  0.104878  0  1.013397  0
H  H25  1  0.85657069  0.90065813  0.63828645  1  0.092922  0  0.10445  0.104929  0  1.013388  0
H  H26  1  0.35657535  0.63828790  0.90066166  1  0.092947  0  0.104431  0.104926  0  1.013355  0
H  H27  1  0.14342749  0.09934219  0.36171257  1  0.093001  0  0.104419  0.104921  0  1.013427  0
H  H28  1  0.66458076  0.29388863  0.23852283  1  0.112179  0  0.111063  0.121416  0  0.98065  0
H  H29  1  0.83542035  0.76147156  0.70611071  1  0.112088  0  0.111059  0.121421  0  0.980649  0
H  H30  1  0.33542489  0.70611097  0.76147434  1  0.112078  0  0.111101  0.12147  0  0.980656  0
H  H31  1  0.16457974  0.23852947  0.29388831  1  0.11205  0  0.111051  0.12139  0  0.98072  0
H  H32  1  0.76783442  0.26698485  0.50171285  1  0.148813  0  0.111615  0.121246  0  1.023577  0
H  H33  1  0.73216260  0.49828520  0.73301543  1  0.148842  0  0.111577  0.121191  0  1.023648  0
H  H34  1  0.23216429  0.73301333  0.49828730  1  0.14884  0  0.111616  0.121246  0  1.023587  0
H  H35  1  0.26782698  0.50171515  0.26698373  1  0.148618  0  0.111623  0.12125  0  1.0236  0
H  H36  1  0.80418296  0.20752424  0.64660637  1  0.130808  0  0.110953  0.120136  0  1.010956  0
H  H37  1  0.69581702  0.35339441  0.79247945  1  0.13072  0  0.11095  0.120094  0  1.010955  0
H  H38  1  0.19581755  0.79247607  0.35339525  1  0.130771  0  0.110953  0.120118  0  1.010962  0
H  H39  1  0.30417759  0.64660663  0.20752124  1  0.130728  0  0.110932  0.120104  0  1.011009  0
H  H40  1  0.92904173  0.32588949  0.80715718  1  0.151082  0  0.119571  0.103027  0  1.015673  0
H  H41  1  0.57096024  0.19284241  0.67411399  1  0.151236  0  0.119565  0.103023  0  1.01563  0
H  H42  1  0.07095757  0.67411153  0.19284419  1  0.15109  0  0.119579  0.103018  0  1.01567  0
H  H43  1  0.42903334  0.80715649  0.32588739  1  0.151486  0  0.119564  0.103024  0  1.015625  0
H  H44  1  0.32799421  0.88911232  0.11843702  1  0.115241  0  0.104371  0.109366  0  1.029313  0
H  H45  1  0.17200974  0.88156811  0.11089243  1  0.115111  0  0.104324  0.109289  0  1.029287  0
H  H46  1  0.67200436  0.11088231  0.88156129  1  0.11522  0  0.104383  0.10939  0  1.029242  0
H  H47  1  0.82799055  0.11843501  0.88911600  1  0.114914  0  0.104356  0.109358  0  1.02928  0
H  H48  1  0.51649908  0.99795069  0.23863333  1  0.091532  0  0.106479  0.115236  0  0.998475  0
H  H49  1  0.98350839  0.76136997  0.00205317  1  0.091503  0  0.106451  0.115202  0  0.998462  0
H  H50  1  0.48350165  0.00204679  0.76136213  1  0.083962  0  0.106478  0.115222  0  0.998557  0
H  H51  1  0.01648894  0.23863673  0.99795234  1  0.084231  0  0.106497  0.115319  0  0.998451  0
H  H52  1  0.63464301  0.77091357  0.22422388  1  0.036039  0  0.094983  0.090798  0  1.027787  0
H  H53  1  0.86535420  0.77577901  0.22908451  1  0.035973  0  0.09498  0.090794  0  1.027814  0
H  H54  1  0.36535510  0.22908174  0.77578150  1  0.036048  0  0.095031  0.090864  0  1.027777  0
H  H55  1  0.13464318  0.22422128  0.77092073  1  0.036116  0  0.095008  0.090823  0  1.027826  0
H  H56  1  0.44310233  0.66201844  0.10253520  1  0.059305  0  0.099559  0.098921  0  1.039428  0
H  H57  1  0.05689089  0.89746786  0.33798272  1  0.059417  0  0.099553  0.098907  0  1.039468  0
H  H58  1  0.55689587  0.33797544  0.89746999  1  0.059484  0  0.099586  0.098938  0  1.039495  0
H  H59  1  0.94310467  0.10253030  0.66202364  1  0.059465  0  0.099581  0.098948  0  1.039487  0
H  H60  1  0.79279028  0.90493751  0.24095590  1  0.054444  0  0.09528  0.093269  0  1.036693  0
H  H61  1  0.70721585  0.75904673  0.09506259  1  0.054339  0  0.095261  0.09329  0  1.036674  0
H  H62  1  0.20721699  0.09506707  0.75903987  1  0.054481  0  0.095283  0.093304  0  1.036724  0
H  H63  1  0.29278022  0.24095573  0.90493808  1  0.05455  0  0.095277  0.093297  0  1.036714  0
H  H64  1  0.98485861  0.00680497  0.36190585  1  0.074925  0  0.096778  0.090639  0  1.04602  0
H  H65  1  0.51514450  0.63809287  0.99320478  1  0.074833  0  0.096757  0.090572  0  1.046032  0
H  H66  1  0.01514428  0.99320676  0.63808777  1  0.074619  0  0.096799  0.090608  0  1.046029  0
H  H67  1  0.48485211  0.36190745  0.00679573  1  0.07491  0  0.0968  0.090647  0  1.046021  0
H  H68  1  0.00840777  0.12300052  0.50405830  1  0.063152  0  0.098572  0.096877  0  1.011497  0
H  H69  1  0.49159157  0.49594184  0.87700420  1  0.063159  0  0.098563  0.096863  0  1.011503  0
H  H70  1  0.99158884  0.87699981  0.49594092  1  0.063132  0  0.098561  0.096854  0  1.011488  0
H  H71  1  0.50840773  0.50405918  0.12299654  1  0.063162  0  0.098583  0.096881  0  1.011486  0
H  H72  1  0.83581944  0.13256058  0.52299828  1  0.083961  0  0.102206  0.101598  0  1.03398  0
H  H73  1  0.66417484  0.47699915  0.86743676  1  0.083971  0  0.102192  0.101594  0  1.033954  0
H  H74  1  0.16417152  0.86743124  0.47699746  1  0.084063  0  0.102175  0.101568  0  1.033973  0
H  H75  1  0.33582489  0.52300115  0.13256593  1  0.083951  0  0.102178  0.101585  0  1.034002  0
C  C76  1  0.10556791  0.72798207  0.79517471  1  0.441174  0  0.059316  0.108311  0  3.927795  0
C  C77  1  0.39443426  0.20482320  0.27201656  1  0.440836  0  0.059288  0.108314  0  3.927743  0
C  C78  1  0.89443306  0.27201754  0.20482371  1  0.440833  0  0.059355  0.108405  0  3.927784  0
C  C79  1  0.60556904  0.79517640  0.72798188  1  0.440918  0  0.059348  0.108347  0  3.927833  0
C  C80  1  0.09851883  0.77065114  0.72070927  1  -0.021389  0  -0.076535  -0.118661  0  3.957441  0
C  C81  1  0.40148281  0.27928983  0.22934756  1  -0.021066  0  -0.076495  -0.118562  0  3.9574  0
C  C82  1  0.90148101  0.22934776  0.27928873  1  -0.020963  0  -0.076542  -0.118659  0  3.957515  0
C  C83  1  0.59852498  0.72071259  0.77065321  1  -0.021319  0  -0.07648  -0.118543  0  3.95757  0
C  C84  1  0.03324946  0.71395486  0.62828139  1  -0.026853  0  -0.054139  -0.039148  0  3.911936  0
C  C85  1  0.46675247  0.37171714  0.28604653  1  -0.026927  0  -0.054166  -0.039291  0  3.911957  0
C  C86  1  0.96675272  0.28604403  0.37171663  1  -0.027041  0  -0.054178  -0.039232  0  3.911999  0
C  C87  1  0.53325443  0.62828670  0.71395678  1  -0.026869  0  -0.054105  -0.039172  0  3.911951  0
C  C88  1  0.97687767  0.61566879  0.61156875  1  -0.059549  0  -0.000279  -0.025451  0  3.959855  0
C  C89  1  0.52312434  0.38842857  0.38433303  1  -0.059187  0  -0.00031  -0.025401  0  3.959809  0
C  C90  1  0.02312330  0.38433082  0.38842967  1  -0.059441  0  -0.000295  -0.025437  0  3.959758  0
C  C91  1  0.47687618  0.61157173  0.61566859  1  -0.059732  0  -0.000322  -0.025529  0  3.959829  0
C  C92  1  0.90507493  0.55323912  0.51583474  1  0.532738  0  0.122482  0.126988  0  4.015662  0
C  C93  1  0.59492327  0.48416216  0.44676061  1  0.533244  0  0.122449  0.126933  0  4.015671  0
C  C94  1  0.09492491  0.44675978  0.48416390  1  0.532946  0  0.122465  0.127011  0  4.015618  0
C  C95  1  0.40507613  0.51583745  0.55323865  1  0.533225  0  0.122385  0.126848  0  4.01572  0
C  C96  1  0.82331033  0.53156066  0.35507762  1  0.462917  0  0.111239  0.160867  0  4.027484  0
C  C97  1  0.67668951  0.64491870  0.46843811  1  0.462882  0  0.111208  0.160801  0  4.027496  0
C  C98  1  0.17668794  0.46843824  0.64492187  1  0.46297  0  0.111263  0.160884  0  4.027425  0
C  C99  1  0.32331648  0.35508160  0.53156119  1  0.462795  0  0.111185  0.160687  0  4.027603  0
C  C100  1  0.80701681  0.56835149  0.27510312  1  -0.059032  0  -0.085343  -0.147197  0  3.948627  0
C  C101  1  0.69298224  0.72489292  0.43164790  1  -0.059124  0  -0.085386  -0.147288  0  3.948658  0
C  C102  1  0.19298404  0.43164953  0.72489806  1  -0.059108  0  -0.085403  -0.147225  0  3.948626  0
C  C103  1  0.30702038  0.27510525  0.56835078  1  -0.059065  0  -0.085363  -0.147157  0  3.948497  0
C  C104  1  0.74287804  0.50742027  0.18506050  1  -0.021951  0  -0.080126  -0.060867  0  3.96784  0
C  C105  1  0.75712241  0.81493633  0.49257936  1  -0.021874  0  -0.080099  -0.060895  0  3.96797  0
C  C106  1  0.25712472  0.49258146  0.81494068  1  -0.021903  0  -0.080134  -0.060847  0  3.967846  0
C  C107  1  0.24287632  0.18506187  0.50741628  1  -0.022234  0  -0.080169  -0.061036  0  3.968071  0
C  C108  1  0.69102269  0.40800295  0.17150912  1  0.000547  0  -0.08024  -0.059438  0  3.979208  0
C  C109  1  0.80897748  0.82848610  0.59199774  1  0.000569  0  -0.080288  -0.059553  0  3.979399  0
C  C110  1  0.30898242  0.59199878  0.82848950  1  0.000376  0  -0.080279  -0.05959  0  3.979249  0
C  C111  1  0.19102115  0.17151352  0.40799937  1  0.000796  0  -0.080275  -0.059611  0  3.979456  0
C  C112  1  0.70323316  0.37001489  0.24754304  1  -0.054311  0  -0.083341  -0.148192  0  3.956684  0
C  C113  1  0.79676866  0.75245252  0.62998493  1  -0.054328  0  -0.083333  -0.148132  0  3.956672  0
C  C114  1  0.29676961  0.62998685  0.75245556  1  -0.054197  0  -0.083355  -0.148144  0  3.956662  0
C  C115  1  0.20323377  0.24754851  0.37001283  1  -0.054226  0  -0.083275  -0.148001  0  3.956569  0
C  C116  1  0.77046606  0.43060237  0.34110582  1  0.458137  0  0.111483  0.156916  0  4.030479  0
C  C117  1  0.72953238  0.65889032  0.56939721  1  0.458212  0  0.111519  0.156934  0  4.030373  0
C  C118  1  0.22953256  0.56939724  0.65889387  1  0.458171  0  0.111478  0.156878  0  4.03042  0
C  C119  1  0.27047161  0.34111070  0.43060228  1  0.458335  0  0.111491  0.15699  0  4.030386  0
C  C120  1  0.85196990  0.45255865  0.50185481  1  0.548169  0  0.122199  0.122949  0  4.024196  0
C  C121  1  0.64802939  0.49814359  0.54744163  1  0.548305  0  0.122256  0.123046  0  4.02426  0
C  C122  1  0.14803062  0.54744166  0.49814488  1  0.548335  0  0.122222  0.12295  0  4.024214  0
C  C123  1  0.35197068  0.50185744  0.45255933  1  0.548098  0  0.1223  0.123186  0  4.024011  0
C  C124  1  0.87085880  0.41386520  0.58341254  1  -0.004518  0  -0.000935  -0.026753  0  3.96853  0
C  C125  1  0.62913963  0.41658511  0.58613451  1  -0.004299  0  -0.000982  -0.02683  0  3.968606  0
C  C126  1  0.12914026  0.58613370  0.41658588  1  -0.004253  0  -0.000904  -0.026651  0  3.968441  0
C  C127  1  0.37085718  0.58341237  0.41386436  1  -0.004471  0  -0.000973  -0.02687  0  3.968605  0
C  C128  1  0.82193717  0.31570953  0.57240242  1  0.042248  0  -0.056792  -0.047342  0  3.891554  0
C  C129  1  0.67806153  0.42759525  0.68429078  1  0.042245  0  -0.05676  -0.04733  0  3.891694  0
C  C130  1  0.17806301  0.68429007  0.42759836  1  0.042149  0  -0.05681  -0.047391  0  3.891561  0
C  C131  1  0.32193372  0.57240224  0.31570700  1  0.04238  0  -0.056846  -0.047401  0  3.891625  0
C  C132  1  0.84187027  0.28292296  0.65239260  1  -0.131807  0  -0.078636  -0.12209  0  3.952559  0
C  C133  1  0.65813033  0.34760736  0.71707899  1  -0.131637  0  -0.078626  -0.122002  0  3.952612  0
C  C134  1  0.15813058  0.71707805  0.34760922  1  -0.131597  0  -0.078609  -0.122039  0  3.952503  0
C  C135  1  0.34186492  0.65239012  0.28291944  1  -0.131841  0  -0.078559  -0.121993  0  3.952653  0
C  C136  1  0.91050962  0.34818853  0.74202659  1  0.522451  0  0.060737  0.112492  0  3.910371  0
C  C137  1  0.58949097  0.25797228  0.65181380  1  0.52249  0  0.060757  0.11254  0  3.910277  0
C  C138  1  0.08949124  0.65181249  0.25797459  1  0.522462  0  0.060725  0.112528  0  3.910259  0
C  C139  1  0.41050428  0.74202521  0.34818462  1  0.522257  0  0.060724  0.112516  0  3.910316  0
C  C140  1  0.93821296  0.47520066  0.67610465  1  0.499266  0  0.121962  0.13081  0  3.975111  0
C  C141  1  0.56178921  0.32389347  0.52479991  1  0.499261  0  0.121979  0.130824  0  3.975114  0
C  C142  1  0.06178888  0.52479752  0.32389381  1  0.49925  0  0.121922  0.130708  0  3.975177  0
C  C143  1  0.43820985  0.67610542  0.47519915  1  0.499275  0  0.122005  0.130879  0  3.975102  0
C  C144  1  0.99112324  0.57790058  0.69047240  1  0.558225  0  0.124826  0.138529  0  3.975264  0
C  C145  1  0.50887912  0.30952334  0.42209879  1  0.55793  0  0.124826  0.13851  0  3.975334  0
C  C146  1  0.00887895  0.42209832  0.30952433  1  0.558208  0  0.124816  0.138524  0  3.975368  0
C  C147  1  0.49112150  0.69047556  0.57789943  1  0.558458  0  0.124789  0.138547  0  3.975267  0
C  C148  1  0.25585161  0.70260280  0.03223252  1  1.538793  0  0.186963  0.543114  0  4.247531  0
C  C149  1  0.24414859  0.96777240  0.29740353  1  1.539109  0  0.186998  0.543139  0  4.247526  0
C  C150  1  0.74414774  0.29739183  0.96776472  1  1.538946  0  0.18702  0.54318  0  4.247347  0
C  C151  1  0.75585136  0.03223001  0.70260598  1  1.538802  0  0.187004  0.543154  0  4.247355  0
C  C152  1  0.37323272  0.76859600  0.10176026  1  -0.063426  0  -0.024165  -0.042802  0  3.992606  0
C  C153  1  0.12676689  0.89824582  0.23140690  1  -0.064178  0  -0.024252  -0.042948  0  3.992736  0
C  C154  1  0.62676506  0.23139861  0.89824105  1  -0.063951  0  -0.024232  -0.043054  0  3.992844  0
C  C155  1  0.87323161  0.10175519  0.76859748  1  -0.064112  0  -0.02414  -0.042819  0  3.992592  0
C  C156  1  0.39572579  0.86366508  0.14061378  1  -0.036264  0  -0.081043  -0.077923  0  3.960147  0
C  C157  1  0.10427226  0.85938903  0.13633717  1  -0.03579  0  -0.081  -0.077821  0  3.960132  0
C  C158  1  0.60426922  0.13633027  0.85938491  1  -0.035698  0  -0.081001  -0.077756  0  3.960092  0
C  C159  1  0.89572433  0.14061127  0.86366850  1  -0.035514  0  -0.081051  -0.077869  0  3.959874  0
C  C160  1  0.50237237  0.92476395  0.20888067  1  0.002002  0  -0.085225  -0.115389  0  3.947678  0
C  C161  1  0.99763136  0.79112278  0.07523750  1  0.001959  0  -0.085173  -0.115302  0  3.947619  0
C  C162  1  0.49762465  0.07523068  0.79111655  1  0.009496  0  -0.085261  -0.115486  0  3.947765  0
C  C163  1  0.00237085  0.20888106  0.92476899  1  0.009174  0  -0.085302  -0.115607  0  3.947755  0
C  C164  1  0.59027437  0.89269002  0.24050461  1  -0.036045  0  -0.006223  0.072219  0  4.000264  0
C  C165  1  0.90972854  0.75949481  0.10731001  1  -0.036088  0  -0.006224  0.072186  0  4.000261  0
C  C166  1  0.40972635  0.10730745  0.75949343  1  -0.036371  0  -0.006251  0.072167  0  4.000417  0
C  C167  1  0.09026961  0.24050548  0.89269610  1  -0.03571  0  -0.006221  0.072161  0  4.000454  0
C  C168  1  0.56800719  0.79759416  0.19974749  1  0.008736  0  -0.096658  -0.141275  0  3.99275  0
C  C169  1  0.93198978  0.80025388  0.20240448  1  0.008846  0  -0.096706  -0.141319  0  3.992799  0
C  C170  1  0.43199127  0.20240188  0.80025422  1  0.00899  0  -0.096729  -0.141338  0  3.992715  0
C  C171  1  0.06800847  0.19974498  0.79760146  1  -0.009523  0  -0.096638  -0.141196  0  3.992704  0
C  C172  1  0.46104840  0.73631813  0.13162363  1  -0.087812  0  -0.093157  -0.108113  0  4.013959  0
C  C173  1  0.03894502  0.86838027  0.26368183  1  -0.08793  0  -0.09308  -0.108015  0  4.013813  0
C  C174  1  0.53894737  0.26367718  0.86838108  1  -0.087944  0  -0.093104  -0.107991  0  4.013834  0
C  C175  1  0.96105011  0.13161862  0.73632193  1  -0.069688  0  -0.093207  -0.10818  0  4.014003  0
C  C176  1  0.70344130  0.95646807  0.31457321  1  -0.034252  0  -0.003665  0.042916  0  3.970354  0
C  C177  1  0.79656351  0.68542783  0.04353418  1  -0.033881  0  -0.003626  0.042997  0  3.970307  0
C  C178  1  0.29656114  0.04353297  0.68542196  1  -0.033943  0  -0.003663  0.042973  0  3.970548  0
C  C179  1  0.20343568  0.31457460  0.95646996  1  -0.034057  0  -0.003608  0.04313  0  3.970413  0
C  C180  1  0.80198002  0.95317379  0.30433610  1  -0.095564  0  -0.097031  -0.145811  0  4.002609  0
C  C181  1  0.69802399  0.69566296  0.04682908  1  -0.09564  0  -0.097067  -0.146019  0  4.002839  0
C  C182  1  0.19802258  0.04683082  0.69565706  1  -0.09567  0  -0.097089  -0.146009  0  4.002883  0
C  C183  1  0.30197409  0.30433877  0.95317270  1  -0.095718  0  -0.097125  -0.14607  0  4.00306  0
C  C184  1  0.91058718  0.01160465  0.37181327  1  -0.041194  0  -0.096443  -0.087483  0  4.046255  0
C  C185  1  0.58941686  0.62818845  0.98840237  1  -0.040739  0  -0.096455  -0.087363  0  4.046113  0
C  C186  1  0.08941487  0.98840208  0.62818326  1  -0.040651  0  -0.096465  -0.087366  0  4.046044  0
C  C187  1  0.41058156  0.37181401  0.01159832  1  -0.040832  0  -0.096454  -0.087435  0  4.046252  0
C  C188  1  0.92359638  0.07673219  0.45109869  1  -0.073493  0  -0.094816  -0.09037  0  4.026489  0
C  C189  1  0.57640287  0.54889805  0.92327128  1  -0.07368  0  -0.094773  -0.090314  0  4.026271  0
C  C190  1  0.07640474  0.92327099  0.54889706  1  -0.073718  0  -0.094768  -0.090322  0  4.026394  0
C  C191  1  0.42359573  0.45110155  0.07673035  1  -0.073765  0  -0.094821  -0.090361  0  4.026346  0
C  C192  1  0.82728155  0.08254900  0.46147153  1  0.031897  0  -0.085395  -0.090215  0  3.970341  0
C  C193  1  0.67271687  0.53852962  0.91745171  1  0.031728  0  -0.085403  -0.090279  0  3.970354  0
C  C194  1  0.17271517  0.91744991  0.53852558  1  0.031706  0  -0.085452  -0.09032  0  3.97044  0
C  C195  1  0.32728232  0.46147282  0.08255113  1  0.031811  0  -0.085404  -0.090312  0  3.970356  0
C  C196  1  0.71736188  0.02252702  0.39517417  1  -0.053807  0  -0.008316  -0.062343  0  3.897813  0
C  C197  1  0.78263717  0.60482341  0.97747534  1  -0.054071  0  -0.008269  -0.062231  0  3.897618  0
C  C198  1  0.28263623  0.97747476  0.60481730  1  -0.054229  0  -0.008179  -0.062122  0  3.897641  0
C  C199  1  0.21736012  0.39517833  0.02252686  1  -0.054299  0  -0.008268  -0.062262  0  3.897719  0
C  C200  1  0.61869472  0.03007784  0.41634537  1  1.576819  0  0.207974  0.589973  0  4.209809  0
C  C201  1  0.88130399  0.58365139  0.96991975  1  1.576982  0  0.207965  0.590043  0  4.209782  0
C  C202  1  0.38130446  0.96991966  0.58364707  1  1.577096  0  0.207975  0.589993  0  4.209939  0
C  C203  1  0.11869340  0.41634892  0.03008163  1  1.577008  0  0.20796  0.590079  0  4.209775  0
N  N204  1  0.05403294  0.63430538  0.78008773  1  -1.213611  0  -0.316231  -0.265874  0  3.485627  0
N  N205  1  0.44596941  0.21991020  0.36569405  1  -1.213679  0  -0.316227  -0.265894  0  3.485658  0
N  N206  1  0.94596802  0.36569422  0.21991134  1  -1.213656  0  -0.316252  -0.265937  0  3.48575  0
N  N207  1  0.55403312  0.78008940  0.63430481  1  -1.213663  0  -0.316238  -0.265965  0  3.485792  0
N  N208  1  0.95689841  0.44150978  0.75321317  1  -1.236515  0  -0.31907  -0.265687  0  3.488108  0
N  N209  1  0.54310543  0.24678484  0.55849119  1  -1.236733  0  -0.31909  -0.265752  0  3.488125  0
N  N210  1  0.04310367  0.55849053  0.24678631  1  -1.236515  0  -0.319077  -0.265693  0  3.488042  0
N  N211  1  0.45689284  0.75321406  0.44150830  1  -1.236726  0  -0.319096  -0.265789  0  3.488126  0
N  N212  1  0.88995189  0.59128227  0.44319752  1  -1.181151  0  -0.294396  -0.293643  0  3.286899  0
N  N213  1  0.61004548  0.55679689  0.40871686  1  -1.181729  0  -0.29435  -0.293534  0  3.286836  0
N  N214  1  0.11004517  0.40871735  0.55680043  1  -1.181505  0  -0.294363  -0.293623  0  3.286866  0
N  N215  1  0.38995748  0.44320200  0.59128202  1  -1.181665  0  -0.294255  -0.293412  0  3.286893  0
N  N216  1  0.78563355  0.39301671  0.41568727  1  -1.156763  0  -0.293039  -0.291289  0  3.28994  0
N  N217  1  0.71436657  0.58430975  0.60698434  1  -1.156825  0  -0.29309  -0.291354  0  3.28991  0
N  N218  1  0.21436663  0.60698290  0.58431221  1  -1.156771  0  -0.293049  -0.291312  0  3.290029  0
N  N219  1  0.28563595  0.41568984  0.39301646  1  -1.15682  0  -0.293051  -0.291382  0  3.289866  0
O  O220  1  0.17938720  0.73416785  0.00407719  1  -1.173939  0  -0.323062  -0.550576  0  2.178703  0
O  O221  1  0.32061389  0.99592439  0.26583893  1  -1.174118  0  -0.323021  -0.550506  0  2.178784  0
O  O222  1  0.82061508  0.26582963  0.99592000  1  -1.174049  0  -0.323089  -0.550576  0  2.178672  0
O  O223  1  0.67938294  0.00407803  0.73416841  1  -1.174052  0  -0.323076  -0.550531  0  2.178601  0
O  O224  1  0.23788642  0.61421311  0.00422623  1  -1.156464  0  -0.336951  -0.561753  0  2.249831  0
O  O225  1  0.26211210  0.99577461  0.38579352  1  -1.156419  0  -0.337001  -0.561827  0  2.249696  0
O  O226  1  0.76211632  0.38578365  0.99576906  1  -1.156438  0  -0.336984  -0.561762  0  2.249622  0
O  O227  1  0.73788726  0.00422496  0.61421477  1  -1.156367  0  -0.33696  -0.561832  0  2.249785  0
O  O228  1  0.54371048  0.95663901  0.41902518  1  -1.192559  0  -0.330405  -0.581858  0  2.309532  0
O  O229  1  0.95628707  0.58097395  0.04336084  1  -1.192593  0  -0.330379  -0.581925  0  2.309627  0
O  O230  1  0.45628791  0.04335849  0.58096962  1  -1.192625  0  -0.330451  -0.581956  0  2.309687  0
O  O231  1  0.04371281  0.41902991  0.95664176  1  -1.192545  0  -0.330415  -0.581971  0  2.309619  0
O  O232  1  0.61714781  0.11268230  0.43124158  1  -1.142786  0  -0.320927  -0.534433  0  2.22626  0
O  O233  1  0.88285330  0.56875665  0.88731562  1  -1.142891  0  -0.320925  -0.534473  0  2.226267  0
O  O234  1  0.38285213  0.88731518  0.56875624  1  -1.142804  0  -0.320904  -0.534444  0  2.226337  0
O  O235  1  0.11714643  0.43124365  0.11268642  1  -1.142878  0  -0.320876  -0.534412  0  2.226216  0
