# generated using pymatgen
data_ZnH16C11(IN2)2
_symmetry_space_group_name_H-M   'P 1'
_cell_length_a   9.80512555
_cell_length_b   12.80383957
_cell_length_c   13.36963176
_cell_angle_alpha   90.00035864
_cell_angle_beta   89.99998701
_cell_angle_gamma   90.00004017
_symmetry_Int_Tables_number   1
_chemical_formula_structural   ZnH16C11(IN2)2
_chemical_formula_sum   'Zn4 H64 C44 I8 N16'
_cell_volume   1678.46708277
_cell_formula_units_Z   4
loop_
 _symmetry_equiv_pos_site_id
 _symmetry_equiv_pos_as_xyz
  1  'x, y, z'
loop_
 _atom_site_type_symbol
 _atom_site_label
 _atom_site_symmetry_multiplicity
 _atom_site_fract_x
 _atom_site_fract_y
 _atom_site_fract_z
 _atom_site_occupancy
 _atom_site_hle17_bader_spin_density
 _atom_site_hle17_ddec_charge
 _atom_site_hle17_ddec_spin_density
 _atom_site_hle17_ddec_sum_bond_order
 _atom_site_hle17_magmom
 _atom_site_hse06_10hf_bader_spin_density
 _atom_site_hse06_10hf_ddec_charge
 _atom_site_hse06_10hf_ddec_spin_density
 _atom_site_hse06_10hf_ddec_sum_bond_order
 _atom_site_hse06_10hf_magmom
 _atom_site_hse06_bader_spin_density
 _atom_site_hse06_ddec_charge
 _atom_site_hse06_ddec_spin_density
 _atom_site_hse06_ddec_sum_bond_order
 _atom_site_hse06_magmom
 _atom_site_pbe_bader_spin_density
 _atom_site_pbe_cm5_charge
 _atom_site_pbe_ddec_charge
 _atom_site_pbe_ddec_spin_density
 _atom_site_pbe_ddec_sum_bond_order
 _atom_site_pbe_magmom
Zn  Zn0  1  0.07176449  0.17864545  0.65637238  1  0  0.671616  0  2.275627  0  0  0.510822  0  2.748249  0  0  0.55137  0  2.707741  0  0  0.481579  0.483131  0  2.775077  0
Zn  Zn1  1  0.42823760  0.82135737  0.15637098  1  0  0.671581  0  2.275644  0  0  0.51077  0  2.748273  0  0  0.551314  0  2.707763  0  0  0.481567  0.483073  0  2.7751  0
Zn  Zn2  1  0.92823817  0.67864163  0.84363028  1  0  0.671601  0  2.275605  0  0  0.510779  0  2.748235  0  0  0.551329  0  2.707725  0  0  0.481563  0.48309  0  2.775065  0
Zn  Zn3  1  0.57176534  0.32135410  0.34362743  1  0  0.671589  0  2.275667  0  0  0.510763  0  2.748298  0  0  0.551313  0  2.707787  0  0  0.481549  0.483067  0  2.775124  0
H  H4  1  0.54596135  0.18760918  0.85934281  1  0  0.084231  0  0.948594  0  0  0.100375  0  1.010987  0  0  0.101026  0  1.011074  0  0  0.08808  0.099755  0  1.011341  0
H  H5  1  0.95403603  0.81239368  0.35934434  1  0  0.084134  0  0.948703  0  0  0.100329  0  1.011041  0  0  0.100979  0  1.011129  0  0  0.08809  0.09971  0  1.011395  0
H  H6  1  0.45403622  0.68760690  0.64065467  1  0  0.084133  0  0.948697  0  0  0.10034  0  1.011011  0  0  0.10099  0  1.011097  0  0  0.088071  0.09972  0  1.011363  0
H  H7  1  0.04596180  0.31238958  0.14065776  1  0  0.084195  0  0.948613  0  0  0.100355  0  1.011008  0  0  0.101006  0  1.011093  0  0  0.088078  0.099734  0  1.011363  0
H  H8  1  0.60568113  0.21281219  0.98108520  1  0  0.080781  0  0.92653  0  0  0.099413  0  0.983843  0  0  0.099816  0  0.984332  0  0  0.096474  0.099349  0  0.983493  0
H  H9  1  0.89431826  0.78719303  0.48108808  1  0  0.080737  0  0.926427  0  0  0.099366  0  0.98376  0  0  0.099768  0  0.98425  0  0  0.096447  0.099303  0  0.98341  0
H  H10  1  0.39431748  0.71280830  0.51891168  1  0  0.080772  0  0.926496  0  0  0.099412  0  0.983812  0  0  0.099813  0  0.984301  0  0  0.096463  0.099348  0  0.983462  0
H  H11  1  0.10568159  0.28718816  0.01891536  1  0  0.080739  0  0.926415  0  0  0.09938  0  0.983736  0  0  0.099783  0  0.984225  0  0  0.096444  0.099317  0  0.983386  0
H  H12  1  0.78142396  0.20748610  0.62108423  1  0  0.115241  0  0.976739  0  0  0.129516  0  1.048071  0  0  0.13183  0  1.046968  0  0  0.083848  0.128097  0  1.048706  0
H  H13  1  0.71857350  0.79251208  0.12108717  1  0  0.115313  0  0.976721  0  0  0.129582  0  1.048049  0  0  0.131897  0  1.046946  0  0  0.083893  0.128164  0  1.048684  0
H  H14  1  0.21857363  0.70748837  0.87891262  1  0  0.115304  0  0.976704  0  0  0.129571  0  1.048038  0  0  0.131887  0  1.046933  0  0  0.08388  0.128154  0  1.048674  0
H  H15  1  0.28142533  0.29251279  0.37891630  1  0  0.115245  0  0.976758  0  0  0.129517  0  1.04809  0  0  0.131832  0  1.046987  0  0  0.083852  0.128099  0  1.048725  0
H  H16  1  0.67290523  0.28303788  0.69804096  1  0  0.123681  0  0.927978  0  0  0.146822  0  0.981822  0  0  0.148768  0  0.98112  0  0  0.094341  0.145293  0  0.982672  0
H  H17  1  0.82709322  0.71696237  0.19804418  1  0  0.123685  0  0.927957  0  0  0.146821  0  0.981786  0  0  0.148765  0  0.981086  0  0  0.094334  0.145293  0  0.982636  0
H  H18  1  0.32709345  0.78303814  0.80195559  1  0  0.123667  0  0.927985  0  0  0.146805  0  0.981816  0  0  0.14875  0  0.981114  0  0  0.094334  0.145277  0  0.982666  0
H  H19  1  0.17290452  0.21696173  0.30195884  1  0  0.123678  0  0.927988  0  0  0.146799  0  0.981854  0  0  0.148744  0  0.981153  0  0  0.094332  0.145272  0  0.982703  0
H  H20  1  0.63534216  0.14949035  0.67643413  1  0  0.114331  0  0.96622  0  0  0.12946  0  1.037556  0  0  0.131393  0  1.037006  0  0  0.083219  0.128548  0  1.037076  0
H  H21  1  0.86465629  0.85050819  0.17643665  1  0  0.114314  0  0.966365  0  0  0.129465  0  1.037655  0  0  0.131399  0  1.037102  0  0  0.08321  0.128554  0  1.037175  0
H  H22  1  0.36465639  0.64949234  0.82356312  1  0  0.114315  0  0.966351  0  0  0.129465  0  1.037647  0  0  0.131399  0  1.037093  0  0  0.083215  0.128554  0  1.037168  0
H  H23  1  0.13534157  0.35050924  0.32356642  1  0  0.114287  0  0.966292  0  0  0.129424  0  1.037619  0  0  0.131359  0  1.037065  0  0  0.083202  0.128513  0  1.03714  0
H  H24  1  0.00207548  0.09761310  0.05849405  1  0  0.123671  0  0.930355  0  0  0.145661  0  0.984631  0  0  0.147886  0  0.983482  0  0  0.097626  0.144014  0  0.985508  0
H  H25  1  0.49792358  0.90238831  0.55849822  1  0  0.123639  0  0.930448  0  0  0.14564  0  0.984714  0  0  0.147866  0  0.983566  0  0  0.097629  0.143992  0  0.985592  0
H  H26  1  0.99792317  0.59761151  0.44150227  1  0  0.123654  0  0.930431  0  0  0.14566  0  0.98469  0  0  0.147885  0  0.983543  0  0  0.097635  0.144013  0  0.985568  0
H  H27  1  0.50207520  0.40238720  0.94150578  1  0  0.123666  0  0.930347  0  0  0.145656  0  0.984622  0  0  0.147881  0  0.983473  0  0  0.097626  0.144008  0  0.985499  0
H  H28  1  0.83313876  0.04800868  0.06142136  1  0  0.129141  0  0.940626  0  0  0.150504  0  0.99782  0  0  0.152089  0  0.998326  0  0  0.095576  0.149318  0  0.997541  0
H  H29  1  0.66685871  0.95199145  0.56142439  1  0  0.129133  0  0.940602  0  0  0.150486  0  0.997812  0  0  0.152072  0  0.998324  0  0  0.095576  0.149303  0  0.997533  0
H  H30  1  0.16685679  0.54800819  0.43857541  1  0  0.129163  0  0.940594  0  0  0.150523  0  0.997791  0  0  0.15211  0  0.998302  0  0  0.095592  0.149341  0  0.997513  0
H  H31  1  0.33313807  0.45199180  0.93857841  1  0  0.129131  0  0.940606  0  0  0.15049  0  0.997806  0  0  0.152073  0  0.998318  0  0  0.095568  0.149304  0  0.997529  0
H  H32  1  0.86296505  0.18250593  0.08621751  1  0  0.115934  0  0.954396  0  0  0.133408  0  1.022116  0  0  0.135433  0  1.021317  0  0  0.090547  0.131834  0  1.022997  0
H  H33  1  0.63703445  0.81749515  0.58621974  1  0  0.115903  0  0.954428  0  0  0.133384  0  1.022151  0  0  0.13541  0  1.021352  0  0  0.090543  0.131811  0  1.023032  0
H  H34  1  0.13703266  0.68250369  0.41378082  1  0  0.11592  0  0.954382  0  0  0.133403  0  1.022104  0  0  0.135429  0  1.021305  0  0  0.090545  0.131831  0  1.022986  0
H  H35  1  0.36296425  0.31749457  0.91378226  1  0  0.115928  0  0.9544  0  0  0.133409  0  1.022109  0  0  0.135434  0  1.021309  0  0  0.090555  0.131835  0  1.022989  0
H  H36  1  0.08217837  0.12310892  0.87457942  1  0  0.276245  0  0.910796  0  0  0.257241  0  0.979577  0  0  0.265226  0  0.972442  0  0  0.309613  0.251984  0  0.984377  0
H  H37  1  0.41781855  0.87689064  0.37458134  1  0  0.2762  0  0.910799  0  0  0.2572  0  0.979569  0  0  0.265182  0  0.972437  0  0  0.309622  0.251943  0  0.984368  0
H  H38  1  0.91782015  0.62310913  0.62541916  1  0  0.276212  0  0.910808  0  0  0.257212  0  0.979592  0  0  0.26519  0  0.972455  0  0  0.309614  0.251955  0  0.984391  0
H  H39  1  0.58217934  0.37689142  0.12542039  1  0  0.276238  0  0.91082  0  0  0.257232  0  0.979607  0  0  0.265216  0  0.97247  0  0  0.309613  0.251975  0  0.984406  0
H  H40  1  0.52065444  0.80440335  0.94582198  1  0  0.277092  0  0.913372  0  0  0.25766  0  0.983622  0  0  0.265102  0  0.977758  0  0  0.308678  0.252372  0  0.987886  0
H  H41  1  0.97935005  0.19559930  0.44582505  1  0  0.277122  0  0.913343  0  0  0.257682  0  0.983579  0  0  0.265127  0  0.977712  0  0  0.308679  0.252395  0  0.987842  0
H  H42  1  0.47935037  0.30440126  0.55417395  1  0  0.277148  0  0.913304  0  0  0.257708  0  0.98354  0  0  0.265152  0  0.977673  0  0  0.308693  0.252421  0  0.987802  0
H  H43  1  0.02065379  0.69559621  0.05417784  1  0  0.277023  0  0.91343  0  0  0.257691  0  0.983608  0  0  0.26514  0  0.977732  0  0  0.308665  0.252404  0  0.987875  0
H  H44  1  0.61030454  0.85275393  0.77495130  1  0  0.111543  0  0.980074  0  0  0.127666  0  1.049736  0  0  0.129667  0  1.049177  0  0  0.081697  0.12627  0  1.050076  0
H  H45  1  0.88969694  0.14724838  0.27495109  1  0  0.111522  0  0.980062  0  0  0.12764  0  1.04974  0  0  0.129642  0  1.049181  0  0  0.081695  0.126244  0  1.050081  0
H  H46  1  0.38969827  0.35275291  0.72504717  1  0  0.111556  0  0.980017  0  0  0.127666  0  1.049689  0  0  0.129673  0  1.049125  0  0  0.081697  0.12627  0  1.050031  0
H  H47  1  0.11030379  0.64724568  0.22505076  1  0  0.111549  0  0.980055  0  0  0.127676  0  1.049714  0  0  0.129677  0  1.049154  0  0  0.081711  0.126279  0  1.050055  0
H  H48  1  0.71960865  0.96297481  0.77728751  1  0  0.124168  0  0.951825  0  0  0.143605  0  1.012362  0  0  0.145252  0  1.012857  0  0  0.091321  0.142358  0  1.012085  0
H  H49  1  0.78039080  0.03702517  0.27728891  1  0  0.124141  0  0.951837  0  0  0.143584  0  1.012376  0  0  0.145225  0  1.012876  0  0  0.091318  0.142338  0  1.012098  0
H  H50  1  0.28039121  0.46297606  0.72271012  1  0  0.124163  0  0.951802  0  0  0.143594  0  1.012348  0  0  0.145236  0  1.012849  0  0  0.091315  0.142347  0  1.012071  0
H  H51  1  0.21960780  0.53702485  0.22271303  1  0  0.124178  0  0.951834  0  0  0.143619  0  1.012366  0  0  0.145262  0  1.012865  0  0  0.091325  0.142372  0  1.012089  0
H  H52  1  0.54686329  0.97794281  0.73840318  1  0  0.118925  0  0.962056  0  0  0.139078  0  1.023499  0  0  0.141021  0  1.022965  0  0  0.084448  0.137825  0  1.023662  0
H  H53  1  0.95313820  0.02205692  0.23840521  1  0  0.118942  0  0.962066  0  0  0.139055  0  1.023556  0  0  0.140998  0  1.023022  0  0  0.084436  0.137802  0  1.023719  0
H  H54  1  0.45313861  0.47794362  0.76159380  1  0  0.118923  0  0.962065  0  0  0.13902  0  1.023564  0  0  0.140964  0  1.023029  0  0  0.084406  0.13777  0  1.023722  0
H  H55  1  0.04686344  0.52205599  0.26159814  1  0  0.118913  0  0.962024  0  0  0.139067  0  1.023473  0  0  0.141012  0  1.022935  0  0  0.084436  0.137814  0  1.023636  0
H  H56  1  0.47260893  0.04493262  0.20193086  1  0  0.116029  0  0.969096  0  0  0.130083  0  1.04138  0  0  0.132336  0  1.040154  0  0  0.08279  0.128397  0  1.042342  0
H  H57  1  0.02739314  0.95506972  0.70193244  1  0  0.115959  0  0.969129  0  0  0.130004  0  1.041426  0  0  0.132258  0  1.040202  0  0  0.082742  0.12832  0  1.042384  0
H  H58  1  0.52739376  0.54493141  0.29806664  1  0  0.116022  0  0.969048  0  0  0.130054  0  1.041362  0  0  0.132308  0  1.040137  0  0  0.082772  0.128369  0  1.042321  0
H  H59  1  0.97261078  0.45506715  0.79806963  1  0  0.115991  0  0.969101  0  0  0.13005  0  1.04139  0  0  0.132305  0  1.040162  0  0  0.082771  0.128363  0  1.042353  0
H  H60  1  0.41992838  0.14845364  0.12295219  1  0  0.118206  0  0.955773  0  0  0.13603  0  1.018592  0  0  0.137368  0  1.019348  0  0  0.091432  0.135028  0  1.018153  0
H  H61  1  0.08007372  0.85154897  0.62294939  1  0  0.118261  0  0.955726  0  0  0.136057  0  1.018572  0  0  0.137403  0  1.019315  0  0  0.091435  0.135053  0  1.018134  0
H  H62  1  0.58007338  0.64845141  0.37704818  1  0  0.118225  0  0.955741  0  0  0.13603  0  1.018582  0  0  0.137376  0  1.019325  0  0  0.091433  0.135027  0  1.018143  0
H  H63  1  0.91992807  0.35154532  0.87704832  1  0  0.118222  0  0.95577  0  0  0.136039  0  1.018601  0  0  0.137378  0  1.019353  0  0  0.091429  0.135036  0  1.018162  0
H  H64  1  0.59415357  0.13509530  0.15542498  1  0  0.112203  0  0.947087  0  0  0.128913  0  1.016583  0  0  0.130568  0  1.01604  0  0  0.087862  0.12765  0  1.01709  0
H  H65  1  0.90584795  0.86490701  0.65542371  1  0  0.112198  0  0.947077  0  0  0.128903  0  1.016574  0  0  0.13056  0  1.016033  0  0  0.087861  0.127639  0  1.017083  0
H  H66  1  0.40584920  0.63509276  0.34457456  1  0  0.1122  0  0.947088  0  0  0.128914  0  1.016575  0  0  0.13057  0  1.016035  0  0  0.087864  0.12765  0  1.017084  0
H  H67  1  0.09415487  0.36490427  0.84457633  1  0  0.112251  0  0.947086  0  0  0.128961  0  1.016568  0  0  0.130617  0  1.016025  0  0  0.087885  0.127699  0  1.017074  0
C  C68  1  0.87761031  0.13868747  0.93215017  1  0  0.232956  0  3.726106  0  0  0.216424  0  4.000653  0  0  0.227977  0  4.017362  0  0  0.102694  0.208977  0  3.989076  0
C  C69  1  0.62238705  0.86131275  0.43215430  1  0  0.232984  0  3.726279  0  0  0.216451  0  4.000773  0  0  0.228002  0  4.017485  0  0  0.102712  0.209006  0  3.989199  0
C  C70  1  0.12238619  0.63868687  0.56784701  1  0  0.232995  0  3.726276  0  0  0.216506  0  4.000794  0  0  0.228052  0  4.017504  0  0  0.102712  0.20906  0  3.989221  0
C  C71  1  0.37760980  0.36131225  0.06784959  1  0  0.232965  0  3.726091  0  0  0.216436  0  4.000637  0  0  0.227985  0  4.017344  0  0  0.102689  0.20899  0  3.98906  0
C  C72  1  0.80159908  0.17692625  0.77811763  1  0  0.229354  0  3.731314  0  0  0.223149  0  3.993542  0  0  0.233884  0  4.012069  0  0  0.101994  0.216513  0  3.980129  0
C  C73  1  0.69840036  0.82307530  0.27812001  1  0  0.229459  0  3.731253  0  0  0.223165  0  3.993522  0  0  0.233898  0  4.01205  0  0  0.102012  0.216529  0  3.980111  0
C  C74  1  0.19840051  0.67692592  0.72187978  1  0  0.229415  0  3.731333  0  0  0.223226  0  3.993525  0  0  0.233962  0  4.012057  0  0  0.10205  0.216591  0  3.980113  0
C  C75  1  0.30159951  0.32307343  0.22188215  1  0  0.229442  0  3.731235  0  0  0.22323  0  3.993451  0  0  0.233962  0  4.011978  0  0  0.102039  0.216591  0  3.980038  0
C  C76  1  0.75912025  0.16086888  0.87789221  1  0  -0.139908  0  3.721439  0  0  -0.128238  0  3.973927  0  0  -0.138241  0  3.997827  0  0  -0.03377  -0.121973  0  3.958073  0
C  C77  1  0.74087712  0.83913410  0.37789618  1  0  -0.139972  0  3.72147  0  0  -0.128191  0  3.973844  0  0  -0.138198  0  3.997751  0  0  -0.033733  -0.121925  0  3.957992  0
C  C78  1  0.24087626  0.66086636  0.62210436  1  0  -0.139925  0  3.721498  0  0  -0.128288  0  3.973996  0  0  -0.138309  0  3.997921  0  0  -0.033759  -0.122024  0  3.95814  0
C  C79  1  0.25911971  0.33912999  0.12210757  1  0  -0.140053  0  3.721474  0  0  -0.128387  0  3.974001  0  0  -0.138389  0  3.997899  0  0  -0.033817  -0.122122  0  3.958148  0
C  C80  1  0.61598593  0.15872509  0.91751560  1  0  -0.101297  0  3.748258  0  0  -0.141501  0  3.982385  0  0  -0.13982  0  3.996878  0  0  -0.148855  -0.142741  0  3.973334  0
C  C81  1  0.88401144  0.84127737  0.41751731  1  0  -0.10106  0  3.748179  0  0  -0.141347  0  3.982332  0  0  -0.139661  0  3.996819  0  0  -0.148816  -0.14259  0  3.973288  0
C  C82  1  0.38400957  0.65872473  0.58248246  1  0  -0.10118  0  3.748354  0  0  -0.141451  0  3.982506  0  0  -0.139761  0  3.996997  0  0  -0.148828  -0.142689  0  3.973451  0
C  C83  1  0.11598642  0.34127605  0.08248496  1  0  -0.101142  0  3.748059  0  0  -0.141388  0  3.982242  0  0  -0.139707  0  3.996733  0  0  -0.148806  -0.142626  0  3.973194  0
C  C84  1  0.71878528  0.20524323  0.68885648  1  0  -0.35994  0  3.736657  0  0  -0.437027  0  3.975521  0  0  -0.440589  0  3.981987  0  0  -0.244194  -0.434771  0  3.970397  0
C  C85  1  0.78121317  0.79475696  0.18886017  1  0  -0.360016  0  3.736837  0  0  -0.437076  0  3.97567  0  0  -0.440639  0  3.982141  0  0  -0.244195  -0.43482  0  3.970545  0
C  C86  1  0.28121332  0.70524352  0.81113961  1  0  -0.359967  0  3.736827  0  0  -0.437046  0  3.975637  0  0  -0.440607  0  3.982104  0  0  -0.244192  -0.434794  0  3.970515  0
C  C87  1  0.21878566  0.29475641  0.31114406  1  0  -0.359904  0  3.736732  0  0  -0.436979  0  3.975589  0  0  -0.440541  0  3.982056  0  0  -0.244171  -0.434725  0  3.970466  0
C  C88  1  0.89564080  0.11570629  0.04022053  1  0  -0.354768  0  3.725957  0  0  -0.430872  0  3.964995  0  0  -0.43467  0  3.971999  0  0  -0.235243  -0.427899  0  3.959886  0
C  C89  1  0.60435770  0.88429527  0.54022391  1  0  -0.354719  0  3.726095  0  0  -0.430847  0  3.965123  0  0  -0.43465  0  3.972129  0  0  -0.235259  -0.42788  0  3.960016  0
C  C90  1  0.10435685  0.61570434  0.45977815  1  0  -0.354811  0  3.726073  0  0  -0.430953  0  3.965102  0  0  -0.434758  0  3.972112  0  0  -0.235294  -0.427988  0  3.96  0
C  C91  1  0.39564004  0.38429422  0.95977924  1  0  -0.354749  0  3.725911  0  0  -0.430855  0  3.964947  0  0  -0.434654  0  3.971957  0  0  -0.235248  -0.427883  0  3.959839  0
C  C92  1  0.57226384  0.05171978  0.95131950  1  0  -0.140798  0  3.710331  0  0  -0.130186  0  3.965412  0  0  -0.140422  0  3.989987  0  0  -0.036459  -0.123754  0  3.949538  0
C  C93  1  0.92773657  0.94828290  0.45132185  1  0  -0.140924  0  3.710341  0  0  -0.130287  0  3.965468  0  0  -0.140524  0  3.990037  0  0  -0.036464  -0.123856  0  3.949598  0
C  C94  1  0.42773564  0.55172001  0.54867641  1  0  -0.140838  0  3.710355  0  0  -0.130166  0  3.965437  0  0  -0.140401  0  3.990007  0  0  -0.036418  -0.123734  0  3.949564  0
C  C95  1  0.07226342  0.44828055  0.04868106  1  0  -0.140876  0  3.710322  0  0  -0.130252  0  3.965418  0  0  -0.140488  0  3.989992  0  0  -0.036495  -0.123823  0  3.949549  0
C  C96  1  0.52344970  0.02379238  0.04700431  1  0  0.223632  0  3.738821  0  0  0.216139  0  4.002644  0  0  0.226858  0  4.021322  0  0  0.096949  0.209225  0  3.98976  0
C  C97  1  0.97655083  0.97621157  0.54700669  1  0  0.223675  0  3.738702  0  0  0.21613  0  4.002586  0  0  0.22685  0  4.021262  0  0  0.09691  0.209217  0  3.989699  0
C  C98  1  0.47655093  0.52378980  0.45299306  1  0  0.223698  0  3.738705  0  0  0.216154  0  4.002552  0  0  0.226873  0  4.021227  0  0  0.096944  0.20924  0  3.989669  0
C  C99  1  0.02345005  0.47620793  0.95299551  1  0  0.22366  0  3.738792  0  0  0.216159  0  4.002607  0  0  0.226878  0  4.021286  0  0  0.096951  0.209246  0  3.989722  0
C  C100  1  0.57412043  0.95894356  0.89561837  1  0  0.244676  0  3.709514  0  0  0.227776  0  3.981776  0  0  0.239431  0  3.998797  0  0  0.104651  0.219984  0  3.970717  0
C  C101  1  0.92587897  0.04105954  0.39562051  1  0  0.244653  0  3.709684  0  0  0.227718  0  3.981953  0  0  0.239376  0  3.99897  0  0  0.104579  0.219924  0  3.970898  0
C  C102  1  0.42588044  0.45894255  0.60437849  1  0  0.244664  0  3.709666  0  0  0.22768  0  3.981977  0  0  0.239337  0  3.998994  0  0  0.104508  0.219883  0  3.970924  0
C  C103  1  0.07411963  0.54105759  0.10438220  1  0  0.244753  0  3.709468  0  0  0.22785  0  3.981747  0  0  0.239505  0  3.998767  0  0  0.104685  0.220057  0  3.970691  0
C  C104  1  0.61460131  0.93679753  0.79078220  1  0  -0.360635  0  3.725989  0  0  -0.43379  0  3.958274  0  0  -0.438096  0  3.965607  0  0  -0.242585  -0.430617  0  3.953067  0
C  C105  1  0.88539915  0.06320411  0.29078374  1  0  -0.360597  0  3.726023  0  0  -0.433729  0  3.958349  0  0  -0.438033  0  3.965689  0  0  -0.242573  -0.430555  0  3.953143  0
C  C106  1  0.38539954  0.43679718  0.70921378  1  0  -0.360631  0  3.726006  0  0  -0.433716  0  3.958333  0  0  -0.438024  0  3.965667  0  0  -0.242517  -0.430543  0  3.953126  0
C  C107  1  0.11460151  0.56320209  0.20921911  1  0  -0.360662  0  3.725913  0  0  -0.433828  0  3.958205  0  0  -0.438131  0  3.96554  0  0  -0.242592  -0.430653  0  3.953001  0
C  C108  1  0.50138983  0.09113574  0.13625754  1  0  -0.351124  0  3.726224  0  0  -0.427629  0  3.967922  0  0  -0.430807  0  3.974817  0  0  -0.243085  -0.425133  0  3.962959  0
C  C109  1  0.99861272  0.90886644  0.63625801  1  0  -0.351104  0  3.726157  0  0  -0.427544  0  3.967836  0  0  -0.430733  0  3.974734  0  0  -0.243018  -0.425046  0  3.962866  0
C  C110  1  0.49861290  0.59113338  0.36374174  1  0  -0.351166  0  3.726195  0  0  -0.427624  0  3.967901  0  0  -0.430811  0  3.974798  0  0  -0.243081  -0.425125  0  3.962933  0
C  C111  1  0.00139014  0.40886299  0.86374229  1  0  -0.351152  0  3.726197  0  0  -0.427656  0  3.967888  0  0  -0.430836  0  3.974783  0  0  -0.243085  -0.425159  0  3.96292  0
I  I112  1  0.04893163  0.35713537  0.56969439  1  0  -0.468827  0  1.08339  0  0  -0.418956  0  1.400788  0  0  -0.435784  0  1.378592  0  0  -0.221546  -0.406024  0  1.415809  0
I  I113  1  0.45107049  0.64287001  0.06968743  1  0  -0.468789  0  1.083365  0  0  -0.418936  0  1.400797  0  0  -0.435764  0  1.378599  0  0  -0.221544  -0.406002  0  1.415817  0
I  I114  1  0.95107119  0.85713056  0.93031158  1  0  -0.468792  0  1.083331  0  0  -0.418949  0  1.40078  0  0  -0.435781  0  1.378583  0  0  -0.221543  -0.406018  0  1.415801  0
I  I115  1  0.54893025  0.14286495  0.43030767  1  0  -0.468805  0  1.083393  0  0  -0.418929  0  1.400795  0  0  -0.435761  0  1.3786  0  0  -0.221533  -0.405997  0  1.415815  0
I  I116  1  0.29736075  0.12261807  0.74132293  1  0  -0.498502  0  1.054918  0  0  -0.449797  0  1.355808  0  0  -0.465052  0  1.330475  0  0  -0.232094  -0.439644  0  1.373527  0
I  I117  1  0.20264030  0.87738297  0.24132414  1  0  -0.498497  0  1.054921  0  0  -0.449776  0  1.355794  0  0  -0.465028  0  1.330458  0  0  -0.232092  -0.439618  0  1.373512  0
I  I118  1  0.70264084  0.62261669  0.75867566  1  0  -0.498504  0  1.054921  0  0  -0.44978  0  1.355802  0  0  -0.465036  0  1.330464  0  0  -0.23209  -0.439627  0  1.373521  0
I  I119  1  0.79736167  0.37738161  0.25867685  1  0  -0.49848  0  1.054952  0  0  -0.449768  0  1.355847  0  0  -0.465023  0  1.33051  0  0  -0.232078  -0.439612  0  1.373564  0
N  N120  1  0.93788494  0.16399734  0.77208226  1  0  -0.27566  0  3.238503  0  0  -0.215697  0  3.525608  0  0  -0.232856  0  3.542903  0  0  -0.2677  -0.20414  0  3.513336  0
N  N121  1  0.56211451  0.83600183  0.27208624  1  0  -0.275701  0  3.238475  0  0  -0.215692  0  3.525544  0  0  -0.23285  0  3.54283  0  0  -0.267771  -0.204136  0  3.513274  0
N  N122  1  0.06211566  0.66399853  0.72791508  1  0  -0.275729  0  3.238515  0  0  -0.215726  0  3.525553  0  0  -0.232895  0  3.542839  0  0  -0.267787  -0.204173  0  3.513287  0
N  N123  1  0.43788436  0.33600242  0.22791749  1  0  -0.2757  0  3.238509  0  0  -0.215692  0  3.525571  0  0  -0.232855  0  3.542863  0  0  -0.267722  -0.204127  0  3.513289  0
N  N124  1  0.98151414  0.14181837  0.86570257  1  0  -0.213981  0  3.52798  0  0  -0.166381  0  3.767571  0  0  -0.178794  0  3.785606  0  0  -0.292445  -0.158513  0  3.755344  0
N  N125  1  0.51848324  0.85818219  0.36570594  1  0  -0.213943  0  3.527985  0  0  -0.166363  0  3.76757  0  0  -0.178768  0  3.785594  0  0  -0.292434  -0.158494  0  3.755343  0
N  N126  1  0.01848441  0.64181659  0.63429538  1  0  -0.213896  0  3.528072  0  0  -0.166342  0  3.767647  0  0  -0.178722  0  3.785653  0  0  -0.292417  -0.158472  0  3.755421  0
N  N127  1  0.48151361  0.35818141  0.13429718  1  0  -0.213933  0  3.528004  0  0  -0.166342  0  3.767581  0  0  -0.178744  0  3.785604  0  0  -0.292409  -0.158476  0  3.75535  0
N  N128  1  0.49659273  0.92046169  0.04920602  1  0  -0.273731  0  3.235152  0  0  -0.214722  0  3.52342  0  0  -0.231809  0  3.539678  0  0  -0.270101  -0.203543  0  3.512684  0
N  N129  1  0.00340939  0.07954122  0.54920833  1  0  -0.273743  0  3.23519  0  0  -0.214749  0  3.523485  0  0  -0.231835  0  3.539743  0  0  -0.270165  -0.203574  0  3.512751  0
N  N130  1  0.50341132  0.42045986  0.45079224  1  0  -0.273768  0  3.235067  0  0  -0.214748  0  3.523319  0  0  -0.231833  0  3.539572  0  0  -0.270154  -0.203569  0  3.512583  0
N  N131  1  0.99659317  0.57953813  0.95079448  1  0  -0.27378  0  3.235178  0  0  -0.214747  0  3.523453  0  0  -0.231837  0  3.539715  0  0  -0.270111  -0.20357  0  3.51272  0
N  N132  1  0.52717250  0.88339141  0.95713592  1  0  -0.204489  0  3.500075  0  0  -0.154957  0  3.733396  0  0  -0.16737  0  3.751536  0  0  -0.287354  -0.147178  0  3.722537  0
N  N133  1  0.97283097  0.11661365  0.45713851  1  0  -0.204484  0  3.500151  0  0  -0.154878  0  3.733418  0  0  -0.167295  0  3.751558  0  0  -0.287211  -0.147099  0  3.722559  0
N  N134  1  0.47283239  0.38338612  0.54286198  1  0  -0.204535  0  3.500089  0  0  -0.15493  0  3.733365  0  0  -0.167346  0  3.751501  0  0  -0.287227  -0.147149  0  3.722504  0
N  N135  1  0.02717178  0.61660894  0.04286466  1  0  -0.20441  0  3.500115  0  0  -0.154994  0  3.73337  0  0  -0.167411  0  3.751509  0  0  -0.28734  -0.147216  0  3.722514  0
