# generated using pymatgen
data_Al2H6C16S2ClO10F
_symmetry_space_group_name_H-M   'P 1'
_cell_length_a   6.64219726
_cell_length_b   11.10074833
_cell_length_c   12.75637971
_cell_angle_alpha   80.59099408
_cell_angle_beta   74.82176459
_cell_angle_gamma   73.10078956
_symmetry_Int_Tables_number   1
_chemical_formula_structural   Al2H6C16S2ClO10F
_chemical_formula_sum   'Al2 H6 C16 S2 Cl1 O10 F1'
_cell_volume   864.66414043
_cell_formula_units_Z   1
loop_
 _symmetry_equiv_pos_site_id
 _symmetry_equiv_pos_as_xyz
  1  'x, y, z'
loop_
 _atom_site_type_symbol
 _atom_site_label
 _atom_site_symmetry_multiplicity
 _atom_site_fract_x
 _atom_site_fract_y
 _atom_site_fract_z
 _atom_site_occupancy
 _atom_site_pbe_bader_charge
 _atom_site_pbe_bader_spin_density
 _atom_site_pbe_cm5_charge
 _atom_site_pbe_ddec_charge
 _atom_site_pbe_ddec_spin_density
 _atom_site_pbe_ddec_sum_bond_order
 _atom_site_pbe_magmom
Al  Al0  1  0.49974005  0.50189103  0.49547695  1  2.503375  0  0.397631  1.640858  0  2.573489  0
Al  Al1  1  0.99953631  0.49651937  0.50030780  1  2.503021  0  0.396157  1.641554  0  2.571496  0
H  H2  1  0.19911919  0.65165660  0.43194327  1  0.627421  0  0.349045  0.430362  0  0.861874  0
H  H3  1  0.71155519  0.42218986  0.62954913  1  0.651396  0  0.337371  0.416454  0  0.88848  0
H  H4  1  0.11582960  0.11415342  0.53924119  1  0.118086  0  0.112662  0.121411  0  0.994146  0
H  H5  1  0.78194696  0.12618931  0.44862604  1  0.143709  0  0.120504  0.148523  0  0.983932  0
H  H6  1  0.23564189  0.87772635  0.54045466  1  0.108353  0  0.108971  0.115924  0  1.010789  0
H  H7  1  0.60843180  0.57424646  0.14414336  1  0.146702  0  0.120662  0.146177  0  0.978079  0
C  C8  1  0.86051720  0.49398846  0.30464174  1  1.588481  0  0.262066  0.64611  0  4.145433  0
C  C9  1  0.63432531  0.72773116  0.49690736  1  1.579842  0  0.268054  0.658595  0  4.091562  0
C  C10  1  0.14718090  0.49676391  0.69499977  1  1.6162  0  0.255006  0.657273  0  4.146841  0
C  C11  1  0.37248212  0.27481776  0.49451115  1  1.61612  0  0.273389  0.637594  0  4.091021  0
C  C12  1  0.57340999  0.86841137  0.49590124  1  0.009983  0  -0.017913  -0.151924  0  3.945338  0
C  C13  1  0.44098601  0.13416723  0.49453687  1  -0.049584  0  -0.002963  -0.000875  0  3.970561  0
C  C14  1  0.72369210  0.94163892  0.47030711  1  0.482208  0  0.111798  0.284344  0  4.022545  0
C  C15  1  0.28653213  0.06425719  0.52028477  1  0.027398  0  -0.083524  -0.110127  0  3.970967  0
C  C16  1  0.66117903  0.07233117  0.46923275  1  -0.025363  0  -0.087913  -0.223771  0  3.962836  0
C  C17  1  0.35319150  0.93354959  0.52090138  1  -0.051417  0  -0.07563  -0.064733  0  3.976707  0
C  C18  1  0.23259246  0.44885093  0.88654155  1  0.105748  0  0.005758  0.098398  0  4.087237  0
C  C19  1  0.78142184  0.53566008  0.11523017  1  0.010335  0  -0.085461  -0.131119  0  3.957824  0
C  C20  1  0.09686363  0.49544075  0.81422965  1  -0.144475  0  -0.02776  -0.192021  0  3.947601  0
C  C21  1  0.91976561  0.49185443  0.18545203  1  -0.159896  0  -0.01737  -0.117782  0  3.964107  0
C  C22  1  0.89626099  0.52205498  0.00590829  1  -0.141706  0  -0.021303  0.003766  0  4.075429  0
C  C23  1  0.11906090  0.46543855  0.99591167  1  -0.115033  0  -0.030651  -0.089467  0  4.093645  0
S  S24  1  0.82992563  0.55664246  0.88068425  1  0.301712  0  0.092517  0.142647  0  2.823897  0
S  S25  1  0.18879956  0.43265254  0.12026537  1  0.287949  0  0.094254  0.143329  0  2.763121  0
Cl  Cl26  1  0.50147175  0.37242408  0.85386622  1  -0.176452  0  0.020402  -0.033992  0  1.5904  0
O  O27  1  0.65945286  0.52399628  0.34914846  1  -1.263695  0  -0.23279  -0.579458  0  2.32642  0
O  O28  1  0.83414381  0.67015223  0.48085571  1  -1.250066  0  -0.23724  -0.604523  0  2.379599  0
O  O29  1  0.98654012  0.51757971  0.65082285  1  -1.249052  0  -0.2445  -0.594942  0  2.318314  0
O  O30  1  0.52092520  0.33206742  0.47276126  1  -1.2605  0  -0.228932  -0.570918  0  2.332197  0
O  O31  1  0.34533334  0.47687846  0.64554048  1  -1.252383  0  -0.23822  -0.60027  0  2.384638  0
O  O32  1  0.17034694  0.32675427  0.51805805  1  -1.258396  0  -0.230862  -0.582314  0  2.348897  0
O  O33  1  0.01451790  0.46769196  0.35370367  1  -1.251836  0  -0.234452  -0.574429  0  2.321267  0
O  O34  1  0.47958553  0.67566924  0.51280575  1  -1.258735  0  -0.237502  -0.592762  0  2.322823  0
O  O35  1  0.24132437  0.56079059  0.45010711  1  -1.429085  0  -0.448704  -0.989142  0  2.181533  0
O  O36  1  0.74852125  0.44267791  0.55105049  1  -1.458836  0  -0.450469  -0.989084  0  2.189167  0
F  F37  1  0.94027340  0.88678004  0.44442816  1  -0.63153  0  -0.092092  -0.139662  0  1.366792  0
