# generated using pymatgen
data_SiAgH14C12N3O2
_symmetry_space_group_name_H-M   'P 1'
_cell_length_a   9.69538321
_cell_length_b   13.25957700
_cell_length_c   13.17848462
_cell_angle_alpha   113.88043469
_cell_angle_beta   90.00472565
_cell_angle_gamma   111.42279143
_symmetry_Int_Tables_number   1
_chemical_formula_structural   SiAgH14C12N3O2
_chemical_formula_sum   'Si4 Ag4 H56 C48 N12 O8'
_cell_volume   1420.16874043
_cell_formula_units_Z   4
loop_
 _symmetry_equiv_pos_site_id
 _symmetry_equiv_pos_as_xyz
  1  'x, y, z'
loop_
 _atom_site_type_symbol
 _atom_site_label
 _atom_site_symmetry_multiplicity
 _atom_site_fract_x
 _atom_site_fract_y
 _atom_site_fract_z
 _atom_site_occupancy
 _atom_site_hle17_bader_spin_density
 _atom_site_hle17_ddec_charge
 _atom_site_hle17_ddec_spin_density
 _atom_site_hle17_ddec_sum_bond_order
 _atom_site_hle17_magmom
 _atom_site_hse06_10hf_bader_spin_density
 _atom_site_hse06_10hf_ddec_charge
 _atom_site_hse06_10hf_ddec_spin_density
 _atom_site_hse06_10hf_ddec_sum_bond_order
 _atom_site_hse06_10hf_magmom
 _atom_site_hse06_bader_spin_density
 _atom_site_hse06_ddec_charge
 _atom_site_hse06_ddec_spin_density
 _atom_site_hse06_ddec_sum_bond_order
 _atom_site_hse06_magmom
 _atom_site_pbe_bader_spin_density
 _atom_site_pbe_cm5_charge
 _atom_site_pbe_ddec_charge
 _atom_site_pbe_ddec_spin_density
 _atom_site_pbe_ddec_sum_bond_order
 _atom_site_pbe_magmom
Si  Si0  1  0.63570353  0.36303915  0.89112110  1  0  0.994355  0  3.424914  0  0  0.873034  0  3.809133  0  0  0.893279  0  3.802374  0  0  0.131952  0.858945  0  3.813512  0
Si  Si1  1  0.27282629  0.63684484  0.60854191  1  0  0.993741  0  3.42418  0  0  0.871875  0  3.810072  0  0  0.891807  0  3.804119  0  0  0.131478  0.857881  0  3.814178  0
Si  Si2  1  0.36428341  0.63695299  0.10886739  1  0  0.994338  0  3.424828  0  0  0.873019  0  3.809089  0  0  0.893217  0  3.802444  0  0  0.131915  0.858955  0  3.813416  0
Si  Si3  1  0.72717739  0.36316014  0.39146531  1  0  0.99356  0  3.424335  0  0  0.87171  0  3.81019  0  0  0.891601  0  3.804321  0  0  0.131444  0.857721  0  3.814289  0
Ag  Ag4  1  0.10304642  0.10094809  0.60173098  1  0  0.438673  0  1.491076  0  0  0.278171  0  1.964552  0  0  0.317029  0  1.910242  0  0  0.410916  0.250921  0  2.002383  0
Ag  Ag5  1  0.00180320  0.89909123  0.89804415  1  0  0.439217  0  1.489767  0  0  0.278541  0  1.963633  0  0  0.317431  0  1.909292  0  0  0.410773  0.251093  0  2.001518  0
Ag  Ag6  1  0.89695424  0.89905498  0.39826942  1  0  0.438617  0  1.491116  0  0  0.278135  0  1.964597  0  0  0.316992  0  1.910289  0  0  0.410944  0.250888  0  2.002427  0
Ag  Ag7  1  0.99819792  0.10090657  0.10196100  1  0  0.439279  0  1.489722  0  0  0.278617  0  1.963581  0  0  0.317508  0  1.909235  0  0  0.410788  0.251167  0  2.001463  0
H  H8  1  0.09890754  0.34944123  0.72717579  1  0  0.077681  0  0.978294  0  0  0.086927  0  1.043358  0  0  0.089517  0  1.040699  0  0  0.112222  0.085039  0  1.04543  0
H  H9  1  0.74957906  0.65105523  0.77325590  1  0  0.077447  0  0.978709  0  0  0.087064  0  1.043475  0  0  0.08969  0  1.040713  0  0  0.112098  0.085204  0  1.045546  0
H  H10  1  0.90108716  0.65055819  0.27282012  1  0  0.077646  0  0.97831  0  0  0.086891  0  1.043352  0  0  0.089479  0  1.040696  0  0  0.112238  0.085004  0  1.045419  0
H  H11  1  0.25042873  0.34894972  0.22674979  1  0  0.077402  0  0.978773  0  0  0.087053  0  1.043504  0  0  0.089682  0  1.040737  0  0  0.112078  0.085193  0  1.045575  0
H  H12  1  0.93727708  0.45194774  0.82976976  1  0  0.101845  0  0.957345  0  0  0.11159  0  1.019507  0  0  0.114788  0  1.0186  0  0  0.110049  0.109217  0  1.02042  0
H  H13  1  0.48564752  0.54829622  0.67031053  1  0  0.101987  0  0.956731  0  0  0.111603  0  1.018933  0  0  0.114799  0  1.018012  0  0  0.110123  0.109253  0  1.019819  0
H  H14  1  0.06270842  0.54804977  0.17021934  1  0  0.101863  0  0.957479  0  0  0.111569  0  1.01964  0  0  0.114778  0  1.018705  0  0  0.110067  0.109186  0  1.020597  0
H  H15  1  0.51435952  0.45170517  0.32969603  1  0  0.101968  0  0.956741  0  0  0.111562  0  1.018967  0  0  0.114757  0  1.018047  0  0  0.110134  0.109215  0  1.019852  0
H  H16  1  0.59305173  0.09871763  0.74760523  1  0  0.080454  0  0.982509  0  0  0.091265  0  1.047446  0  0  0.093113  0  1.048797  0  0  0.098459  0.089947  0  1.046788  0
H  H17  1  0.49376059  0.90135973  0.75241320  1  0  0.079979  0  0.981636  0  0  0.091103  0  1.046337  0  0  0.092955  0  1.04769  0  0  0.098439  0.089813  0  1.045638  0
H  H18  1  0.40693761  0.90127723  0.25238585  1  0  0.080419  0  0.982619  0  0  0.091264  0  1.047514  0  0  0.093107  0  1.048865  0  0  0.098454  0.089947  0  1.046858  0
H  H19  1  0.50623549  0.09863624  0.24758971  1  0  0.079997  0  0.981557  0  0  0.091132  0  1.046253  0  0  0.092986  0  1.047602  0  0  0.098439  0.08984  0  1.045556  0
H  H20  1  0.76815984  0.01203297  0.64790869  1  0  0.080365  0  0.982557  0  0  0.086424  0  1.054973  0  0  0.089527  0  1.05191  0  0  0.108715  0.08418  0  1.057265  0
H  H21  1  0.75536335  0.98830422  0.85250726  1  0  0.080383  0  0.984109  0  0  0.086417  0  1.056619  0  0  0.08965  0  1.053447  0  0  0.108534  0.084116  0  1.058922  0
H  H22  1  0.23183878  0.98796396  0.35209763  1  0  0.080383  0  0.982618  0  0  0.086409  0  1.055014  0  0  0.089512  0  1.051951  0  0  0.108741  0.084164  0  1.057308  0
H  H23  1  0.24463846  0.01169702  0.14749089  1  0  0.080366  0  0.984071  0  0  0.086414  0  1.056575  0  0  0.089648  0  1.053396  0  0  0.108552  0.084109  0  1.058884  0
H  H24  1  0.07857708  0.12779198  0.85390035  1  0  0.075206  0  0.939851  0  0  0.082303  0  1.009063  0  0  0.084622  0  1.006948  0  0  0.111432  0.08039  0  1.010943  0
H  H25  1  0.95067180  0.87209563  0.64572512  1  0  0.07591  0  0.939005  0  0  0.08242  0  1.008578  0  0  0.084819  0  1.006362  0  0  0.11155  0.080505  0  1.010483  0
H  H26  1  0.92141986  0.87220777  0.14611391  1  0  0.07522  0  0.939841  0  0  0.082326  0  1.009038  0  0  0.084641  0  1.006935  0  0  0.111439  0.08043  0  1.010904  0
H  H27  1  0.04933444  0.12790828  0.35427257  1  0  0.075957  0  0.939052  0  0  0.082494  0  1.008596  0  0  0.084893  0  1.006381  0  0  0.111573  0.080577  0  1.010501  0
H  H28  1  0.29730838  0.29215980  0.84282016  1  0  0.096458  0  0.959131  0  0  0.108505  0  1.020014  0  0  0.111317  0  1.019262  0  0  0.106743  0.106313  0  1.021032  0
H  H29  1  0.00504774  0.70759704  0.65671125  1  0  0.09598  0  0.959488  0  0  0.108063  0  1.020233  0  0  0.110862  0  1.01949  0  0  0.106469  0.105959  0  1.021067  0
H  H30  1  0.70268499  0.70783074  0.15717909  1  0  0.096419  0  0.959207  0  0  0.108478  0  1.02007  0  0  0.111291  0  1.019317  0  0  0.106726  0.106283  0  1.021089  0
H  H31  1  0.99495931  0.29241057  0.34329321  1  0  0.096027  0  0.959426  0  0  0.108067  0  1.020205  0  0  0.110865  0  1.019461  0  0  0.106464  0.105963  0  1.021039  0
H  H32  1  0.58571662  0.16230690  0.95930746  1  0  0.10402  0  0.955064  0  0  0.110929  0  1.020631  0  0  0.114821  0  1.018718  0  0  0.106197  0.108046  0  1.022229  0
H  H33  1  0.42339645  0.83748073  0.54053224  1  0  0.105353  0  0.954732  0  0  0.112001  0  1.020553  0  0  0.116012  0  1.018511  0  0  0.106537  0.109097  0  1.022153  0
H  H34  1  0.41428502  0.83768162  0.04067885  1  0  0.104017  0  0.954958  0  0  0.110934  0  1.020529  0  0  0.114826  0  1.018615  0  0  0.106184  0.108054  0  1.022118  0
H  H35  1  0.57661101  0.16252150  0.45947162  1  0  0.105394  0  0.954712  0  0  0.111954  0  1.02061  0  0  0.115959  0  1.018591  0  0  0.106541  0.109049  0  1.022216  0
H  H36  1  0.35213371  0.99688764  0.95635243  1  0  0.0799  0  0.941879  0  0  0.090099  0  1.004081  0  0  0.092847  0  1.001745  0  0  0.113858  0.088067  0  1.005759  0
H  H37  1  0.35515034  0.00286327  0.54331295  1  0  0.080441  0  0.941323  0  0  0.090342  0  1.00383  0  0  0.093093  0  1.001492  0  0  0.113968  0.088295  0  1.0056  0
H  H38  1  0.64787003  0.00310920  0.04364931  1  0  0.079967  0  0.94172  0  0  0.090155  0  1.003942  0  0  0.092903  0  1.001606  0  0  0.113883  0.088121  0  1.005622  0
H  H39  1  0.64485903  0.99714071  0.45668857  1  0  0.080503  0  0.941292  0  0  0.090386  0  1.003804  0  0  0.093138  0  1.001463  0  0  0.114003  0.088334  0  1.005579  0
H  H40  1  0.79762466  0.41647188  0.06595752  1  0  0.154741  0  0.999589  0  0  0.16302  0  1.072669  0  0  0.165499  0  1.07251  0  0  0.090635  0.161244  0  1.072689  0
H  H41  1  0.38204353  0.58364426  0.43401087  1  0  0.153847  0  1.000048  0  0  0.162024  0  1.073437  0  0  0.164513  0  1.073263  0  0  0.090215  0.160302  0  1.073375  0
H  H42  1  0.20236742  0.58352020  0.93402791  1  0  0.154822  0  0.9994  0  0  0.163081  0  1.07251  0  0  0.165557  0  1.072352  0  0  0.090689  0.161306  0  1.072525  0
H  H43  1  0.61796282  0.41636607  0.56599618  1  0  0.153863  0  1.000054  0  0  0.162023  0  1.073465  0  0  0.164513  0  1.073288  0  0  0.090208  0.160299  0  1.073405  0
H  H44  1  0.69219082  0.50813584  0.09367096  1  0  0.145793  0  0.98793  0  0  0.165137  0  1.045018  0  0  0.166979  0  1.045661  0  0  0.089746  0.163684  0  1.044888  0
H  H45  1  0.18499921  0.49191396  0.40586477  1  0  0.145725  0  0.988003  0  0  0.165191  0  1.044771  0  0  0.167044  0  1.045391  0  0  0.089739  0.163798  0  1.044509  0
H  H46  1  0.30780378  0.49185715  0.90631560  1  0  0.145849  0  0.987985  0  0  0.165193  0  1.045059  0  0  0.167036  0  1.045698  0  0  0.089739  0.163739  0  1.044929  0
H  H47  1  0.81500510  0.50809641  0.59414381  1  0  0.145743  0  0.988018  0  0  0.165214  0  1.044771  0  0  0.167069  0  1.045387  0  0  0.089744  0.163821  0  1.044506  0
H  H48  1  0.85158162  0.53709976  0.02611764  1  0  0.159987  0  0.969668  0  0  0.176707  0  1.028142  0  0  0.178767  0  1.029016  0  0  0.095896  0.175175  0  1.027627  0
H  H49  1  0.31510461  0.46288945  0.47367967  1  0  0.159466  0  0.970551  0  0  0.176134  0  1.02911  0  0  0.178208  0  1.02995  0  0  0.095871  0.174558  0  1.028682  0
H  H50  1  0.14841000  0.46289141  0.97386668  1  0  0.159994  0  0.969736  0  0  0.176718  0  1.028193  0  0  0.17878  0  1.029062  0  0  0.095912  0.175192  0  1.027679  0
H  H51  1  0.68490175  0.53712088  0.52632738  1  0  0.159491  0  0.970496  0  0  0.176129  0  1.029088  0  0  0.17822  0  1.029911  0  0  0.09585  0.17455  0  1.028666  0
H  H52  1  0.53698491  0.50975268  0.88499421  1  0  0.148941  0  0.98232  0  0  0.169364  0  1.037459  0  0  0.170822  0  1.039073  0  0  0.09196  0.168312  0  1.036433  0
H  H53  1  0.02735807  0.49025450  0.61440982  1  0  0.149448  0  0.981329  0  0  0.169743  0  1.036637  0  0  0.171211  0  1.038224  0  0  0.092141  0.168717  0  1.035549  0
H  H54  1  0.46301011  0.49024942  0.11500201  1  0  0.148957  0  0.982313  0  0  0.169375  0  1.037445  0  0  0.170832  0  1.039059  0  0  0.092005  0.168325  0  1.03642  0
H  H55  1  0.97264434  0.50974588  0.38559027  1  0  0.149412  0  0.981346  0  0  0.169721  0  1.036649  0  0  0.17119  0  1.038234  0  0  0.092133  0.168698  0  1.035553  0
H  H56  1  0.51232331  0.39577724  0.74634394  1  0  0.161661  0  0.987688  0  0  0.174661  0  1.051753  0  0  0.177074  0  1.051701  0  0  0.090958  0.172921  0  1.05174  0
H  H57  1  0.11637613  0.60418878  0.75309583  1  0  0.161634  0  0.988325  0  0  0.174405  0  1.0526  0  0  0.176822  0  1.052537  0  0  0.090684  0.172649  0  1.052601  0
H  H58  1  0.48766833  0.60422843  0.25365217  1  0  0.161665  0  0.987615  0  0  0.174662  0  1.0517  0  0  0.177071  0  1.05165  0  0  0.090959  0.172924  0  1.051682  0
H  H59  1  0.88362114  0.39581164  0.24690579  1  0  0.161632  0  0.988325  0  0  0.174422  0  1.052583  0  0  0.176839  0  1.05252  0  0  0.090693  0.172666  0  1.052587  0
H  H60  1  0.69438487  0.51086475  0.81739093  1  0  0.162175  0  0.983843  0  0  0.180571  0  1.040309  0  0  0.183294  0  1.03973  0  0  0.096674  0.178545  0  1.040807  0
H  H61  1  0.18333597  0.48895634  0.68221982  1  0  0.162404  0  0.984507  0  0  0.18095  0  1.040726  0  0  0.183697  0  1.040102  0  0  0.097069  0.178952  0  1.041209  0
H  H62  1  0.30560851  0.48913202  0.18260698  1  0  0.162132  0  0.983904  0  0  0.180526  0  1.040379  0  0  0.183255  0  1.039786  0  0  0.096648  0.178497  0  1.04089  0
H  H63  1  0.81666483  0.51104494  0.31778063  1  0  0.162445  0  0.98449  0  0  0.180994  0  1.040707  0  0  0.183742  0  1.040081  0  0  0.097088  0.178995  0  1.041189  0
C  C64  1  0.98582515  0.29801504  0.73445743  1  0  0.115448  0  3.693907  0  0  0.085845  0  3.937088  0  0  0.092293  0  3.957026  0  0  0.041326  0.08183  0  3.923121  0
C  C65  1  0.68777385  0.70239697  0.76587706  1  0  0.115497  0  3.695563  0  0  0.085256  0  3.938896  0  0  0.0917  0  3.958859  0  0  0.041523  0.081221  0  3.924862  0
C  C66  1  0.01416854  0.70198441  0.26554002  1  0  0.11544  0  3.69389  0  0  0.085886  0  3.937024  0  0  0.092331  0  3.956968  0  0  0.041308  0.08187  0  3.923052  0
C  C67  1  0.31223157  0.29760529  0.23412833  1  0  0.115591  0  3.695667  0  0  0.085339  0  3.938981  0  0  0.091783  0  3.958945  0  0  0.041591  0.081306  0  3.924945  0
C  C68  1  0.89411373  0.35386503  0.79134483  1  0  -0.083355  0  3.726284  0  0  -0.097039  0  3.964238  0  0  -0.103685  0  3.987198  0  0  -0.071391  -0.092787  0  3.948809  0
C  C69  1  0.54033972  0.64640712  0.70876892  1  0  -0.08373  0  3.727083  0  0  -0.096876  0  3.964976  0  0  -0.103473  0  3.987927  0  0  -0.071211  -0.092544  0  3.949452  0
C  C70  1  0.10587604  0.64613070  0.20864508  1  0  -0.083204  0  3.726451  0  0  -0.096874  0  3.964441  0  0  -0.103508  0  3.98739  0  0  -0.071301  -0.092638  0  3.949028  0
C  C71  1  0.45966377  0.35359336  0.29123653  1  0  -0.083738  0  3.72716  0  0  -0.096891  0  3.965064  0  0  -0.103484  0  3.988002  0  0  -0.071208  -0.092555  0  3.94954  0
C  C72  1  0.74974260  0.28420480  0.80038577  1  0  -0.21709  0  3.685889  0  0  -0.176126  0  3.930041  0  0  -0.177786  0  3.951023  0  0  -0.033821  -0.174357  0  3.915264  0
C  C73  1  0.46547650  0.71592268  0.69956891  1  0  -0.218099  0  3.686078  0  0  -0.176953  0  3.930109  0  0  -0.17863  0  3.951187  0  0  -0.034268  -0.175212  0  3.915263  0
C  C74  1  0.25024511  0.71579092  0.19960338  1  0  -0.217338  0  3.686102  0  0  -0.176404  0  3.930325  0  0  -0.178061  0  3.951317  0  0  -0.034013  -0.174639  0  3.915543  0
C  C75  1  0.53452760  0.28407694  0.30043848  1  0  -0.218017  0  3.686072  0  0  -0.176826  0  3.930024  0  0  -0.178484  0  3.951084  0  0  -0.034259  -0.175099  0  3.915194  0
C  C76  1  0.70439908  0.15904062  0.74601278  1  0  -0.093594  0  3.772931  0  0  -0.112425  0  4.017727  0  0  -0.118522  0  4.0408  0  0  -0.081527  -0.108636  0  4.002168  0
C  C77  1  0.54495728  0.84111034  0.75406751  1  0  -0.093222  0  3.770931  0  0  -0.112198  0  4.01573  0  0  -0.118272  0  4.038821  0  0  -0.081635  -0.108435  0  4.000153  0
C  C78  1  0.29559574  0.84095695  0.25398014  1  0  -0.09355  0  3.772994  0  0  -0.112433  0  4.017783  0  0  -0.118521  0  4.040847  0  0  -0.081519  -0.108643  0  4.002223  0
C  C79  1  0.45504059  0.15888920  0.24593529  1  0  -0.0933  0  3.770867  0  0  -0.112309  0  4.015665  0  0  -0.118385  0  4.038748  0  0  -0.081639  -0.108543  0  4.000091  0
C  C80  1  0.80212749  0.10926166  0.69045672  1  0  0.099886  0  3.711208  0  0  0.071589  0  3.957735  0  0  0.077324  0  3.977678  0  0  0.034849  0.067754  0  3.944432  0
C  C81  1  0.69236063  0.89105776  0.80985045  1  0  0.099648  0  3.714038  0  0  0.071236  0  3.960318  0  0  0.076851  0  3.980271  0  0  0.035128  0.067538  0  3.946859  0
C  C82  1  0.19786876  0.89073878  0.30954644  1  0  0.099891  0  3.711228  0  0  0.071704  0  3.95769  0  0  0.07744  0  3.977632  0  0  0.034892  0.067876  0  3.944377  0
C  C83  1  0.30764462  0.10894623  0.19015183  1  0  0.099715  0  3.713942  0  0  0.071299  0  3.960257  0  0  0.076915  0  3.980211  0  0  0.03511  0.067616  0  3.946768  0
C  C84  1  0.19288899  0.13733038  0.87457809  1  0  0.115015  0  3.716944  0  0  0.084025  0  3.97152  0  0  0.090652  0  3.990161  0  0  0.039456  0.079863  0  3.959077  0
C  C85  1  0.05542436  0.86245217  0.62499527  1  0  0.114085  0  3.717635  0  0  0.083568  0  3.972072  0  0  0.090146  0  3.990669  0  0  0.039463  0.079418  0  3.95965  0
C  C86  1  0.80710980  0.86266480  0.12543058  1  0  0.115078  0  3.716724  0  0  0.084094  0  3.971299  0  0  0.090719  0  3.989947  0  0  0.039447  0.079913  0  3.958858  0
C  C87  1  0.94458576  0.13755540  0.37500689  1  0  0.113943  0  3.717671  0  0  0.083421  0  3.972109  0  0  0.089997  0  3.990709  0  0  0.039362  0.079274  0  3.959687  0
C  C88  1  0.31670767  0.23016826  0.86998022  1  0  -0.091174  0  3.74927  0  0  -0.106006  0  3.989798  0  0  -0.111999  0  4.011377  0  0  -0.077108  -0.102528  0  3.976147  0
C  C89  1  0.08640082  0.76959121  0.62957339  1  0  -0.090709  0  3.749146  0  0  -0.105175  0  3.989752  0  0  -0.111118  0  4.011295  0  0  -0.076823  -0.101749  0  3.976049  0
C  C90  1  0.68328556  0.76982408  0.13001974  1  0  -0.091207  0  3.74942  0  0  -0.106053  0  3.989953  0  0  -0.112042  0  4.011526  0  0  -0.077138  -0.102577  0  3.976306  0
C  C91  1  0.91360878  0.23041735  0.37043448  1  0  -0.090807  0  3.749264  0  0  -0.105242  0  3.9899  0  0  -0.111182  0  4.011436  0  0  -0.076821  -0.101819  0  3.976197  0
C  C92  1  0.46281840  0.24228999  0.89943189  1  0  -0.222641  0  3.68553  0  0  -0.180575  0  3.925956  0  0  -0.182043  0  3.946623  0  0  -0.037412  -0.17979  0  3.912462  0
C  C93  1  0.22041173  0.75747083  0.60016915  1  0  -0.220827  0  3.685506  0  0  -0.179539  0  3.926891  0  0  -0.181012  0  3.947684  0  0  -0.037181  -0.178725  0  3.913396  0
C  C94  1  0.53717756  0.75769954  0.10056089  1  0  -0.222602  0  3.685438  0  0  -0.180538  0  3.925873  0  0  -0.182002  0  3.946547  0  0  -0.037327  -0.179753  0  3.912369  0
C  C95  1  0.77959937  0.24253867  0.39984137  1  0  -0.220783  0  3.685465  0  0  -0.179493  0  3.92679  0  0  -0.180959  0  3.947577  0  0  -0.037161  -0.178679  0  3.913293  0
C  C96  1  0.47558157  0.15772559  0.93351965  1  0  -0.092717  0  3.731696  0  0  -0.106457  0  3.973226  0  0  -0.112475  0  3.994524  0  0  -0.075929  -0.102459  0  3.959017  0
C  C97  1  0.31775387  0.84202349  0.56613386  1  0  -0.095298  0  3.734208  0  0  -0.10839  0  3.9755  0  0  -0.114482  0  3.996766  0  0  -0.076508  -0.104398  0  3.961436  0
C  C98  1  0.52441940  0.84226571  0.06647231  1  0  -0.092696  0  3.731521  0  0  -0.106431  0  3.973048  0  0  -0.112444  0  3.994342  0  0  -0.075934  -0.102434  0  3.958839  0
C  C99  1  0.68225689  0.15798328  0.43387330  1  0  -0.095314  0  3.734167  0  0  -0.108335  0  3.975459  0  0  -0.114432  0  3.996717  0  0  -0.076561  -0.104345  0  3.961398  0
C  C100  1  0.34647331  0.06543843  0.93280739  1  0  0.117084  0  3.702589  0  0  0.085503  0  3.951481  0  0  0.091869  0  3.971146  0  0  0.039582  0.081585  0  3.937854  0
C  C101  1  0.28088122  0.93429241  0.56680144  1  0  0.117013  0  3.703502  0  0  0.085474  0  3.952332  0  0  0.091825  0  3.972051  0  0  0.039581  0.081555  0  3.938749  0
C  C102  1  0.65353025  0.93455393  0.06719333  1  0  0.117049  0  3.702579  0  0  0.085452  0  3.951508  0  0  0.091818  0  3.971169  0  0  0.039528  0.081532  0  3.93788  0
C  C103  1  0.71912964  0.06571250  0.43320196  1  0  0.116833  0  3.703629  0  0  0.085354  0  3.952413  0  0  0.091709  0  3.972129  0  0  0.039522  0.08144  0  3.938827  0
C  C104  1  0.75498131  0.46569917  0.03345839  1  0  -0.697674  0  3.623849  0  0  -0.731411  0  3.846293  0  0  -0.742266  0  3.852347  0  0  -0.293992  -0.72371  0  3.842253  0
C  C105  1  0.28997106  0.53432175  0.46629701  1  0  -0.696339  0  3.623791  0  0  -0.729741  0  3.84639  0  0  -0.740535  0  3.852503  0  0  -0.293542  -0.722094  0  3.842251  0
C  C106  1  0.24501090  0.53429112  0.96652710  1  0  -0.697788  0  3.623788  0  0  -0.731496  0  3.84621  0  0  -0.74234  0  3.852274  0  0  -0.294027  -0.723816  0  3.842182  0
C  C107  1  0.71003427  0.46568859  0.53371004  1  0  -0.696301  0  3.623707  0  0  -0.729691  0  3.846327  0  0  -0.740497  0  3.852419  0  0  -0.293485  -0.722039  0  3.842189  0
C  C108  1  0.58758000  0.45153162  0.82814748  1  0  -0.700279  0  3.616823  0  0  -0.734357  0  3.833082  0  0  -0.744688  0  3.838258  0  0  -0.294497  -0.726866  0  3.829443  0
C  C109  1  0.13604812  0.54837657  0.67137548  1  0  -0.700952  0  3.617621  0  0  -0.734865  0  3.833776  0  0  -0.745131  0  3.83897  0  0  -0.294821  -0.727385  0  3.830066  0
C  C110  1  0.41240954  0.54846778  0.17184767  1  0  -0.700247  0  3.61689  0  0  -0.734324  0  3.833168  0  0  -0.744642  0  3.838364  0  0  -0.294503  -0.726838  0  3.829525  0
C  C111  1  0.86395224  0.45162383  0.32862538  1  0  -0.700918  0  3.617676  0  0  -0.734869  0  3.83379  0  0  -0.745131  0  3.83899  0  0  -0.294838  -0.727387  0  3.830076  0
N  N112  1  0.94220986  0.17770766  0.68556851  1  0  -0.296889  0  3.331734  0  0  -0.208837  0  3.607716  0  0  -0.229478  0  3.626423  0  0  -0.345316  -0.194552  0  3.594377  0
N  N113  1  0.76413570  0.82268171  0.81479899  1  0  -0.295843  0  3.335685  0  0  -0.207421  0  3.611584  0  0  -0.228087  0  3.630412  0  0  -0.345213  -0.193076  0  3.59816  0
N  N114  1  0.05778757  0.82229101  0.31443546  1  0  -0.296838  0  3.331793  0  0  -0.208836  0  3.607743  0  0  -0.229478  0  3.626453  0  0  -0.34534  -0.19455  0  3.594403  0
N  N115  1  0.23586809  0.17732141  0.18520446  1  0  -0.295898  0  3.335692  0  0  -0.207517  0  3.611651  0  0  -0.228185  0  3.630481  0  0  -0.345258  -0.193181  0  3.598235  0
N  N116  1  0.20688774  0.05483852  0.90369941  1  0  -0.302643  0  3.335888  0  0  -0.216045  0  3.611256  0  0  -0.236295  0  3.629554  0  0  -0.341365  -0.202131  0  3.598336  0
N  N117  1  0.15188723  0.94493943  0.59588068  1  0  -0.302674  0  3.334954  0  0  -0.21555  0  3.609598  0  0  -0.235799  0  3.627918  0  0  -0.341682  -0.201707  0  3.596708  0
N  N118  1  0.79311030  0.94515931  0.09630726  1  0  -0.30277  0  3.335752  0  0  -0.216151  0  3.611123  0  0  -0.2364  0  3.629419  0  0  -0.341347  -0.202236  0  3.598207  0
N  N119  1  0.84812156  0.05506545  0.40412119  1  0  -0.302399  0  3.334851  0  0  -0.21534  0  3.609523  0  0  -0.235588  0  3.627845  0  0  -0.341579  -0.201498  0  3.59663  0
N  N120  1  0.34930077  0.27387953  0.53871452  1  0  0.201443  0  3.25127  0  0  0.203043  0  3.567347  0  0  0.223869  0  3.569558  0  0  -0.06782  0.189698  0  3.564234  0
N  N121  1  0.07558933  0.72616493  0.96123440  1  0  0.200471  0  3.251674  0  0  0.203444  0  3.566226  0  0  0.224282  0  3.568396  0  0  -0.067486  0.190104  0  3.5631  0
N  N122  1  0.65070860  0.72612446  0.46128776  1  0  0.201513  0  3.251202  0  0  0.203074  0  3.567345  0  0  0.223902  0  3.569556  0  0  -0.067827  0.18972  0  3.564237  0
N  N123  1  0.92441071  0.27383277  0.03876540  1  0  0.200509  0  3.251515  0  0  0.203477  0  3.566087  0  0  0.224313  0  3.568254  0  0  -0.067481  0.190138  0  3.562963  0
O  O124  1  0.31149604  0.16067977  0.50254696  1  0  -0.468732  0  1.993188  0  0  -0.412229  0  2.269978  0  0  -0.439884  0  2.263429  0  0  -0.209499  -0.3928  0  2.273198  0
O  O125  1  0.15012854  0.83946269  0.99722918  1  0  -0.46814  0  1.994259  0  0  -0.412129  0  2.271775  0  0  -0.439868  0  2.26516  0  0  -0.209394  -0.392622  0  2.274974  0
O  O126  1  0.68851424  0.83932604  0.49745679  1  0  -0.46874  0  1.99313  0  0  -0.41223  0  2.269932  0  0  -0.439894  0  2.263399  0  0  -0.209479  -0.392789  0  2.273145  0
O  O127  1  0.84987156  0.16053513  0.00277749  1  0  -0.468166  0  1.994159  0  0  -0.412164  0  2.271678  0  0  -0.439902  0  2.265064  0  0  -0.209423  -0.392654  0  2.274874  0
O  O128  1  0.27472529  0.31785062  0.60890874  1  0  -0.444173  0  1.949856  0  0  -0.39718  0  2.208127  0  0  -0.420211  0  2.202647  0  0  -0.19165  -0.381203  0  2.211075  0
O  O129  1  0.95729434  0.68149217  0.89063232  1  0  -0.444042  0  1.949154  0  0  -0.398057  0  2.207561  0  0  -0.42099  0  2.201989  0  0  -0.191921  -0.381941  0  2.210393  0
O  O130  1  0.72527327  0.68215238  0.39108784  1  0  -0.444179  0  1.949853  0  0  -0.397181  0  2.208152  0  0  -0.420213  0  2.202668  0  0  -0.191659  -0.381205  0  2.211105  0
O  O131  1  0.04270689  0.31850997  0.10936619  1  0  -0.444081  0  1.949137  0  0  -0.398087  0  2.20753  0  0  -0.421031  0  2.201966  0  0  -0.191901  -0.38197  0  2.210365  0
