# generated using pymatgen
data_LaH14(C11O4)2
_symmetry_space_group_name_H-M   'P 1'
_cell_length_a   8.75115840
_cell_length_b   14.35553579
_cell_length_c   14.31114199
_cell_angle_alpha   112.44213891
_cell_angle_beta   107.80918618
_cell_angle_gamma   89.99184047
_symmetry_Int_Tables_number   1
_chemical_formula_structural   LaH14(C11O4)2
_chemical_formula_sum   'La2 H28 C44 O16'
_cell_volume   1568.13058406
_cell_formula_units_Z   2
loop_
 _symmetry_equiv_pos_site_id
 _symmetry_equiv_pos_as_xyz
  1  'x, y, z'
loop_
 _atom_site_type_symbol
 _atom_site_label
 _atom_site_symmetry_multiplicity
 _atom_site_fract_x
 _atom_site_fract_y
 _atom_site_fract_z
 _atom_site_occupancy
 _atom_site_pbe_bader_charge
 _atom_site_pbe_bader_spin_density
 _atom_site_pbe_cm5_charge
 _atom_site_pbe_ddec_charge
 _atom_site_pbe_ddec_spin_density
 _atom_site_pbe_ddec_sum_bond_order
 _atom_site_pbe_magmom
La  La0  1  0.94932812  0.99661901  0.44965657  1  2.267013  0  1.435495  1.931266  0  2.424978  0
La  La1  1  0.49973998  0.00334703  0.55028681  1  2.270284  0  1.435739  1.931428  0  2.42666  0
H  H2  1  0.78456160  0.20604292  0.32665637  1  0.099465  0  0.107601  0.113261  0  1.008475  0
H  H3  1  0.45822988  0.79414749  0.67381025  1  0.103787  0  0.107968  0.113709  0  1.008014  0
H  H4  1  0.78531520  0.37210741  0.30973157  1  0.066949  0  0.101045  0.098389  0  1.009688  0
H  H5  1  0.47603167  0.62807885  0.69061039  1  0.071888  0  0.100659  0.098276  0  1.009686  0
H  H6  1  0.42021597  0.44883847  0.46262564  1  0.053179  0  0.099038  0.099328  0  1.025261  0
H  H7  1  0.95812428  0.55115278  0.53735904  1  0.040149  0  0.099241  0.100047  0  1.024408  0
H  H8  1  0.42226494  0.28365901  0.47928497  1  0.107403  0  0.098851  0.095547  0  1.055585  0
H  H9  1  0.94341441  0.71639093  0.52084525  1  0.076568  0  0.099175  0.09627  0  1.055223  0
H  H10  1  0.67311395  0.47363673  0.23576362  1  0.061191  0  0.101488  0.100097  0  1.005597  0
H  H11  1  0.43768219  0.52622509  0.76431317  1  0.078291  0  0.101422  0.099938  0  1.005976  0
H  H12  1  0.71791354  0.64704224  0.24241991  1  0.076505  0  0.106641  0.108994  0  1.009995  0
H  H13  1  0.47564554  0.35278326  0.75763082  1  0.081506  0  0.106365  0.107891  0  1.010094  0
H  H14  1  0.59250295  0.77295332  0.52974540  1  0.087798  0  0.108854  0.094262  0  1.049231  0
H  H15  1  0.06324439  0.22704063  0.47009369  1  0.100644  0  0.10929  0.094936  0  1.048206  0
H  H16  1  0.55273453  0.60177543  0.52627254  1  0.046277  0  0.097537  0.095482  0  1.040296  0
H  H17  1  0.02709211  0.39824015  0.47359028  1  0.061798  0  0.097589  0.095547  0  1.039554  0
H  H18  1  0.18378164  0.27644489  0.77815648  1  0.094734  0  0.103116  0.106721  0  1.026345  0
H  H19  1  0.40521969  0.72354356  0.22177344  1  0.097492  0  0.104234  0.108053  0  1.027044  0
H  H20  1  0.26109373  0.44232838  0.93156339  1  0.057646  0  0.09773  0.094384  0  1.024889  0
H  H21  1  0.32948334  0.55762260  0.06841542  1  0.047566  0  0.097775  0.094604  0  1.024506  0
H  H22  1  0.77692552  0.42916721  0.94778142  1  0.073685  0  0.0965  0.093387  0  1.022943  0
H  H23  1  0.82885336  0.57058335  0.05182491  1  0.078039  0  0.096584  0.09337  0  1.024711  0
H  H24  1  0.70132494  0.26405153  0.79132389  1  0.104167  0  0.106843  0.113501  0  1.033346  0
H  H25  1  0.90955015  0.73565903  0.20838140  1  0.102118  0  0.106259  0.113086  0  1.034041  0
H  H26  1  0.23853994  0.10243611  0.34184728  1  0.225509  0  0.144093  0.069813  0  0.983932  0
H  H27  1  0.89634704  0.89821124  0.65819609  1  0.181976  0  0.144416  0.069719  0  0.985228  0
H  H28  1  0.03428579  0.95190886  0.14703778  1  0.633392  0  0.35789  0.385513  0  0.832629  0
H  H29  1  0.88707724  0.04829908  0.85333721  1  0.617851  0  0.356919  0.383844  0  0.833842  0
C  C30  1  0.61161967  0.13694303  0.41948946  1  1.5718  0  0.240735  0.642185  0  4.158032  0
C  C31  1  0.19246833  0.86311591  0.58061026  1  1.57964  0  0.23928  0.640864  0  4.158099  0
C  C32  1  0.60384679  0.23447928  0.40418856  1  -0.000465  0  -0.017732  -0.048617  0  3.965867  0
C  C33  1  0.20002691  0.76564554  0.59605416  1  -0.020124  0  -0.017323  -0.048387  0  3.96662  0
C  C34  1  0.70465176  0.25982220  0.35549049  1  -0.039296  0  -0.080387  -0.081207  0  3.973  0
C  C35  1  0.34951314  0.74034083  0.64485772  1  -0.023169  0  -0.081004  -0.081721  0  3.975794  0
C  C36  1  0.70375719  0.35259619  0.34585222  1  -0.046007  0  -0.09221  -0.14083  0  3.992394  0
C  C37  1  0.35833365  0.64754386  0.65444410  1  -0.053763  0  -0.091955  -0.14072  0  3.994252  0
C  C38  1  0.60376171  0.42342554  0.38565243  1  -0.024253  0  -0.004667  0.068671  0  3.999296  0
C  C39  1  0.21863722  0.57659703  0.61442782  1  -0.072463  0  -0.00519  0.068841  0  3.999466  0
C  C40  1  0.50126851  0.39649236  0.43288608  1  -0.041551  0  -0.090847  -0.129721  0  3.967164  0
C  C41  1  0.06890318  0.60351094  0.56715567  1  0.006234  0  -0.090306  -0.130808  0  3.966761  0
C  C42  1  0.50080686  0.30324117  0.44158886  1  -0.089364  0  -0.084064  -0.08292  0  3.97908  0
C  C43  1  0.05967600  0.69682382  0.55857754  1  -0.044734  0  -0.08447  -0.083129  0  3.978237  0
C  C44  1  0.61301153  0.52460789  0.38192365  1  -0.041581  0  -0.002021  0.074337  0  3.989644  0
C  C45  1  0.23157663  0.47535857  0.61806614  1  -0.049142  0  -0.000575  0.075535  0  3.988822  0
C  C46  1  0.65670160  0.53914651  0.30107684  1  -0.075331  0  -0.088394  -0.13391  0  3.979239  0
C  C47  1  0.35593273  0.46076142  0.69897020  1  -0.092371  0  -0.089081  -0.134704  0  3.980114  0
C  C48  1  0.68009790  0.63591193  0.30362659  1  0.004182  0  -0.078214  -0.0814  0  3.973482  0
C  C49  1  0.37671670  0.36398004  0.69640266  1  0.009969  0  -0.077385  -0.079817  0  3.972826  0
C  C50  1  0.65934610  0.72142802  0.38660984  1  -0.034348  0  -0.011568  -0.041429  0  3.971644  0
C  C51  1  0.27300212  0.27850041  0.61336055  1  -0.016329  0  -0.012415  -0.041781  0  3.971357  0
C  C52  1  0.60896267  0.70729728  0.46479102  1  -0.061259  0  -0.074072  -0.079105  0  3.962937  0
C  C53  1  0.14466049  0.29266048  0.53506989  1  -0.037106  0  -0.073858  -0.078711  0  3.961841  0
C  C54  1  0.58637903  0.61044907  0.46246679  1  0.032546  0  -0.086669  -0.123794  0  3.951129  0
C  C55  1  0.12447766  0.38953147  0.53740293  1  -0.0415  0  -0.087956  -0.125496  0  3.950727  0
C  C56  1  0.70366642  0.82504267  0.39439623  1  1.543876  0  0.212704  0.593617  0  4.200409  0
C  C57  1  0.30946036  0.17485090  0.60560502  1  1.552952  0  0.211462  0.592845  0  4.200085  0
C  C58  1  0.89040771  0.16103177  0.67963894  1  1.562144  0  0.231317  0.62702  0  4.183696  0
C  C59  1  0.21000311  0.83879985  0.32017355  1  1.571229  0  0.229981  0.626327  0  4.184871  0
C  C60  1  0.93783491  0.26004787  0.77480580  1  0.000228  0  -0.020135  -0.046284  0  3.978074  0
C  C61  1  0.16252901  0.73979304  0.22494367  1  0.001656  0  -0.02002  -0.046335  0  3.9779  0
C  C62  1  0.09549936  0.31099242  0.81582233  1  -0.066463  0  -0.081436  -0.078203  0  3.975168  0
C  C63  1  0.27930853  0.68892538  0.18399241  1  -0.054349  0  -0.083791  -0.080552  0  3.975174  0
C  C64  1  0.13804671  0.40429051  0.90298635  1  -0.061981  0  -0.091157  -0.129815  0  3.978209  0
C  C65  1  0.23485924  0.59561438  0.09684587  1  -0.043158  0  -0.090212  -0.128965  0  3.975775  0
C  C66  1  0.02571804  0.45020591  0.95325678  1  0.034373  0  -0.003556  0.072944  0  3.985415  0
C  C67  1  0.07227350  0.54966779  0.04643876  1  -0.042679  0  -0.004188  0.071163  0  3.986086  0
C  C68  1  0.86779393  0.39731907  0.91121375  1  -0.083245  0  -0.096042  -0.138104  0  3.990284  0
C  C69  1  0.95625826  0.60248168  0.08841254  1  -0.061852  0  -0.096572  -0.13801  0  3.994158  0
C  C70  1  0.82411813  0.30404766  0.82374120  1  -0.053456  0  -0.087431  -0.098019  0  3.984314  0
C  C71  1  0.99993619  0.69571032  0.17594425  1  -0.051131  0  -0.085554  -0.096564  0  3.985723  0
C  C72  1  0.12197499  0.05727462  0.28441447  1  1.465989  0  0.198599  0.511643  0  4.057107  0
C  C73  1  0.83730854  0.94320265  0.71578073  1  1.510046  0  0.199245  0.513538  0  4.056427  0
O  O74  1  0.73023978  0.08861013  0.40499373  1  -1.21008  0  -0.402561  -0.650777  0  2.298421  0
O  O75  1  0.32556839  0.91130581  0.59489786  1  -1.220384  0  -0.402868  -0.650726  0  2.299355  0
O  O76  1  0.50124652  0.10787939  0.44716770  1  -1.202893  0  -0.378654  -0.623175  0  2.261424  0
O  O77  1  0.05442461  0.89222615  0.55298168  1  -1.202401  0  -0.376754  -0.621366  0  2.259068  0
O  O78  1  0.70407441  0.90406887  0.47775050  1  -1.22615  0  -0.410406  -0.697212  0  2.35953  0
O  O79  1  0.22646568  0.09585346  0.52224745  1  -1.225701  0  -0.40974  -0.6966  0  2.358546  0
O  O80  1  0.75355792  0.83417906  0.32351449  1  -1.178427  0  -0.357288  -0.583821  0  2.156822  0
O  O81  1  0.43029232  0.16568803  0.67647558  1  -1.183911  0  -0.356341  -0.582965  0  2.156669  0
O  O82  1  0.98889993  0.12970569  0.62835185  1  -1.193542  0  -0.380784  -0.613847  0  2.255657  0
O  O83  1  0.35971300  0.87015255  0.37166321  1  -1.196459  0  -0.380305  -0.614581  0  2.255157  0
O  O84  1  0.75197860  0.11225456  0.65438011  1  -1.219556  0  -0.408788  -0.664075  0  2.353987  0
O  O85  1  0.09665750  0.88753838  0.34522773  1  -1.222865  0  -0.407395  -0.66154  0  2.354597  0
O  O86  1  0.99274145  0.06161882  0.30214252  1  -1.184396  0  -0.303255  -0.512471  0  2.277114  0
O  O87  1  0.69038268  0.93870425  0.69818162  1  -1.181905  0  -0.302771  -0.51209  0  2.275105  0
O  O88  1  0.13858956  0.99499745  0.19195319  1  -1.12654  0  -0.314316  -0.412646  0  2.235448  0
O  O89  1  0.94641337  0.00536649  0.80828138  1  -1.114056  0  -0.314995  -0.413246  0  2.236372  0
