# generated using pymatgen
data_AlH6C18N4O15
_symmetry_space_group_name_H-M   'P 1'
_cell_length_a   6.70273385
_cell_length_b   21.20161039
_cell_length_c   25.08045749
_cell_angle_alpha   97.11377846
_cell_angle_beta   93.77968203
_cell_angle_gamma   95.36338424
_symmetry_Int_Tables_number   1
_chemical_formula_structural   AlH6C18N4O15
_chemical_formula_sum   'Al4 H24 C72 N16 O60'
_cell_volume   3510.38267116
_cell_formula_units_Z   4
loop_
 _symmetry_equiv_pos_site_id
 _symmetry_equiv_pos_as_xyz
  1  'x, y, z'
loop_
 _atom_site_type_symbol
 _atom_site_label
 _atom_site_symmetry_multiplicity
 _atom_site_fract_x
 _atom_site_fract_y
 _atom_site_fract_z
 _atom_site_occupancy
 _atom_site_pbe_bader_charge
 _atom_site_pbe_bader_spin_density
 _atom_site_pbe_cm5_charge
 _atom_site_pbe_ddec_charge
 _atom_site_pbe_ddec_spin_density
 _atom_site_pbe_ddec_sum_bond_order
 _atom_site_pbe_magmom
Al  Al0  1  0.25908924  0.75161498  0.74957232  1  2.504391  0  0.403867  1.650756  0  2.563482  0
Al  Al1  1  0.75976633  0.25172607  0.24518182  1  2.498152  0  0.405484  1.634642  0  2.546603  0
Al  Al2  1  0.76194069  0.75399610  0.75423887  1  2.501819  0  0.40456  1.640875  0  2.559002  0
Al  Al3  1  0.25879862  0.24708236  0.24878972  1  2.50357  0  0.402153  1.636052  0  2.568519  0
H  H4  1  0.45182273  0.58944641  0.45888611  1  0.180364  0  0.129808  0.147447  0  0.997743  0
H  H5  1  0.57620224  0.41367876  0.54098710  1  0.191657  0  0.125925  0.145784  0  1.023627  0
H  H6  1  0.24427006  0.86626555  0.06561069  1  0.196179  0  0.131784  0.152157  0  0.9946  0
H  H7  1  0.48214960  0.13406225  0.92929962  1  0.17184  0  0.13105  0.148214  0  0.978654  0
H  H8  1  0.70212977  0.96250753  0.58176440  1  0.144181  0  0.110667  0.123932  0  1.042376  0
H  H9  1  0.31223960  0.08998255  0.45356901  1  0.16456  0  0.110819  0.119945  0  1.073973  0
H  H10  1  0.15210730  0.53317494  0.91054698  1  0.122669  0  0.111534  0.124509  0  1.027491  0
H  H11  1  0.72005173  0.40462631  0.02635116  1  0.077603  0  0.118215  0.132647  0  0.971983  0
H  H12  1  0.70553053  0.88707869  0.65024855  1  0.113542  0  0.106263  0.112628  0  1.039256  0
H  H13  1  0.31248275  0.15893237  0.37959950  1  0.132874  0  0.111183  0.118262  0  1.013185  0
H  H14  1  0.17143108  0.61078402  0.84347242  1  0.135242  0  0.113182  0.122473  0  1.00192  0
H  H15  1  0.75606932  0.33201151  0.09682511  1  0.083819  0  0.11401  0.112672  0  0.984812  0
H  H16  1  0.17545153  0.66264964  0.63272706  1  0.647256  0  0.330766  0.37302  0  0.916863  0
H  H17  1  0.85454902  0.34203946  0.36193117  1  0.644888  0  0.329282  0.368922  0  0.925051  0
H  H18  1  0.67085320  0.83819222  0.89390056  1  0.623285  0  0.349833  0.390495  0  0.848655  0
H  H19  1  0.70339104  0.14695697  0.14198253  1  0.669629  0  0.33101  0.379085  0  0.914799  0
H  H20  1  0.33443337  0.83173733  0.65445775  1  0.641374  0  0.313974  0.348384  0  0.978849  0
H  H21  1  0.65452677  0.15554059  0.32696015  1  0.64621  0  0.321242  0.363669  0  0.948442  0
H  H22  1  0.83102506  0.67843742  0.85066165  1  0.643078  0  0.318836  0.361238  0  0.951995  0
H  H23  1  0.05640112  0.40371396  0.15056062  1  0.646088  0  0.311633  0.338754  0  1.00007  0
H  H24  1  0.51269394  0.75078375  0.68085433  1  0.61611  0  0.355265  0.435411  0  0.845401  0
H  H25  1  0.53702831  0.30585554  0.30399712  1  0.632714  0  0.349103  0.426999  0  0.863149  0
H  H26  1  0.05217232  0.79170367  0.81864014  1  0.631905  0  0.351712  0.435521  0  0.852865  0
H  H27  1  0.01278373  0.26209764  0.18150054  1  0.634613  0  0.346742  0.427854  0  0.866797  0
C  C28  1  0.49464616  0.68167505  0.81983252  1  1.477074  0  0.266303  0.657114  0  4.064677  0
C  C29  1  0.50313055  0.30539974  0.17058375  1  1.560723  0  0.273648  0.680425  0  4.058513  0
C  C30  1  0.00905967  0.82122346  0.68007589  1  1.464268  0  0.264709  0.662557  0  4.053442  0
C  C31  1  0.99625461  0.18822978  0.32098408  1  1.491387  0  0.267337  0.657162  0  4.068815  0
C  C32  1  0.55164966  0.85585249  0.80614582  1  1.632116  0  0.265159  0.647933  0  4.183389  0
C  C33  1  0.45672506  0.14224161  0.20112866  1  1.575666  0  0.276637  0.664288  0  4.07274  0
C  C34  1  0.95506098  0.65059682  0.69618337  1  1.597819  0  0.277643  0.667747  0  4.076906  0
C  C35  1  0.07160889  0.35535977  0.29948820  1  1.573246  0  0.274935  0.667542  0  4.060398  0
C  C36  1  0.10518675  0.41700381  0.33622583  1  0.039793  0  -0.017426  -0.220044  0  3.923101  0
C  C37  1  0.92781894  0.58832034  0.66087584  1  0.060128  0  -0.015278  -0.213058  0  3.953393  0
C  C38  1  0.43202746  0.07885506  0.16776191  1  0.118205  0  -0.01662  -0.221353  0  3.938669  0
C  C39  1  0.55365873  0.91974979  0.84000711  1  0.108772  0  -0.010134  -0.180818  0  3.955592  0
C  C40  1  0.28444274  0.52206130  0.36444899  1  0.310296  0  0.086157  -0.028028  0  3.866701  0
C  C41  1  0.74650264  0.48343472  0.63502448  1  0.359204  0  0.089317  -0.020102  0  3.872326  0
C  C42  1  0.30256588  0.96691088  0.14836627  1  0.317225  0  0.080953  -0.04433  0  3.863536  0
C  C43  1  0.50256801  0.03207308  0.85153746  1  0.252366  0  0.089283  -0.016087  0  3.89603  0
C  C44  1  0.24051471  0.46846737  0.32655935  1  0.271169  0  0.107415  0.070051  0  3.911357  0
C  C45  1  0.80132922  0.53632107  0.67284657  1  0.230542  0  0.104045  0.057106  0  3.931509  0
C  C46  1  0.31322455  0.02542997  0.18070562  1  0.220077  0  0.108113  0.069423  0  3.911009  0
C  C47  1  0.51641477  0.97568052  0.81815344  1  0.286183  0  0.092429  0.028585  0  3.931283  0
C  C48  1  0.00944842  0.42114115  0.38478342  1  0.646343  0  0.121187  0.309277  0  3.989021  0
C  C49  1  0.01848622  0.58365003  0.61175972  1  0.616859  0  0.120828  0.306066  0  3.998021  0
C  C50  1  0.52374596  0.07344989  0.11868749  1  0.619943  0  0.124456  0.316417  0  4.017881  0
C  C51  1  0.56002487  0.91950756  0.89567702  1  0.552573  0  0.102635  0.268781  0  4.038806  0
C  C52  1  0.05450887  0.47505444  0.42538503  1  0.016805  0  0.00378  -0.052815  0  3.894337  0
C  C53  1  0.97211112  0.52860363  0.57253303  1  0.085961  0  0.006677  -0.04738  0  3.892505  0
C  C54  1  0.45232183  0.02198345  0.07760609  1  0.035757  0  -0.000596  -0.067641  0  3.917673  0
C  C55  1  0.50246276  0.97253198  0.92935860  1  0.026209  0  0.006932  -0.034752  0  3.912432  0
C  C56  1  0.20901263  0.52241934  0.41638347  1  0.093977  0  0.017687  0.082473  0  3.971108  0
C  C57  1  0.81559060  0.48193431  0.58226218  1  0.019289  0  0.015534  0.081374  0  3.961741  0
C  C58  1  0.36303505  0.96491116  0.09456646  1  0.054548  0  0.016273  0.086785  0  3.976124  0
C  C59  1  0.49877588  0.03164850  0.90780547  1  0.075359  0  0.00915  0.064907  0  3.998139  0
C  C60  1  0.96461468  0.48065694  0.47658445  1  0.064504  0  0.016259  0.024085  0  3.892411  0
C  C61  1  0.06336340  0.52151500  0.52177633  1  0.00397  0  0.016506  0.028666  0  3.891159  0
C  C62  1  0.47060219  0.02639376  0.02130800  1  0.049011  0  0.018756  0.033437  0  3.905324  0
C  C63  1  0.45233082  0.96949664  0.98417306  1  0.015021  0  0.014391  0.018878  0  3.912355  0
C  C64  1  0.25217224  0.55474463  0.51275100  1  0.241512  0  0.088395  0.051034  0  3.892301  0
C  C65  1  0.77738865  0.44701536  0.48623485  1  0.182055  0  0.088581  0.053638  0  3.896501  0
C  C66  1  0.36609993  0.91273633  0.00309161  1  0.242092  0  0.086596  0.048138  0  3.881414  0
C  C67  1  0.48468610  0.08554925  0.99822231  1  0.182495  0  0.089001  0.047137  0  3.875557  0
C  C68  1  0.31145948  0.56076113  0.46240618  1  0.052227  0  -0.057983  -0.137501  0  3.907048  0
C  C69  1  0.71674638  0.44191455  0.53673474  1  0.081654  0  -0.065004  -0.15049  0  3.901777  0
C  C70  1  0.31976483  0.91017874  0.05519729  1  0.01785  0  -0.059817  -0.146415  0  3.908841  0
C  C71  1  0.48990333  0.08821229  0.94418289  1  0.024929  0  -0.062509  -0.144738  0  3.907737  0
C  C72  1  0.83261575  0.93731703  0.58962695  1  0.030249  0  -0.079676  -0.123144  0  3.910557  0
C  C73  1  0.17423209  0.09739282  0.43121741  1  -0.020846  0  -0.083357  -0.128431  0  3.920712  0
C  C74  1  0.29429158  0.55871411  0.90363220  1  0.058935  0  -0.07652  -0.120315  0  3.908441  0
C  C75  1  0.60562407  0.39849711  0.05461449  1  0.054672  0  -0.077342  -0.130984  0  3.9275  0
C  C76  1  0.83638257  0.89563385  0.62775533  1  0.001449  0  -0.072473  -0.041371  0  3.969203  0
C  C77  1  0.17224975  0.13601923  0.39083916  1  -0.037089  0  -0.069717  -0.037256  0  3.966828  0
C  C78  1  0.30649659  0.60166255  0.86658426  1  -0.005803  0  -0.063355  -0.027629  0  3.946758  0
C  C79  1  0.62376354  0.35786738  0.09356370  1  0.030069  0  -0.059222  -0.023304  0  3.975349  0
C  C80  1  0.00822658  0.86474039  0.63914165  1  0.060159  0  -0.035002  -0.19901  0  3.991604  0
C  C81  1  0.99151862  0.14635269  0.36300211  1  0.044024  0  -0.032034  -0.198957  0  4.005234  0
C  C82  1  0.49088073  0.63504778  0.85816073  1  0.026277  0  -0.03145  -0.200654  0  3.995127  0
C  C83  1  0.47474612  0.34801139  0.12891844  1  -0.010107  0  -0.021015  -0.164595  0  3.939174  0
C  C84  1  0.18104428  0.87629039  0.61033340  1  0.578553  0  0.10642  0.277942  0  4.046975  0
C  C85  1  0.80624924  0.11655061  0.37682109  1  0.611796  0  0.11015  0.282272  0  4.047357  0
C  C86  1  0.67030012  0.62357445  0.88745302  1  0.613226  0  0.110891  0.283182  0  4.052531  0
C  C87  1  0.29942622  0.38059998  0.12548819  1  0.63468  0  0.118409  0.294643  0  4.022656  0
C  C88  1  0.17059699  0.91648678  0.57019960  1  0.268  0  0.078228  -0.081033  0  3.856094  0
C  C89  1  0.81319579  0.07709146  0.41753481  1  0.206499  0  0.078382  -0.083598  0  3.876735  0
C  C90  1  0.65421051  0.57996202  0.92515262  1  0.232683  0  0.076931  -0.085867  0  3.844449  0
C  C91  1  0.29030216  0.42662333  0.08865580  1  0.278375  0  0.07524  -0.110785  0  3.828962  0
C  C92  1  0.00065440  0.94844799  0.55966602  1  0.125019  0  0.029329  0.137976  0  4.085035  0
C  C93  1  0.99327272  0.06668139  0.44522688  1  0.206276  0  0.025859  0.130848  0  4.09125  0
C  C94  1  0.46890657  0.54765082  0.93424360  1  0.153781  0  0.027343  0.132778  0  4.088438  0
C  C95  1  0.44022093  0.43443894  0.05174478  1  0.145985  0  0.029233  0.141507  0  4.083307  0
C  C96  1  0.99681814  0.99014059  0.52005318  1  -0.325702  0  -0.014072  -0.055972  0  4.028877  0
C  C97  1  0.99398842  0.02601349  0.48568319  1  0.054493  0  -0.011069  -0.043265  0  4.019217  0
C  C98  1  0.45496795  0.50717174  0.97463727  1  -0.060982  0  -0.010986  -0.042335  0  4.018107  0
C  C99  1  0.43357140  0.47551061  0.01170275  1  -0.159329  0  -0.016123  -0.057421  0  4.054645  0
N  N100  1  0.71952325  0.54223833  0.72675314  1  0.475878  0  0.063859  0.511713  0  4.248234  0
N  N101  1  0.33193728  0.46385904  0.27376164  1  0.461386  0  0.062919  0.510178  0  4.259671  0
N  N102  1  0.48584983  0.97205234  0.75920275  1  0.382524  0  0.069084  0.522151  0  4.193387  0
N  N103  1  0.21318637  0.03353477  0.23207911  1  0.458629  0  0.062269  0.506185  0  4.282714  0
N  N104  1  0.41396310  0.57748707  0.35262365  1  0.381177  0  0.059225  0.519608  0  4.209645  0
N  N105  1  0.61792824  0.42969941  0.65063529  1  0.419543  0  0.062033  0.520057  0  4.217122  0
N  N106  1  0.23308630  0.90814020  0.16985951  1  0.354652  0  0.055767  0.511612  0  4.2334  0
N  N107  1  0.50053751  0.09396452  0.83009404  1  0.419096  0  0.057456  0.506866  0  4.276948  0
N  N108  1  0.41033480  0.57447166  0.55704131  1  0.40123  0  0.052279  0.511216  0  4.242348  0
N  N109  1  0.61838180  0.42681469  0.44230348  1  0.388934  0  0.052804  0.512899  0  4.248947  0
N  N110  1  0.27536654  0.85640344  0.96490184  1  0.442691  0  0.057947  0.516716  0  4.225198  0
N  N111  1  0.44663091  0.14719752  0.02908654  1  0.428793  0  0.057643  0.5145  0  4.231966  0
N  N112  1  0.34814531  0.92765997  0.54034068  1  0.369326  0  0.059627  0.534527  0  4.217123  0
N  N113  1  0.62472687  0.04946977  0.43529405  1  0.373616  0  0.060806  0.532001  0  4.220981  0
N  N114  1  0.83724097  0.56719158  0.95552687  1  0.390689  0  0.060606  0.53566  0  4.208602  0
N  N115  1  0.12942202  0.46732156  0.08988292  1  0.338548  0  0.052581  0.520169  0  4.172231  0
O  O116  1  0.71812255  0.83365161  0.79807337  1  -1.246567  0  -0.231308  -0.586294  0  2.33119  0
O  O117  1  0.30931756  0.16089686  0.22512148  1  -1.230532  0  -0.210969  -0.540693  0  2.340904  0
O  O118  1  0.13170442  0.68108418  0.69941948  1  -1.254834  0  -0.226792  -0.594249  0  2.357567  0
O  O119  1  0.89193410  0.32616740  0.29500960  1  -1.254115  0  -0.233414  -0.603407  0  2.328199  0
O  O120  1  0.32979610  0.69457974  0.79770666  1  -1.26656  0  -0.228978  -0.576566  0  2.344074  0
O  O121  1  0.68318725  0.30171505  0.19016595  1  -1.252426  0  -0.243946  -0.611117  0  2.286259  0
O  O122  1  0.84338513  0.79969625  0.69672956  1  -1.267055  0  -0.238396  -0.599503  0  2.335903  0
O  O123  1  0.16346811  0.21599227  0.31042738  1  -1.264767  0  -0.234866  -0.591191  0  2.343794  0
O  O124  1  0.37646415  0.82737892  0.79483960  1  -1.245784  0  -0.225974  -0.583023  0  2.378966  0
O  O125  1  0.62732259  0.17550871  0.20031044  1  -1.245947  0  -0.223144  -0.582984  0  2.371035  0
O  O126  1  0.80482442  0.67108467  0.71761963  1  -1.238367  0  -0.213765  -0.548723  0  2.349944  0
O  O127  1  0.22128868  0.33424333  0.27828836  1  -1.237373  0  -0.214589  -0.55913  0  2.394217  0
O  O128  1  0.18287106  0.80549700  0.69709366  1  -1.26352  0  -0.245319  -0.627898  0  2.408466  0
O  O129  1  0.82590436  0.19653119  0.29642714  1  -1.252463  0  -0.239281  -0.609627  0  2.388992  0
O  O130  1  0.66857315  0.70965066  0.81108572  1  -1.265467  0  -0.245138  -0.626589  0  2.386328  0
O  O131  1  0.34682190  0.27434705  0.18427525  1  -1.268068  0  -0.239515  -0.616808  0  2.403584  0
O  O132  1  0.50424663  0.74502276  0.71843729  1  -1.418551  0  -0.446982  -0.983183  0  2.154726  0
O  O133  1  0.52482084  0.26532149  0.28061706  1  -1.434505  0  -0.450425  -0.97943  0  2.133841  0
O  O134  1  0.02423533  0.76237304  0.78542301  1  -1.432408  0  -0.448142  -0.98544  0  2.150344  0
O  O135  1  0.99849597  0.23955237  0.21290722  1  -1.437889  0  -0.4485  -0.977253  0  2.12217  0
O  O136  1  0.13629242  0.63318429  0.59879789  1  -1.140564  0  -0.319192  -0.406261  0  2.332607  0
O  O137  1  0.88790284  0.37160261  0.39611662  1  -1.138004  0  -0.317132  -0.402966  0  2.345032  0
O  O138  1  0.61336222  0.86888248  0.91937968  1  -1.104798  0  -0.321029  -0.414394  0  2.311031  0
O  O139  1  0.67114526  0.11554673  0.10819536  1  -1.144005  0  -0.308798  -0.395226  0  2.309402  0
O  O140  1  0.84516605  0.55085158  0.76590941  1  -0.444385  0  -0.102634  -0.290762  0  1.89998  0
O  O141  1  0.53572389  0.54058583  0.72783445  1  -0.425639  0  -0.101029  -0.280009  0  1.889509  0
O  O142  1  0.49009126  0.43905185  0.27084134  1  -0.416341  0  -0.099524  -0.278704  0  1.929533  0
O  O143  1  0.23309892  0.48300004  0.23690934  1  -0.404689  0  -0.100686  -0.283909  0  1.916354  0
O  O144  1  0.39471418  0.01329280  0.74053003  1  -0.406361  0  -0.098869  -0.282761  0  1.885724  0
O  O145  1  0.55000519  0.92597552  0.73237735  1  -0.455936  0  -0.097837  -0.297772  0  1.967621  0
O  O146  1  0.03660397  0.04514807  0.22760773  1  -0.404073  0  -0.105305  -0.288035  0  1.895164  0
O  O147  1  0.31808508  0.03157120  0.27380005  1  -0.394971  0  -0.086781  -0.262498  0  1.910561  0
O  O148  1  0.40679774  0.62897087  0.38168864  1  -0.433109  0  -0.118834  -0.306465  0  1.878313  0
O  O149  1  0.51927184  0.56991878  0.31405306  1  -0.415524  0  -0.118031  -0.306217  0  1.90793  0
O  O150  1  0.47963075  0.40278479  0.61817099  1  -0.442477  0  -0.118209  -0.304015  0  1.897496  0
O  O151  1  0.66011284  0.41508586  0.69597629  1  -0.425057  0  -0.112131  -0.298564  0  1.873933  0
O  O152  1  0.11695415  0.91256736  0.20619895  1  -0.398693  0  -0.113457  -0.300372  0  1.901032  0
O  O153  1  0.29929333  0.85810122  0.15082341  1  -0.42862  0  -0.118532  -0.306291  0  1.877647  0
O  O154  1  0.65386971  0.11298910  0.80979520  1  -0.392853  0  -0.106934  -0.285721  0  1.855608  0
O  O155  1  0.34946793  0.12237468  0.83660387  1  -0.412478  0  -0.109782  -0.29476  0  1.870188  0
O  O156  1  0.54202636  0.61784181  0.55208377  1  -0.447996  0  -0.128893  -0.319641  0  1.884806  0
O  O157  1  0.40674563  0.54263397  0.59529414  1  -0.46352  0  -0.119312  -0.336865  0  2.02927  0
O  O158  1  0.61426493  0.46079591  0.40541828  1  -0.466841  0  -0.126137  -0.345659  0  2.01965  0
O  O159  1  0.49349141  0.38123445  0.44618169  1  -0.439502  0  -0.125765  -0.313966  0  1.883415  0
O  O160  1  0.18203481  0.86806376  0.92319420  1  -0.485518  0  -0.144444  -0.357172  0  1.904683  0
O  O161  1  0.28776718  0.80296805  0.97827241  1  -0.422284  0  -0.100838  -0.280875  0  1.875274  0
O  O162  1  0.30403101  0.14561144  0.05815478  1  -0.447672  0  -0.127763  -0.32525  0  1.899778  0
O  O163  1  0.55089208  0.19581273  0.02126421  1  -0.429258  0  -0.117705  -0.308317  0  1.883909  0
O  O164  1  0.35405617  0.85105581  0.62056231  1  -1.143432  0  -0.339653  -0.427277  0  2.34076  0
O  O165  1  0.62600143  0.12614487  0.35431777  1  -1.139713  0  -0.329738  -0.415457  0  2.334028  0
O  O166  1  0.85243697  0.65151304  0.88008698  1  -1.130057  0  -0.330879  -0.418667  0  2.336065  0
O  O167  1  0.15158686  0.36974217  0.15721901  1  -1.138041  0  -0.321838  -0.418262  0  2.387975  0
O  O168  1  0.42763627  0.98348480  0.54514273  1  -0.43004  0  -0.106873  -0.311955  0  1.968473  0
O  O169  1  0.40699669  0.88116035  0.51341174  1  -0.407892  0  -0.117655  -0.306509  0  1.855681  0
O  O170  1  0.52099002  0.00694770  0.40489914  1  -0.399695  0  -0.10302  -0.290121  0  1.867601  0
O  O171  1  0.58428979  0.07256617  0.48081350  1  -0.437703  0  -0.108452  -0.305952  0  1.953313  0
O  O172  1  0.87325023  0.51039235  0.95236384  1  -0.454019  0  -0.12479  -0.336397  0  1.915556  0
O  O173  1  0.94302966  0.61307301  0.98135780  1  -0.417372  0  -0.110635  -0.295428  0  1.868741  0
O  O174  1  0.99248073  0.45785558  0.12196899  1  -0.521061  0  -0.1462  -0.354335  0  1.986429  0
O  O175  1  0.12688381  0.51003426  0.06098951  1  -0.40148  0  -0.087388  -0.272184  0  1.977165  0
