# generated using pymatgen
data_CdH8C9(NO)5
_symmetry_space_group_name_H-M   'P 1'
_cell_length_a   7.04707306
_cell_length_b   8.28967653
_cell_length_c   10.64241552
_cell_angle_alpha   82.81902460
_cell_angle_beta   84.54548265
_cell_angle_gamma   74.57149192
_symmetry_Int_Tables_number   1
_chemical_formula_structural   CdH8C9(NO)5
_chemical_formula_sum   'Cd2 H16 C18 N10 O10'
_cell_volume   593.36033335
_cell_formula_units_Z   2
loop_
 _symmetry_equiv_pos_site_id
 _symmetry_equiv_pos_as_xyz
  1  'x, y, z'
loop_
 _atom_site_type_symbol
 _atom_site_label
 _atom_site_symmetry_multiplicity
 _atom_site_fract_x
 _atom_site_fract_y
 _atom_site_fract_z
 _atom_site_occupancy
 _atom_site_hle17_bader_spin_density
 _atom_site_hle17_ddec_charge
 _atom_site_hle17_ddec_spin_density
 _atom_site_hle17_ddec_sum_bond_order
 _atom_site_hle17_magmom
 _atom_site_hse06_10hf_bader_spin_density
 _atom_site_hse06_10hf_ddec_charge
 _atom_site_hse06_10hf_ddec_spin_density
 _atom_site_hse06_10hf_ddec_sum_bond_order
 _atom_site_hse06_10hf_magmom
 _atom_site_hse06_bader_spin_density
 _atom_site_hse06_ddec_charge
 _atom_site_hse06_ddec_spin_density
 _atom_site_hse06_ddec_sum_bond_order
 _atom_site_hse06_magmom
 _atom_site_pbe_bader_spin_density
 _atom_site_pbe_cm5_charge
 _atom_site_pbe_ddec_charge
 _atom_site_pbe_ddec_spin_density
 _atom_site_pbe_ddec_sum_bond_order
 _atom_site_pbe_magmom
Cd  Cd0  1  0.49999696  0.49999887  0.00000127  1  0  1.202399  0  1.629696  0  0  1.022864  0  2.072439  0  0  1.075112  0  2.019857  0  0  0.78879  0.985557  0  2.108783  0
Cd  Cd1  1  0.50000444  0.49999686  0.50000051  1  0  1.15103  0  1.710478  0  0  0.959512  0  2.16515  0  0  1.017074  0  2.110731  0  0  0.781617  0.918545  0  2.202324  0
H  H2  1  0.53390075  0.18809805  0.78374771  1  0  0.101343  0  0.931435  0  0  0.111466  0  0.994014  0  0  0.112978  0  0.992084  0  0  0.137376  0.110208  0  0.995576  0
H  H3  1  0.46610639  0.81189189  0.21625288  1  0  0.101325  0  0.931482  0  0  0.111449  0  0.99407  0  0  0.112961  0  0.992139  0  0  0.137409  0.11019  0  0.995632  0
H  H4  1  0.84346210  0.03144851  0.42238946  1  0  0.102445  0  0.940072  0  0  0.105565  0  1.00647  0  0  0.109917  0  1.002709  0  0  0.119398  0.102388  0  1.009269  0
H  H5  1  0.15652703  0.96855408  0.57761286  1  0  0.102375  0  0.940117  0  0  0.105499  0  1.006524  0  0  0.109851  0  1.002758  0  0  0.119375  0.10232  0  1.009322  0
H  H6  1  0.14741157  0.29740852  0.10734775  1  0  0.13676  0  0.951283  0  0  0.143916  0  1.01447  0  0  0.147265  0  1.01025  0  0  0.147257  0.141331  0  1.017572  0
H  H7  1  0.85258943  0.70258772  0.89265165  1  0  0.136743  0  0.951204  0  0  0.143882  0  1.014411  0  0  0.147237  0  1.010185  0  0  0.147262  0.141298  0  1.017513  0
H  H8  1  0.58449709  0.87745368  0.51562345  1  0  0.084513  0  0.936107  0  0  0.096664  0  0.992081  0  0  0.099365  0  0.989868  0  0  0.123263  0.094654  0  0.993929  0
H  H9  1  0.41550001  0.12254139  0.48438290  1  0  0.08456  0  0.936083  0  0  0.096708  0  0.992052  0  0  0.099409  0  0.989837  0  0  0.123288  0.094698  0  0.993899  0
H  H10  1  0.02606547  0.03408249  0.13610375  1  0  0.103882  0  0.927798  0  0  0.112761  0  0.999515  0  0  0.1144  0  0.997368  0  0  0.122142  0.111547  0  1.000963  0
H  H11  1  0.97392944  0.96591498  0.86389216  1  0  0.103891  0  0.927846  0  0  0.11283  0  0.999536  0  0  0.11444  0  0.997458  0  0  0.122181  0.11162  0  1.000968  0
H  H12  1  0.16972213  0.86051509  0.05614997  1  0  0.099442  0  0.953324  0  0  0.110936  0  1.02148  0  0  0.111796  0  1.021573  0  0  0.116849  0.110268  0  1.021387  0
H  H13  1  0.83027097  0.13948364  0.94384592  1  0  0.099406  0  0.953324  0  0  0.110928  0  1.021551  0  0  0.111787  0  1.021633  0  0  0.116848  0.110259  0  1.021459  0
H  H14  1  0.32633024  0.69901855  0.76300607  1  0  0.425158  0  0.871259  0  0  0.396715  0  0.930721  0  0  0.406417  0  0.916545  0  0  0.28955  0.389781  0  0.940836  0
H  H15  1  0.67367541  0.30097642  0.23699410  1  0  0.425182  0  0.871231  0  0  0.396749  0  0.930678  0  0  0.406451  0  0.916502  0  0  0.289583  0.389815  0  0.940794  0
H  H16  1  0.35289149  0.83751781  0.84632170  1  0  0.385558  0  0.93172  0  0  0.345893  0  1.010937  0  0  0.356677  0  0.995422  0  0  0.280745  0.338365  0  1.021737  0
H  H17  1  0.64710951  0.16247843  0.15367770  1  0  0.38556  0  0.931704  0  0  0.345904  0  1.010925  0  0  0.356689  0  0.995409  0  0  0.280747  0.338378  0  1.021723  0
C  C18  1  0.88974462  0.57705535  0.36864078  1  0  0.041998  0  3.677775  0  0  0.037506  0  3.921949  0  0  0.03643  0  3.94141  0  0  0.115429  0.037718  0  3.909487  0
C  C19  1  0.11025766  0.42295099  0.63136218  1  0  0.042088  0  3.677645  0  0  0.037591  0  3.921858  0  0  0.036533  0  3.941292  0  0  0.115483  0.037803  0  3.909397  0
C  C20  1  0.03510640  0.66103503  0.32094788  1  0  0.073344  0  3.673819  0  0  0.074641  0  3.927298  0  0  0.0753  0  3.941399  0  0  0.131433  0.07367  0  3.918571  0
C  C21  1  0.96489409  0.33897257  0.67905506  1  0  0.07328  0  3.67382  0  0  0.074582  0  3.927333  0  0  0.075235  0  3.941431  0  0  0.131378  0.073608  0  3.918614  0
C  C22  1  0.91009049  0.39315521  0.35125953  1  0  0.615118  0  3.939515  0  0  0.562827  0  4.24204  0  0  0.595595  0  4.237294  0  0  0.200568  0.540667  0  4.244468  0
C  C23  1  0.08991284  0.60685230  0.64873572  1  0  0.615246  0  3.939384  0  0  0.562895  0  4.242027  0  0  0.595659  0  4.237284  0  0  0.200663  0.540735  0  4.244451  0
C  C24  1  0.22182283  0.58577318  0.24316229  1  0  0.656008  0  3.938979  0  0  0.59509  0  4.249614  0  0  0.632331  0  4.236976  0  0  0.21126  0.569533  0  4.257512  0
C  C25  1  0.77817878  0.41423066  0.75684191  1  0  0.656052  0  3.938825  0  0  0.595059  0  4.249572  0  0  0.632302  0  4.236936  0  0  0.211243  0.569505  0  4.257466  0
C  C26  1  0.42380675  0.18005273  0.86115744  1  0  0.211818  0  3.709391  0  0  0.148636  0  4.009594  0  0  0.161176  0  4.024389  0  0  0.14528  0.140659  0  3.999067  0
C  C27  1  0.57619604  0.81994227  0.13884385  1  0  0.211808  0  3.709366  0  0  0.148613  0  4.009579  0  0  0.161153  0  4.024377  0  0  0.145213  0.140638  0  3.999051  0
C  C28  1  0.85716523  0.90026701  0.40805896  1  0  0.095906  0  3.665522  0  0  0.06959  0  3.937849  0  0  0.073111  0  3.94956  0  0  0.061704  0.067105  0  3.930381  0
C  C29  1  0.14282639  0.09973683  0.59194308  1  0  0.09592  0  3.665724  0  0  0.069574  0  3.938105  0  0  0.073101  0  3.949808  0  0  0.0617  0.067092  0  3.930635  0
C  C30  1  0.22754622  0.24092818  0.02435952  1  0  0.200746  0  3.582769  0  0  0.120948  0  3.843509  0  0  0.13703  0  3.852587  0  0  0.177864  0.11083  0  3.837019  0
C  C31  1  0.77245335  0.75906805  0.97563903  1  0  0.200616  0  3.582798  0  0  0.120835  0  3.843499  0  0  0.136913  0  3.852573  0  0  0.177783  0.110719  0  3.837009  0
C  C32  1  0.71298568  0.81787190  0.45699416  1  0  0.092539  0  3.688365  0  0  0.059174  0  3.947564  0  0  0.063595  0  3.963134  0  0  0.056491  0.055743  0  3.937593  0
C  C33  1  0.28701495  0.18212570  0.54301452  1  0  0.092412  0  3.688308  0  0  0.059061  0  3.947517  0  0  0.063483  0  3.963086  0  0  0.056395  0.055631  0  3.937545  0
C  C34  1  0.08348095  0.99194589  0.04310805  1  0  -0.040894  0  3.610703  0  0  -0.118667  0  3.868566  0  0  -0.115585  0  3.878825  0  0  -0.047446  -0.12016  0  3.861119  0
C  C35  1  0.91651606  0.00805409  0.95688746  1  0  -0.040729  0  3.610593  0  0  -0.118779  0  3.868668  0  0  -0.11572  0  3.878985  0  0  -0.047458  -0.120264  0  3.86122  0
N  N36  1  0.72883850  0.65959987  0.43498695  1  0  -0.30041  0  3.286858  0  0  -0.235567  0  3.552913  0  0  -0.24988  0  3.570746  0  0  -0.310877  -0.225551  0  3.541064  0
N  N37  1  0.27115957  0.34040146  0.56501681  1  0  -0.300481  0  3.286786  0  0  -0.235627  0  3.552849  0  0  -0.249943  0  3.570677  0  0  -0.310893  -0.225611  0  3.541001  0
N  N38  1  0.21138971  0.09658543  0.98757109  1  0  0.051986  0  3.553934  0  0  0.174928  0  3.733333  0  0  0.163312  0  3.759423  0  0  -0.132429  0.18101  0  3.718271  0
N  N39  1  0.78860985  0.90341078  0.01242558  1  0  0.052006  0  3.553899  0  0  0.175057  0  3.733284  0  0  0.163439  0  3.759368  0  0  -0.132413  0.181128  0  3.718239  0
N  N40  1  0.36175588  0.29677886  0.94588994  1  0  -0.416949  0  3.174724  0  0  -0.344299  0  3.472673  0  0  -0.367641  0  3.485643  0  0  -0.348515  -0.328464  0  3.463211  0
N  N41  1  0.63824946  0.70321234  0.05411064  1  0  -0.416856  0  3.174776  0  0  -0.344209  0  3.472706  0  0  -0.367551  0  3.485675  0  0  -0.348446  -0.328374  0  3.463243  0
N  N42  1  0.01716080  0.82204749  0.34016411  1  0  -0.264707  0  3.025853  0  0  -0.245233  0  3.300868  0  0  -0.249789  0  3.311108  0  0  -0.294443  -0.2421  0  3.294258  0
N  N43  1  0.98283541  0.17796015  0.65984099  1  0  -0.264538  0  3.026081  0  0  -0.245051  0  3.301086  0  0  -0.249602  0  3.311326  0  0  -0.294342  -0.241918  0  3.294475  0
N  N44  1  0.33556347  0.05536979  0.88325702  1  0  -0.294666  0  2.933873  0  0  -0.272438  0  3.191652  0  0  -0.285001  0  3.208467  0  0  -0.214209  -0.263668  0  3.180225  0
N  N45  1  0.66443752  0.94462642  0.11673956  1  0  -0.294674  0  2.933932  0  0  -0.27245  0  3.191682  0  0  -0.285013  0  3.2085  0  0  -0.214205  -0.263678  0  3.180255  0
O  O46  1  0.38344532  0.54770484  0.29603762  1  0  -0.650388  0  2.051377  0  0  -0.590154  0  2.319665  0  0  -0.620828  0  2.306805  0  0  -0.323685  -0.568015  0  2.327481  0
O  O47  1  0.61655313  0.45229522  0.70396531  1  0  -0.650432  0  2.051364  0  0  -0.590152  0  2.319668  0  0  -0.620829  0  2.306808  0  0  -0.323663  -0.568014  0  2.327482  0
O  O48  1  0.76183009  0.33204234  0.39037143  1  0  -0.663125  0  2.02299  0  0  -0.591332  0  2.267402  0  0  -0.621019  0  2.255354  0  0  -0.334432  -0.570265  0  2.274882  0
O  O49  1  0.23817977  0.66795759  0.60962325  1  0  -0.663187  0  2.022821  0  0  -0.591365  0  2.267254  0  0  -0.621052  0  2.255206  0  0  -0.334485  -0.570298  0  2.274731  0
O  O50  1  0.06950117  0.31429526  0.30124318  1  0  -0.56751  0  1.922594  0  0  -0.527534  0  2.14285  0  0  -0.550662  0  2.136581  0  0  -0.307154  -0.511135  0  2.146608  0
O  O51  1  0.93049532  0.68571590  0.69873898  1  0  -0.567559  0  1.922567  0  0  -0.527539  0  2.142847  0  0  -0.550668  0  2.136582  0  0  -0.307171  -0.511141  0  2.1466  0
O  O52  1  0.20386335  0.58544459  0.12570585  1  0  -0.621036  0  1.98882  0  0  -0.556902  0  2.233363  0  0  -0.586042  0  2.222581  0  0  -0.314285  -0.536107  0  2.240024  0
O  O53  1  0.79613489  0.41457053  0.87429364  1  0  -0.621033  0  1.988668  0  0  -0.55689  0  2.233283  0  0  -0.586013  0  2.222469  0  0  -0.314286  -0.536097  0  2.239944  0
O  O54  1  0.33325095  0.72301811  0.85062469  1  0  -0.835633  0  1.901796  0  0  -0.776307  0  2.097618  0  0  -0.796319  0  2.064424  0  0  -0.594351  -0.762059  0  2.120681  0
O  O55  1  0.66674719  0.27697815  0.14937583  1  0  -0.835656  0  1.901779  0  0  -0.77635  0  2.097551  0  0  -0.796369  0  2.064353  0  0  -0.594377  -0.762101  0  2.120611  0
