# generated using pymatgen
data_Cu3H10C12(IN2)3
_symmetry_space_group_name_H-M   'P 1'
_cell_length_a   7.40455457
_cell_length_b   7.64098490
_cell_length_c   15.94181143
_cell_angle_alpha   79.28782919
_cell_angle_beta   88.82201156
_cell_angle_gamma   89.22816044
_symmetry_Int_Tables_number   1
_chemical_formula_structural   Cu3H10C12(IN2)3
_chemical_formula_sum   'Cu6 H20 C24 I6 N12'
_cell_volume   886.00908160
_cell_formula_units_Z   2
loop_
 _symmetry_equiv_pos_site_id
 _symmetry_equiv_pos_as_xyz
  1  'x, y, z'
loop_
 _atom_site_type_symbol
 _atom_site_label
 _atom_site_symmetry_multiplicity
 _atom_site_fract_x
 _atom_site_fract_y
 _atom_site_fract_z
 _atom_site_occupancy
 _atom_site_hle17_bader_spin_density
 _atom_site_hle17_ddec_charge
 _atom_site_hle17_ddec_spin_density
 _atom_site_hle17_ddec_sum_bond_order
 _atom_site_hle17_magmom
 _atom_site_hse06_10hf_bader_spin_density
 _atom_site_hse06_10hf_ddec_charge
 _atom_site_hse06_10hf_ddec_spin_density
 _atom_site_hse06_10hf_ddec_sum_bond_order
 _atom_site_hse06_10hf_magmom
 _atom_site_hse06_bader_spin_density
 _atom_site_hse06_ddec_charge
 _atom_site_hse06_ddec_spin_density
 _atom_site_hse06_ddec_sum_bond_order
 _atom_site_hse06_magmom
 _atom_site_pbe_bader_spin_density
 _atom_site_pbe_cm5_charge
 _atom_site_pbe_ddec_charge
 _atom_site_pbe_ddec_spin_density
 _atom_site_pbe_ddec_sum_bond_order
 _atom_site_pbe_magmom
Cu  Cu0  1  0.18675040  0.42329561  0.87357421  1  0  0.353506  0  2.082865  0  0  0.249855  0  2.57002  0  0  0.251779  0  2.526184  0  0  0.391161  0.252518  0  2.596855  0
Cu  Cu1  1  0.81325809  0.57670575  0.12642553  1  0  0.353536  0  2.082831  0  0  0.249895  0  2.569972  0  0  0.251811  0  2.526154  0  0  0.391166  0.252558  0  2.59681  0
Cu  Cu2  1  0.16836351  0.27189886  0.67307662  1  0  0.289398  0  2.173887  0  0  0.198412  0  2.665958  0  0  0.202656  0  2.617395  0  0  0.347221  0.199263  0  2.695988  0
Cu  Cu3  1  0.83164362  0.72810249  0.32692375  1  0  0.289424  0  2.173835  0  0  0.198421  0  2.665907  0  0  0.202677  0  2.61734  0  0  0.347198  0.199281  0  2.695937  0
Cu  Cu4  1  0.26339262  0.98305795  0.76792464  1  0  0.22021  0  2.101904  0  0  0.148642  0  2.580905  0  0  0.173482  0  2.517691  0  0  0.144929  0.132463  0  2.62339  0
Cu  Cu5  1  0.73660378  0.01693943  0.23207425  1  0  0.220197  0  2.101939  0  0  0.148644  0  2.58092  0  0  0.173483  0  2.517707  0  0  0.144933  0.132461  0  2.623422  0
H  H6  1  0.69311111  0.88015346  0.66825598  1  0  0.269094  0  0.91465  0  0  0.262248  0  0.979673  0  0  0.267388  0  0.974264  0  0  0.290339  0.258406  0  0.983758  0
H  H7  1  0.30689197  0.11984789  0.33174442  1  0  0.269055  0  0.914725  0  0  0.262283  0  0.979653  0  0  0.267424  0  0.974241  0  0  0.290358  0.258437  0  0.983744  0
H  H8  1  0.54787390  0.75710086  0.73624316  1  0  0.267449  0  0.951216  0  0  0.250931  0  1.03546  0  0  0.258532  0  1.02677  0  0  0.269723  0.245254  0  1.041985  0
H  H9  1  0.45213190  0.24289514  0.26375894  1  0  0.267573  0  0.951143  0  0  0.251041  0  1.035388  0  0  0.258639  0  1.026702  0  0  0.269754  0.245367  0  1.041912  0
H  H10  1  0.86577848  0.73144397  0.51637946  1  0  0.079559  0  0.966271  0  0  0.083275  0  1.041392  0  0  0.087008  0  1.037957  0  0  0.09553  0.080515  0  1.043896  0
H  H11  1  0.13421924  0.26855340  0.48362068  1  0  0.079572  0  0.966228  0  0  0.083293  0  1.041361  0  0  0.087028  0  1.037922  0  0  0.095539  0.080531  0  1.043866  0
H  H12  1  0.58666870  0.15855693  0.49999758  1  0  0.105813  0  0.936287  0  0  0.118459  0  0.990885  0  0  0.121748  0  0.989544  0  0  0.104537  0.115973  0  0.992204  0
H  H13  1  0.41333035  0.84144309  0.50000232  1  0  0.105818  0  0.936263  0  0  0.118475  0  0.990848  0  0  0.121763  0  0.989505  0  0  0.104535  0.115991  0  0.992165  0
H  H14  1  0.69062662  0.21125522  0.64350636  1  0  0.088584  0  0.973304  0  0  0.098711  0  1.039651  0  0  0.101673  0  1.036636  0  0  0.092199  0.096242  0  1.04233  0
H  H15  1  0.30937512  0.78874480  0.35649416  1  0  0.088606  0  0.973283  0  0  0.098734  0  1.039633  0  0  0.101697  0  1.036617  0  0  0.09221  0.096263  0  1.042311  0
H  H16  1  0.83804033  0.98845882  0.77727631  1  0  0.084432  0  0.986095  0  0  0.090699  0  1.061095  0  0  0.094513  0  1.056106  0  0  0.088856  0.087722  0  1.065013  0
H  H17  1  0.16195327  0.01154654  0.22272254  1  0  0.084441  0  0.986047  0  0  0.09069  0  1.061066  0  0  0.094504  0  1.056077  0  0  0.08886  0.087727  0  1.064969  0
H  H18  1  0.79237305  0.14049599  0.90256915  1  0  0.109816  0  0.938867  0  0  0.118531  0  0.99914  0  0  0.122346  0  0.997759  0  0  0.100112  0.115715  0  1.000397  0
H  H19  1  0.20759225  0.85950136  0.09743117  1  0  0.109908  0  0.93884  0  0  0.118599  0  0.999138  0  0  0.122415  0  0.997755  0  0  0.100166  0.115785  0  1.000392  0
H  H20  1  0.78204129  0.95818038  0.04915276  1  0  0.06549  0  0.996089  0  0  0.069116  0  1.072874  0  0  0.072755  0  1.068848  0  0  0.090274  0.066207  0  1.076113  0
H  H21  1  0.21792677  0.04181433  0.95084652  1  0  0.065403  0  0.99611  0  0  0.069118  0  1.072842  0  0  0.072697  0  1.068864  0  0  0.090274  0.066202  0  1.076088  0
H  H22  1  0.84470174  0.48809162  0.95618568  1  0  0.079585  0  0.959296  0  0  0.083073  0  1.03564  0  0  0.08738  0  1.030063  0  0  0.103364  0.079899  0  1.039833  0
H  H23  1  0.15531622  0.51191109  0.04381264  1  0  0.079634  0  0.959258  0  0  0.083169  0  1.035534  0  0  0.08744  0  1.029985  0  0  0.103382  0.079984  0  1.039764  0
H  H24  1  0.63078174  0.39807181  0.37279611  1  0  0.07655  0  0.966634  0  0  0.077643  0  1.046787  0  0  0.081295  0  1.042601  0  0  0.1006  0.074669  0  1.050233  0
H  H25  1  0.36921730  0.60193089  0.62720294  1  0  0.07654  0  0.96667  0  0  0.07766  0  1.046789  0  0  0.081312  0  1.042603  0  0  0.100623  0.074687  0  1.050235  0
C  C26  1  0.84456783  0.50954866  0.67280596  1  0  0.265889  0  3.705305  0  0  0.22718  0  3.974656  0  0  0.242066  0  3.988758  0  0  0.22986  0.217493  0  3.965268  0
C  C27  1  0.15543662  0.49045271  0.32719317  1  0  0.266117  0  3.705252  0  0  0.227302  0  3.974674  0  0  0.242188  0  3.988779  0  0  0.229908  0.21761  0  3.965295  0
C  C28  1  0.87189812  0.62024276  0.79022408  1  0  0.248148  0  3.723982  0  0  0.210591  0  3.98808  0  0  0.225474  0  4.002335  0  0  0.224675  0.2008  0  3.978941  0
C  C29  1  0.12810899  0.37975992  0.20977619  1  0  0.248229  0  3.723913  0  0  0.210666  0  3.988045  0  0  0.225553  0  4.002294  0  0  0.224714  0.200879  0  3.978896  0
C  C30  1  0.78331643  0.47589049  0.59061342  1  0  -0.044362  0  3.794731  0  0  -0.02205  0  4.033861  0  0  -0.029805  0  4.055821  0  0  -0.006042  -0.017516  0  4.019761  0
C  C31  1  0.21668532  0.52410954  0.40938647  1  0  -0.04445  0  3.79478  0  0  -0.022089  0  4.033907  0  0  -0.029846  0  4.055868  0  0  -0.006057  -0.017555  0  4.019808  0
C  C32  1  0.80391734  0.60267012  0.51580837  1  0  0.098985  0  3.655803  0  0  0.060426  0  3.905611  0  0  0.067594  0  3.921211  0  0  0.041397  0.055237  0  3.8965  0
C  C33  1  0.19608432  0.39733521  0.48419295  1  0  0.099074  0  3.655685  0  0  0.060479  0  3.905531  0  0  0.067648  0  3.92113  0  0  0.041427  0.055307  0  3.896386  0
C  C34  1  0.67470803  0.41580977  0.43545268  1  0  0.130334  0  3.673535  0  0  0.098264  0  3.925719  0  0  0.10642  0  3.941604  0  0  0.036503  0.092867  0  3.915518  0
C  C35  1  0.32529104  0.58418893  0.56454671  1  0  0.1304  0  3.673768  0  0  0.098309  0  3.925934  0  0  0.106466  0  3.941817  0  0  0.036519  0.09291  0  3.915734  0
C  C36  1  0.65000559  0.28258156  0.50695836  1  0  -0.104141  0  3.743414  0  0  -0.113995  0  3.991667  0  0  -0.12152  0  4.012282  0  0  -0.089148  -0.109524  0  3.978571  0
C  C37  1  0.34999478  0.71741575  0.49304491  1  0  -0.104217  0  3.74352  0  0  -0.114085  0  3.991812  0  0  -0.121609  0  4.012426  0  0  -0.089191  -0.109613  0  3.978715  0
C  C38  1  0.70754857  0.31099918  0.58566615  1  0  -0.029788  0  3.708394  0  0  -0.061  0  3.960364  0  0  -0.054165  0  3.974362  0  0  -0.070142  -0.065841  0  3.951846  0
C  C39  1  0.29244772  0.68900214  0.41433617  1  0  -0.029759  0  3.708403  0  0  -0.060979  0  3.960365  0  0  -0.054145  0  3.974363  0  0  -0.070136  -0.065819  0  3.951844  0
C  C40  1  0.84437490  0.72483917  0.85729051  1  0  -0.052115  0  3.830565  0  0  -0.026132  0  4.059331  0  0  -0.033568  0  4.079739  0  0  -0.013986  -0.022191  0  4.047636  0
C  C41  1  0.15562947  0.27516751  0.14270942  1  0  -0.0521  0  3.830528  0  0  -0.026205  0  4.05941  0  0  -0.033644  0  4.07982  0  0  -0.013993  -0.02226  0  4.047714  0
C  C42  1  0.82902247  0.91112837  0.84183737  1  0  -0.041274  0  3.716387  0  0  -0.073557  0  3.970941  0  0  -0.066111  0  3.983588  0  0  -0.080243  -0.078817  0  3.963934  0
C  C43  1  0.17098197  0.08887433  0.15816165  1  0  -0.041167  0  3.716516  0  0  -0.073393  0  3.971032  0  0  -0.065947  0  3.983684  0  0  -0.080202  -0.078662  0  3.964009  0
C  C44  1  0.80626738  0.99614426  0.91144951  1  0  -0.095812  0  3.72083  0  0  -0.105298  0  3.971517  0  0  -0.112795  0  3.990891  0  0  -0.085511  -0.100951  0  3.959478  0
C  C45  1  0.19372079  0.00386107  0.08855125  1  0  -0.095942  0  3.721328  0  0  -0.105445  0  3.972057  0  0  -0.11294  0  3.991419  0  0  -0.08554  -0.101097  0  3.960015  0
C  C46  1  0.80103734  0.89533110  0.99348392  1  0  0.133068  0  3.663997  0  0  0.101973  0  3.910953  0  0  0.110534  0  3.925602  0  0  0.037809  0.096346  0  3.901679  0
C  C47  1  0.19894554  0.10466492  0.00651641  1  0  0.133143  0  3.664012  0  0  0.101931  0  3.91102  0  0  0.11055  0  3.92569  0  0  0.037723  0.096302  0  3.901756  0
C  C48  1  0.83730386  0.63315594  0.94181514  1  0  0.100678  0  3.665952  0  0  0.059832  0  3.917949  0  0  0.069733  0  3.928354  0  0  0.036998  0.052149  0  3.913801  0
C  C49  1  0.16270462  0.36684676  0.05818448  1  0  0.10055  0  3.666259  0  0  0.059718  0  3.918227  0  0  0.069652  0  3.928648  0  0  0.036945  0.052012  0  3.914109  0
I  I50  1  0.43239507  0.26904913  0.78490564  1  0  -0.360477  0  1.742073  0  0  -0.3036  0  2.215501  0  0  -0.319736  0  2.170355  0  0  -0.172572  -0.291792  0  2.245131  0
I  I51  1  0.56761081  0.73094559  0.21509343  1  0  -0.36051  0  1.742119  0  0  -0.303596  0  2.215475  0  0  -0.319734  0  2.170337  0  0  -0.172583  -0.291793  0  2.245117  0
I  I52  1  0.34589598  0.72766230  0.88554489  1  0  -0.419209  0  1.609167  0  0  -0.351343  0  2.038329  0  0  -0.376344  0  2.004554  0  0  -0.201699  -0.333323  0  2.061333  0
I  I53  1  0.65410843  0.27234038  0.11445539  1  0  -0.419232  0  1.60915  0  0  -0.351365  0  2.038266  0  0  -0.376366  0  2.004515  0  0  -0.201708  -0.333344  0  2.061271  0
I  I54  1  0.09466796  0.96530731  0.63167840  1  0  -0.412196  0  1.553234  0  0  -0.361307  0  1.977128  0  0  -0.380866  0  1.940459  0  0  -0.198501  -0.346499  0  2.000898  0
I  I55  1  0.90533105  0.03469671  0.36832116  1  0  -0.412201  0  1.5532  0  0  -0.361321  0  1.977106  0  0  -0.380883  0  1.940436  0  0  -0.198507  -0.346518  0  2.000886  0
N  N56  1  0.98988064  0.48602005  0.79287906  1  0  -0.238436  0  3.273632  0  0  -0.18877  0  3.597449  0  0  -0.195581  0  3.599468  0  0  -0.277354  -0.185383  0  3.596529  0
N  N57  1  0.01012380  0.51397997  0.20712145  1  0  -0.238432  0  3.273713  0  0  -0.188756  0  3.597501  0  0  -0.195565  0  3.599513  0  0  -0.277331  -0.185367  0  3.596578  0
N  N58  1  0.97369630  0.41757720  0.71906110  1  0  -0.228242  0  3.21167  0  0  -0.184761  0  3.530382  0  0  -0.192751  0  3.533725  0  0  -0.268178  -0.180528  0  3.528734  0
N  N59  1  0.02631085  0.58242417  0.28093802  1  0  -0.228465  0  3.211917  0  0  -0.184929  0  3.530635  0  0  -0.192923  0  3.533981  0  0  -0.26828  -0.180699  0  3.528996  0
N  N60  1  0.77888187  0.63772880  0.71528675  1  0  -0.002784  0  3.570979  0  0  0.077873  0  3.793053  0  0  0.063405  0  3.816854  0  0  -0.142187  0.087113  0  3.776867  0
N  N61  1  0.22112389  0.36227254  0.28471426  1  0  -0.002874  0  3.57096  0  0  0.077844  0  3.793029  0  0  0.063371  0  3.816838  0  0  -0.142165  0.087086  0  3.776841  0
N  N62  1  0.63845947  0.75583360  0.68620759  1  0  -0.485944  0  2.944089  0  0  -0.492016  0  3.185088  0  0  -0.498742  0  3.182177  0  0  -0.493668  -0.48686  0  3.1875  0
N  N63  1  0.36154094  0.24416510  0.31379243  1  0  -0.486004  0  2.944193  0  0  -0.492168  0  3.185189  0  0  -0.49889  0  3.182275  0  0  -0.493721  -0.487013  0  3.187605  0
N  N64  1  0.81715426  0.71557969  0.00901224  1  0  -0.276614  0  3.390567  0  0  -0.201728  0  3.686025  0  0  -0.212364  0  3.691442  0  0  -0.368271  -0.195447  0  3.682504  0
N  N65  1  0.18284205  0.28442433  0.99098734  1  0  -0.276583  0  3.390578  0  0  -0.201686  0  3.686034  0  0  -0.212321  0  3.691427  0  0  -0.36821  -0.195403  0  3.682509  0
N  N66  1  0.75318906  0.57250918  0.43915956  1  0  -0.275177  0  3.36177  0  0  -0.200154  0  3.644753  0  0  -0.213409  0  3.655957  0  0  -0.358549  -0.192149  0  3.637277  0
N  N67  1  0.24681807  0.42748949  0.56084230  1  0  -0.275302  0  3.361943  0  0  -0.200275  0  3.644948  0  0  -0.213529  0  3.656147  0  0  -0.358641  -0.19227  0  3.637471  0
