# generated using pymatgen
data_RbVH14C10(NO4)2
_symmetry_space_group_name_H-M   'P 1'
_cell_length_a   6.77479293
_cell_length_b   12.51618147
_cell_length_c   17.48274076
_cell_angle_alpha   89.99890736
_cell_angle_beta   92.96357161
_cell_angle_gamma   89.99992278
_symmetry_Int_Tables_number   1
_chemical_formula_structural   RbVH14C10(NO4)2
_chemical_formula_sum   'Rb4 V4 H56 C40 N8 O32'
_cell_volume   1480.45831552
_cell_formula_units_Z   4
loop_
 _symmetry_equiv_pos_site_id
 _symmetry_equiv_pos_as_xyz
  1  'x, y, z'
loop_
 _atom_site_type_symbol
 _atom_site_label
 _atom_site_symmetry_multiplicity
 _atom_site_fract_x
 _atom_site_fract_y
 _atom_site_fract_z
 _atom_site_occupancy
 _atom_site_hle17_bader_spin_density
 _atom_site_hle17_ddec_charge
 _atom_site_hle17_ddec_spin_density
 _atom_site_hle17_ddec_sum_bond_order
 _atom_site_hle17_magmom
 _atom_site_hse06_10hf_bader_spin_density
 _atom_site_hse06_10hf_ddec_charge
 _atom_site_hse06_10hf_ddec_spin_density
 _atom_site_hse06_10hf_ddec_sum_bond_order
 _atom_site_hse06_10hf_magmom
 _atom_site_hse06_bader_spin_density
 _atom_site_hse06_ddec_charge
 _atom_site_hse06_ddec_spin_density
 _atom_site_hse06_ddec_sum_bond_order
 _atom_site_hse06_magmom
 _atom_site_pbe_bader_spin_density
 _atom_site_pbe_cm5_charge
 _atom_site_pbe_ddec_charge
 _atom_site_pbe_ddec_spin_density
 _atom_site_pbe_ddec_sum_bond_order
 _atom_site_pbe_magmom
Rb  Rb0  1  0.25124718  0.40050330  0.99563206  1  0  0.954836  0  0.524569  0  0  0.91788  0  0.737305  0  0  0.934752  0  0.713351  0  0  0.805941  0.905311  0  0.754403  0
Rb  Rb1  1  0.74875307  0.90050326  0.50436946  1  0  0.954876  0  0.524487  0  0  0.917902  0  0.737242  0  0  0.934778  0  0.713283  0  0  0.805929  0.905339  0  0.754333  0
Rb  Rb2  1  0.74875309  0.59950202  0.00436917  1  0  0.954861  0  0.52455  0  0  0.917892  0  0.737315  0  0  0.934772  0  0.713352  0  0  0.80595  0.905326  0  0.754417  0
Rb  Rb3  1  0.25125464  0.09949407  0.49563023  1  0  0.954868  0  0.524498  0  0  0.917901  0  0.737245  0  0  0.934777  0  0.713287  0  0  0.805937  0.905346  0  0.754328  0
V  V4  1  0.72603972  0.26862703  0.07288950  1  0  1.652162  0  3.124288  0  0  1.670212  0  3.527047  0  0  1.755916  0  3.51296  0  0  1.482661  1.60704  0  3.546726  0
V  V5  1  0.27395681  0.76862318  0.42711135  1  0  1.652084  0  3.124467  0  0  1.670135  0  3.527243  0  0  1.755843  0  3.513146  0  0  1.482705  1.60691  0  3.547058  0
V  V6  1  0.27396208  0.73137429  0.92711006  1  0  1.652185  0  3.124339  0  0  1.670231  0  3.527105  0  0  1.755992  0  3.512914  0  0  1.482669  1.607042  0  3.546788  0
V  V7  1  0.72603471  0.23137894  0.57288567  1  0  1.652018  0  3.124383  0  0  1.67008  0  3.527136  0  0  1.755889  0  3.512876  0  0  1.48264  1.606931  0  3.546781  0
H  H8  1  0.79094319  0.10499370  0.21724939  1  0  0.074881  0  0.938322  0  0  0.079811  0  1.009942  0  0  0.083877  0  1.004788  0  0  0.116482  0.076729  0  1.013816  0
H  H9  1  0.20907622  0.60499216  0.28275480  1  0  0.074891  0  0.938587  0  0  0.079875  0  1.010127  0  0  0.083938  0  1.004973  0  0  0.116543  0.076798  0  1.013992  0
H  H10  1  0.20907628  0.89501242  0.78275288  1  0  0.074934  0  0.938218  0  0  0.07982  0  1.009883  0  0  0.083881  0  1.00473  0  0  0.116483  0.076742  0  1.013758  0
H  H11  1  0.79091082  0.39500757  0.71724383  1  0  0.074964  0  0.938495  0  0  0.079839  0  1.010139  0  0  0.083902  0  1.004983  0  0  0.116518  0.076765  0  1.014006  0
H  H12  1  0.82523133  0.90767827  0.24137864  1  0  0.108713  0  0.961329  0  0  0.119916  0  1.018058  0  0  0.123893  0  1.0158  0  0  0.109937  0.116915  0  1.02001  0
H  H13  1  0.17475126  0.40767673  0.25862056  1  0  0.108663  0  0.960843  0  0  0.119828  0  1.017669  0  0  0.123804  0  1.015417  0  0  0.109885  0.116828  0  1.019618  0
H  H14  1  0.17476583  0.09232705  0.75862824  1  0  0.108807  0  0.961272  0  0  0.119959  0  1.018063  0  0  0.123933  0  1.015816  0  0  0.109936  0.116968  0  1.02  0
H  H15  1  0.82523730  0.59232380  0.74137638  1  0  0.108635  0  0.960801  0  0  0.119798  0  1.017642  0  0  0.123776  0  1.015387  0  0  0.109883  0.116799  0  1.019593  0
H  H16  1  0.81444826  0.78364195  0.12945254  1  0  0.079112  0  0.984316  0  0  0.086663  0  1.053488  0  0  0.090114  0  1.050672  0  0  0.10254  0.08409  0  1.055611  0
H  H17  1  0.18552155  0.28364139  0.37054918  1  0  0.079108  0  0.984271  0  0  0.086651  0  1.053448  0  0  0.0901  0  1.050635  0  0  0.102543  0.084083  0  1.055569  0
H  H18  1  0.18552078  0.21635778  0.87055538  1  0  0.079217  0  0.984188  0  0  0.086731  0  1.053401  0  0  0.090183  0  1.050582  0  0  0.102546  0.084154  0  1.055528  0
H  H19  1  0.81448770  0.71635834  0.62944827  1  0  0.079179  0  0.984219  0  0  0.086677  0  1.053452  0  0  0.090127  0  1.050636  0  0  0.102542  0.084104  0  1.05558  0
H  H20  1  0.77462791  0.86064345  0.99663831  1  0  0.128092  0  0.968302  0  0  0.138233  0  1.029041  0  0  0.142968  0  1.025492  0  0  0.114655  0.134707  0  1.031869  0
H  H21  1  0.22535789  0.36064151  0.50335769  1  0  0.127964  0  0.968724  0  0  0.138055  0  1.029476  0  0  0.142808  0  1.025882  0  0  0.114594  0.134525  0  1.032317  0
H  H22  1  0.22534711  0.13935388  0.00336689  1  0  0.128048  0  0.968291  0  0  0.138218  0  1.028986  0  0  0.142953  0  1.025434  0  0  0.11464  0.134684  0  1.031813  0
H  H23  1  0.77467059  0.63935582  0.49663965  1  0  0.127921  0  0.968778  0  0  0.138072  0  1.029459  0  0  0.142823  0  1.025867  0  0  0.11458  0.134542  0  1.032279  0
H  H24  1  0.72462899  0.93218822  0.89448506  1  0  0.133378  0  0.944865  0  0  0.141353  0  1.00434  0  0  0.1466  0  1.000341  0  0  0.11556  0.137405  0  1.007633  0
H  H25  1  0.27538147  0.43217952  0.60551628  1  0  0.133367  0  0.944869  0  0  0.141373  0  1.004343  0  0  0.14662  0  1.000349  0  0  0.115517  0.137427  0  1.007627  0
H  H26  1  0.27535794  0.06780991  0.10551756  1  0  0.13339  0  0.944849  0  0  0.141343  0  1.004328  0  0  0.146592  0  1.000332  0  0  0.115571  0.137399  0  1.007611  0
H  H27  1  0.72462184  0.56782101  0.39448217  1  0  0.133402  0  0.944851  0  0  0.141365  0  1.004345  0  0  0.146614  0  1.000352  0  0  0.115509  0.137417  0  1.007627  0
H  H28  1  0.68870080  0.03284849  0.77180027  1  0  0.086402  0  0.972497  0  0  0.098076  0  1.032373  0  0  0.101332  0  1.029311  0  0  0.107644  0.095587  0  1.034706  0
H  H29  1  0.31129687  0.53284435  0.72819817  1  0  0.086436  0  0.972822  0  0  0.098139  0  1.032645  0  0  0.101299  0  1.029687  0  0  0.107664  0.095671  0  1.034959  0
H  H30  1  0.31128315  0.96714964  0.22820286  1  0  0.08644  0  0.972438  0  0  0.098061  0  1.032379  0  0  0.101322  0  1.029313  0  0  0.10767  0.09557  0  1.034713  0
H  H31  1  0.68869161  0.46716017  0.27180164  1  0  0.086421  0  0.972894  0  0  0.098097  0  1.03276  0  0  0.101253  0  1.029807  0  0  0.107673  0.095675  0  1.035013  0
H  H32  1  0.66717448  0.23305968  0.77495125  1  0  0.118543  0  0.962534  0  0  0.126717  0  1.02446  0  0  0.131055  0  1.021948  0  0  0.110658  0.123529  0  1.026454  0
H  H33  1  0.33282958  0.73305561  0.72504863  1  0  0.118488  0  0.962575  0  0  0.126623  0  1.02454  0  0  0.130955  0  1.022047  0  0  0.110685  0.123438  0  1.026526  0
H  H34  1  0.33282287  0.76693765  0.22504877  1  0  0.118501  0  0.962571  0  0  0.126708  0  1.024474  0  0  0.131046  0  1.021962  0  0  0.110648  0.123523  0  1.026461  0
H  H35  1  0.66716341  0.26694891  0.27494842  1  0  0.118378  0  0.962617  0  0  0.126609  0  1.0245  0  0  0.130944  0  1.021996  0  0  0.110672  0.123425  0  1.026482  0
H  H36  1  0.68830266  0.32440449  0.90406458  1  0  0.09275  0  0.958887  0  0  0.105108  0  1.016978  0  0  0.108338  0  1.013586  0  0  0.128972  0.102709  0  1.019484  0
H  H37  1  0.31172025  0.82439910  0.59593280  1  0  0.092669  0  0.958773  0  0  0.105044  0  1.016858  0  0  0.108275  0  1.013467  0  0  0.128975  0.102651  0  1.019351  0
H  H38  1  0.31171099  0.67559604  0.09593411  1  0  0.092698  0  0.95888  0  0  0.105057  0  1.016964  0  0  0.108286  0  1.013575  0  0  0.128978  0.102659  0  1.019472  0
H  H39  1  0.68828313  0.17560143  0.40406279  1  0  0.092659  0  0.9587  0  0  0.10506  0  1.016755  0  0  0.108292  0  1.013361  0  0  0.128938  0.102664  0  1.019258  0
H  H40  1  0.13848831  0.42378747  0.82602614  1  0  0.424117  0  0.884928  0  0  0.390442  0  0.953301  0  0  0.401654  0  0.936983  0  0  0.281242  0.382578  0  0.964716  0
H  H41  1  0.86151470  0.92378681  0.67397857  1  0  0.424166  0  0.884862  0  0  0.390504  0  0.953208  0  0  0.401714  0  0.936893  0  0  0.281281  0.382639  0  0.964622  0
H  H42  1  0.86151490  0.57621385  0.17397574  1  0  0.424182  0  0.884839  0  0  0.390509  0  0.953204  0  0  0.401722  0  0.936885  0  0  0.281262  0.382645  0  0.964619  0
H  H43  1  0.13848559  0.07620973  0.32602209  1  0  0.424139  0  0.884906  0  0  0.390475  0  0.95326  0  0  0.401686  0  0.936943  0  0  0.28126  0.382611  0  0.964674  0
H  H44  1  0.24279752  0.34642997  0.76685831  1  0  0.432501  0  0.811166  0  0  0.418689  0  0.857749  0  0  0.426264  0  0.849658  0  0  0.325479  0.413205  0  0.863821  0
H  H45  1  0.75719710  0.84642699  0.73314209  1  0  0.432561  0  0.811321  0  0  0.418757  0  0.857899  0  0  0.426332  0  0.84981  0  0  0.325554  0.41328  0  0.863959  0
H  H46  1  0.75719976  0.65357215  0.23314399  1  0  0.432534  0  0.811174  0  0  0.418718  0  0.857766  0  0  0.426294  0  0.849676  0  0  0.325493  0.413236  0  0.863832  0
H  H47  1  0.24280174  0.15356954  0.26685739  1  0  0.432603  0  0.811257  0  0  0.418772  0  0.857841  0  0  0.426345  0  0.849751  0  0  0.325532  0.413291  0  0.863913  0
H  H48  1  0.98468443  0.42558527  0.13917435  1  0  0.403533  0  0.913793  0  0  0.368783  0  0.985461  0  0  0.381335  0  0.967267  0  0  0.283198  0.360027  0  0.998083  0
H  H49  1  0.01530971  0.92558018  0.36083175  1  0  0.403491  0  0.913854  0  0  0.368751  0  0.985506  0  0  0.3813  0  0.967314  0  0  0.283174  0.359997  0  0.998123  0
H  H50  1  0.01531285  0.57441766  0.86082795  1  0  0.403571  0  0.913742  0  0  0.368822  0  0.98541  0  0  0.381371  0  0.96722  0  0  0.283213  0.360068  0  0.998029  0
H  H51  1  0.98469507  0.07441636  0.63916674  1  0  0.403507  0  0.913844  0  0  0.368733  0  0.985553  0  0  0.381285  0  0.967359  0  0  0.283185  0.359977  0  0.998173  0
H  H52  1  0.16828034  0.50481090  0.14608166  1  0  0.429605  0  0.874172  0  0  0.401905  0  0.932748  0  0  0.411576  0  0.918604  0  0  0.287718  0.395089  0  0.94271  0
H  H53  1  0.83172042  0.00480635  0.35391944  1  0  0.429575  0  0.874227  0  0  0.401879  0  0.932795  0  0  0.411551  0  0.918648  0  0  0.287684  0.395062  0  0.942759  0
H  H54  1  0.83172289  0.49519203  0.85391965  1  0  0.429587  0  0.8742  0  0  0.401898  0  0.932756  0  0  0.411566  0  0.918617  0  0  0.287705  0.39508  0  0.942721  0
H  H55  1  0.16827990  0.99519019  0.64608008  1  0  0.429718  0  0.874029  0  0  0.401987  0  0.932665  0  0  0.411661  0  0.918514  0  0  0.287765  0.395167  0  0.942635  0
H  H56  1  0.46528470  0.40813982  0.15488501  1  0  0.407352  0  0.903398  0  0  0.372816  0  0.974462  0  0  0.385098  0  0.956577  0  0  0.283989  0.364235  0  0.98689  0
H  H57  1  0.53470676  0.90813639  0.34511383  1  0  0.40729  0  0.903486  0  0  0.372755  0  0.974556  0  0  0.385038  0  0.956671  0  0  0.283963  0.364173  0  0.986985  0
H  H58  1  0.53471568  0.59186310  0.84511223  1  0  0.407291  0  0.903488  0  0  0.372755  0  0.974561  0  0  0.385037  0  0.956676  0  0  0.283964  0.364172  0  0.98699  0
H  H59  1  0.46529801  0.09186014  0.65488523  1  0  0.407342  0  0.903423  0  0  0.372806  0  0.974487  0  0  0.385088  0  0.956602  0  0  0.283997  0.364223  0  0.986916  0
H  H60  1  0.52656928  0.53129221  0.16705051  1  0  0.419714  0  0.882154  0  0  0.39216  0  0.940671  0  0  0.401853  0  0.926406  0  0  0.288411  0.385354  0  0.950675  0
H  H61  1  0.47343148  0.03129007  0.33294565  1  0  0.419636  0  0.882275  0  0  0.392153  0  0.940683  0  0  0.401842  0  0.926426  0  0  0.288419  0.385346  0  0.950688  0
H  H62  1  0.47342961  0.46870991  0.83294726  1  0  0.419596  0  0.88229  0  0  0.392074  0  0.940752  0  0  0.401766  0  0.926489  0  0  0.288375  0.385267  0  0.950756  0
H  H63  1  0.52657329  0.96870567  0.66705340  1  0  0.419746  0  0.882103  0  0  0.392217  0  0.9406  0  0  0.401904  0  0.926343  0  0  0.288448  0.385409  0  0.95061  0
C  C64  1  0.78747803  0.04765096  0.17026279  1  0  0.142806  0  3.699092  0  0  0.114066  0  3.963435  0  0  0.122237  0  3.977498  0  0  0.052259  0.108518  0  3.954062  0
C  C65  1  0.21253311  0.54765056  0.32972939  1  0  0.142743  0  3.697905  0  0  0.113973  0  3.962212  0  0  0.122151  0  3.976271  0  0  0.052138  0.108422  0  3.952842  0
C  C66  1  0.21253253  0.95235036  0.82974098  1  0  0.142619  0  3.699234  0  0  0.113932  0  3.963558  0  0  0.122108  0  3.977635  0  0  0.052223  0.108382  0  3.954195  0
C  C67  1  0.78746577  0.45234997  0.67026895  1  0  0.142705  0  3.697877  0  0  0.114003  0  3.962204  0  0  0.122184  0  3.976269  0  0  0.052173  0.108448  0  3.952847  0
C  C68  1  0.80678506  0.93816519  0.18324560  1  0  -0.113297  0  3.727891  0  0  -0.124081  0  3.972422  0  0  -0.13049  0  3.993317  0  0  -0.081537  -0.119949  0  3.958806  0
C  C69  1  0.19321330  0.43816128  0.31676672  1  0  -0.11328  0  3.728527  0  0  -0.124033  0  3.97312  0  0  -0.130453  0  3.994037  0  0  -0.08156  -0.119898  0  3.959496  0
C  C70  1  0.19321514  0.06183453  0.81675849  1  0  -0.113248  0  3.727842  0  0  -0.123986  0  3.972353  0  0  -0.130401  0  3.993254  0  0  -0.081516  -0.119859  0  3.958752  0
C  C71  1  0.80678414  0.56183925  0.68322987  1  0  -0.113233  0  3.728573  0  0  -0.123961  0  3.973092  0  0  -0.130381  0  3.994004  0  0  -0.081547  -0.11983  0  3.959481  0
C  C72  1  0.80123572  0.86957243  0.12040737  1  0  -0.015677  0  3.747882  0  0  -0.033314  0  3.9982  0  0  -0.031059  0  4.017654  0  0  -0.072673  -0.034744  0  3.985338  0
C  C73  1  0.19875036  0.36957562  0.37957871  1  0  -0.015546  0  3.747876  0  0  -0.033197  0  3.998171  0  0  -0.030944  0  4.017639  0  0  -0.072617  -0.034638  0  3.985315  0
C  C74  1  0.19875404  0.13042650  0.87959991  1  0  -0.015881  0  3.748076  0  0  -0.033521  0  3.998433  0  0  -0.031263  0  4.017888  0  0  -0.072671  -0.034958  0  3.985566  0
C  C75  1  0.80125594  0.63042171  0.62041867  1  0  -0.015595  0  3.747833  0  0  -0.03321  0  3.998124  0  0  -0.030958  0  4.017595  0  0  -0.07259  -0.034652  0  3.985265  0
C  C76  1  0.77730246  0.91203126  0.04696591  1  0  -0.127905  0  3.654193  0  0  -0.149011  0  3.902327  0  0  -0.153844  0  3.920123  0  0  -0.075867  -0.145967  0  3.890864  0
C  C77  1  0.22269304  0.41202368  0.45304727  1  0  -0.127857  0  3.653182  0  0  -0.148886  0  3.901285  0  0  -0.153713  0  3.919078  0  0  -0.075761  -0.145846  0  3.889829  0
C  C78  1  0.22267851  0.08796767  0.95303829  1  0  -0.127802  0  3.654451  0  0  -0.148913  0  3.9025  0  0  -0.153749  0  3.920296  0  0  -0.075888  -0.145858  0  3.891019  0
C  C79  1  0.77732367  0.58797605  0.54694750  1  0  -0.12783  0  3.653133  0  0  -0.148922  0  3.901225  0  0  -0.153748  0  3.919017  0  0  -0.075817  -0.145872  0  3.889759  0
C  C80  1  0.75741647  0.02286003  0.03874728  1  0  0.174401  0  3.759008  0  0  0.172347  0  4.01004  0  0  0.178743  0  4.028069  0  0  0.119798  0.167982  0  3.997922  0
C  C81  1  0.24258880  0.52286168  0.46124738  1  0  0.174559  0  3.759325  0  0  0.172443  0  4.010232  0  0  0.178841  0  4.028257  0  0  0.119803  0.168081  0  3.99811  0
C  C82  1  0.24257778  0.97713970  0.96125781  1  0  0.174268  0  3.759188  0  0  0.172288  0  4.010127  0  0  0.178701  0  4.028129  0  0  0.119731  0.167926  0  3.998004  0
C  C83  1  0.75742191  0.47713645  0.53875067  1  0  0.174403  0  3.759564  0  0  0.172285  0  4.010532  0  0  0.178683  0  4.028563  0  0  0.119721  0.167923  0  3.998411  0
C  C84  1  0.73085720  0.07569763  0.96368506  1  0  0.188468  0  3.738294  0  0  0.18564  0  3.986247  0  0  0.194547  0  4.005182  0  0  0.126612  0.17979  0  3.973288  0
C  C85  1  0.26915188  0.57568188  0.53632165  1  0  0.188266  0  3.738632  0  0  0.185694  0  3.986282  0  0  0.194612  0  4.005196  0  0  0.126618  0.179839  0  3.97332  0
C  C86  1  0.26913712  0.92430130  0.03631775  1  0  0.188396  0  3.738542  0  0  0.185543  0  3.986463  0  0  0.194452  0  4.005392  0  0  0.126561  0.179686  0  3.973506  0
C  C87  1  0.73085289  0.42431705  0.46367740  1  0  0.188395  0  3.738673  0  0  0.185837  0  3.98628  0  0  0.194761  0  4.005199  0  0  0.126739  0.179975  0  3.973327  0
C  C88  1  0.71956648  0.01925244  0.89440953  1  0  -0.124739  0  3.644929  0  0  -0.144434  0  3.89339  0  0  -0.151385  0  3.912187  0  0  -0.071362  -0.140064  0  3.881231  0
C  C89  1  0.28044475  0.51924521  0.60558256  1  0  -0.124974  0  3.644822  0  0  -0.144822  0  3.893329  0  0  -0.151781  0  3.912099  0  0  -0.071508  -0.140441  0  3.881168  0
C  C90  1  0.28042636  0.98074969  0.10559324  1  0  -0.124844  0  3.644854  0  0  -0.144496  0  3.89329  0  0  -0.151457  0  3.912098  0  0  -0.071385  -0.140123  0  3.881123  0
C  C91  1  0.71954972  0.48075612  0.39441453  1  0  -0.125108  0  3.645053  0  0  -0.144853  0  3.893464  0  0  -0.151825  0  3.912242  0  0  -0.071527  -0.140469  0  3.88131  0
C  C92  1  0.69777177  0.07568591  0.82603320  1  0  0.009794  0  3.715742  0  0  -0.007467  0  3.961681  0  0  -0.003517  0  3.979953  0  0  -0.063441  -0.009814  0  3.949532  0
C  C93  1  0.30223864  0.57567603  0.67397869  1  0  0.009854  0  3.714834  0  0  -0.007427  0  3.960789  0  0  -0.003389  0  3.979073  0  0  -0.063416  -0.009802  0  3.948642  0
C  C94  1  0.30222399  0.92430903  0.17397078  1  0  0.009758  0  3.715543  0  0  -0.007467  0  3.961495  0  0  -0.003525  0  3.979776  0  0  -0.063432  -0.009819  0  3.94934  0
C  C95  1  0.69775133  0.42432849  0.32602058  1  0  0.009845  0  3.714993  0  0  -0.007461  0  3.961003  0  0  -0.003419  0  3.979295  0  0  -0.063498  -0.009872  0  3.948821  0
C  C96  1  0.68709428  0.18691310  0.82766673  1  0  -0.110405  0  3.697692  0  0  -0.122321  0  3.943775  0  0  -0.129257  0  3.962907  0  0  -0.078082  -0.118079  0  3.931316  0
C  C97  1  0.31291316  0.68691285  0.67232585  1  0  -0.110183  0  3.698028  0  0  -0.122036  0  3.944096  0  0  -0.128976  0  3.963201  0  0  -0.077986  -0.11779  0  3.931642  0
C  C98  1  0.31290591  0.81308583  0.17233736  1  0  -0.110183  0  3.697641  0  0  -0.122153  0  3.943711  0  0  -0.129088  0  3.962839  0  0  -0.078004  -0.117909  0  3.931253  0
C  C99  1  0.68707984  0.31308847  0.32767121  1  0  -0.109965  0  3.697816  0  0  -0.121911  0  3.943881  0  0  -0.128848  0  3.962985  0  0  -0.077921  -0.117665  0  3.931435  0
C  C100  1  0.69758887  0.23786699  0.89839326  1  0  0.129736  0  3.691687  0  0  0.103396  0  3.942971  0  0  0.112427  0  3.959455  0  0  0.055444  0.097608  0  3.931491  0
C  C101  1  0.30242821  0.73785266  0.60161660  1  0  0.129682  0  3.691368  0  0  0.103329  0  3.942698  0  0  0.112364  0  3.959186  0  0  0.055257  0.097536  0  3.931218  0
C  C102  1  0.30241722  0.76213194  0.10161155  1  0  0.129675  0  3.69116  0  0  0.103357  0  3.942461  0  0  0.112388  0  3.958944  0  0  0.055337  0.097564  0  3.930991  0
C  C103  1  0.69756929  0.26214866  0.39837770  1  0  0.129577  0  3.691228  0  0  0.10322  0  3.942592  0  0  0.112254  0  3.959084  0  0  0.055225  0.097427  0  3.931119  0
N  N104  1  0.76283822  0.08885937  0.09983779  1  0  -0.362811  0  3.282963  0  0  -0.33054  0  3.55681  0  0  -0.347313  0  3.57801  0  0  -0.344088  -0.319041  0  3.54267  0
N  N105  1  0.23717948  0.58885467  0.40017802  1  0  -0.362836  0  3.282525  0  0  -0.330587  0  3.556418  0  0  -0.347362  0  3.577615  0  0  -0.344068  -0.319086  0  3.542289  0
N  N106  1  0.23717090  0.91114036  0.90016480  1  0  -0.36265  0  3.283056  0  0  -0.330403  0  3.556828  0  0  -0.347185  0  3.578019  0  0  -0.344007  -0.318896  0  3.542688  0
N  N107  1  0.76282535  0.41114346  0.59981875  1  0  -0.362693  0  3.282673  0  0  -0.33045  0  3.556537  0  0  -0.347239  0  3.577737  0  0  -0.343962  -0.318952  0  3.542404  0
N  N108  1  0.71842394  0.18387998  0.96494461  1  0  -0.380597  0  3.310024  0  0  -0.339065  0  3.575708  0  0  -0.362721  0  3.60453  0  0  -0.360675  -0.322749  0  3.556132  0
N  N109  1  0.28158638  0.68387224  0.53505152  1  0  -0.380415  0  3.308852  0  0  -0.339002  0  3.574557  0  0  -0.362667  0  3.603378  0  0  -0.36053  -0.322681  0  3.554996  0
N  N110  1  0.28157640  0.81612295  0.03505434  1  0  -0.380515  0  3.309731  0  0  -0.339016  0  3.57546  0  0  -0.362683  0  3.604281  0  0  -0.360605  -0.322692  0  3.555882  0
N  N111  1  0.71841837  0.31612908  0.46494811  1  0  -0.380394  0  3.308781  0  0  -0.339024  0  3.574493  0  0  -0.362705  0  3.603318  0  0  -0.360546  -0.322709  0  3.554925  0
O  O112  1  0.45646453  0.22711275  0.08151513  1  0  -0.476155  0  1.721872  0  0  -0.472595  0  1.997917  0  0  -0.492142  0  1.998023  0  0  -0.408299  -0.457117  0  1.997132  0
O  O113  1  0.54354267  0.72711374  0.41848139  1  0  -0.476196  0  1.721938  0  0  -0.472633  0  1.99799  0  0  -0.492188  0  1.9981  0  0  -0.408315  -0.457148  0  1.997205  0
O  O114  1  0.54354324  0.77288858  0.91848228  1  0  -0.476135  0  1.721897  0  0  -0.472583  0  1.997935  0  0  -0.492142  0  1.998041  0  0  -0.408274  -0.457106  0  1.997157  0
O  O115  1  0.45646067  0.27288119  0.58151592  1  0  -0.476206  0  1.721993  0  0  -0.472649  0  1.998035  0  0  -0.492218  0  1.998141  0  0  -0.408348  -0.457174  0  1.997253  0
O  O116  1  0.54119124  0.27642635  0.15120766  1  0  -0.463847  0  1.731174  0  0  -0.436887  0  1.991522  0  0  -0.457785  0  1.988909  0  0  -0.35859  -0.421191  0  1.992627  0
O  O117  1  0.45880229  0.77642367  0.34879301  1  0  -0.463783  0  1.731354  0  0  -0.436823  0  1.991725  0  0  -0.457726  0  1.989118  0  0  -0.358589  -0.421114  0  1.992831  0
O  O118  1  0.45880909  0.72357738  0.84879128  1  0  -0.463905  0  1.731267  0  0  -0.436919  0  1.991605  0  0  -0.457826  0  1.988992  0  0  -0.358623  -0.421217  0  1.992712  0
O  O119  1  0.54120099  0.22356967  0.65120658  1  0  -0.463772  0  1.731291  0  0  -0.436781  0  1.991614  0  0  -0.457697  0  1.989004  0  0  -0.358567  -0.421084  0  1.992718  0
O  O120  1  0.00622404  0.25318565  0.07399337  1  0  -0.482031  0  1.710759  0  0  -0.478806  0  1.986922  0  0  -0.498167  0  1.986921  0  0  -0.424504  -0.463457  0  1.986208  0
O  O121  1  0.99378430  0.75317415  0.42601083  1  0  -0.482088  0  1.710926  0  0  -0.478861  0  1.987114  0  0  -0.498226  0  1.987108  0  0  -0.424513  -0.463504  0  1.986407  0
O  O122  1  0.99378074  0.74681887  0.92600511  1  0  -0.482025  0  1.710887  0  0  -0.478797  0  1.987059  0  0  -0.498168  0  1.987053  0  0  -0.424444  -0.463448  0  1.986352  0
O  O123  1  0.00622055  0.24682398  0.57398536  1  0  -0.482025  0  1.71057  0  0  -0.478793  0  1.986715  0  0  -0.49817  0  1.986703  0  0  -0.424432  -0.463447  0  1.986008  0
O  O124  1  0.93871232  0.29514845  0.14585815  1  0  -0.45626  0  1.717152  0  0  -0.429997  0  1.974038  0  0  -0.450819  0  1.971463  0  0  -0.358037  -0.41437  0  1.975126  0
O  O125  1  0.06127945  0.79513871  0.35414967  1  0  -0.45619  0  1.717201  0  0  -0.429919  0  1.974072  0  0  -0.450738  0  1.971496  0  0  -0.358045  -0.414287  0  1.975167  0
O  O126  1  0.06128944  0.70485448  0.85414255  1  0  -0.456267  0  1.717249  0  0  -0.43001  0  1.974139  0  0  -0.450837  0  1.971563  0  0  -0.358065  -0.41438  0  1.975227  0
O  O127  1  0.93871941  0.20485463  0.64584925  1  0  -0.456223  0  1.716932  0  0  -0.429934  0  1.973799  0  0  -0.450773  0  1.971221  0  0  -0.358051  -0.414309  0  1.974891  0
O  O128  1  0.69378636  0.38259373  0.02703348  1  0  -0.858567  0  1.497186  0  0  -0.877174  0  1.785321  0  0  -0.907972  0  1.781853  0  0  -0.73716  -0.855958  0  1.789275  0
O  O129  1  0.30621250  0.88258303  0.47296989  1  0  -0.858511  0  1.497181  0  0  -0.877093  0  1.785279  0  0  -0.907896  0  1.781816  0  0  -0.737111  -0.855866  0  1.789268  0
O  O130  1  0.30621547  0.61741399  0.97296493  1  0  -0.858546  0  1.497255  0  0  -0.877139  0  1.785373  0  0  -0.907947  0  1.781891  0  0  -0.737172  -0.855916  0  1.789313  0
O  O131  1  0.69379087  0.11741510  0.52702627  1  0  -0.858507  0  1.497146  0  0  -0.877108  0  1.785255  0  0  -0.907937  0  1.781767  0  0  -0.737087  -0.855897  0  1.789205  0
O  O132  1  0.26362771  0.38309944  0.81567792  1  0  -0.853278  0  1.789134  0  0  -0.801894  0  1.950104  0  0  -0.82105  0  1.923913  0  0  -0.599892  -0.788252  0  1.968232  0
O  O133  1  0.73637399  0.88309778  0.68432788  1  0  -0.853431  0  1.789195  0  0  -0.802048  0  1.950205  0  0  -0.821217  0  1.924017  0  0  -0.600027  -0.788403  0  1.968339  0
O  O134  1  0.73637105  0.61690268  0.18432442  1  0  -0.853407  0  1.789057  0  0  -0.801999  0  1.950061  0  0  -0.821162  0  1.923862  0  0  -0.599927  -0.788363  0  1.968198  0
O  O135  1  0.26362926  0.11690035  0.31567285  1  0  -0.853409  0  1.789171  0  0  -0.802026  0  1.950148  0  0  -0.82119  0  1.923962  0  0  -0.599989  -0.788388  0  1.968279  0
O  O136  1  0.02306920  0.50293994  0.13318256  1  0  -0.892587  0  1.843868  0  0  -0.837438  0  2.014577  0  0  -0.858472  0  1.983068  0  0  -0.642838  -0.822371  0  2.03635  0
O  O137  1  0.97692857  0.00293335  0.36681963  1  0  -0.892528  0  1.843989  0  0  -0.837361  0  2.014638  0  0  -0.858409  0  1.983163  0  0  -0.642742  -0.82228  0  2.036382  0
O  O138  1  0.97693104  0.49706618  0.86681981  1  0  -0.892628  0  1.843895  0  0  -0.837448  0  2.014538  0  0  -0.858502  0  1.983081  0  0  -0.642829  -0.822367  0  2.036289  0
O  O139  1  0.02307464  0.99706159  0.63318225  1  0  -0.892662  0  1.843752  0  0  -0.837482  0  2.014468  0  0  -0.858516  0  1.982961  0  0  -0.642858  -0.82241  0  2.036239  0
O  O140  1  0.41442183  0.48336329  0.15290088  1  0  -0.8727  0  1.839285  0  0  -0.819187  0  2.005587  0  0  -0.838553  0  1.973666  0  0  -0.622159  -0.805303  0  2.027784  0
O  O141  1  0.58557671  0.98335977  0.34709654  1  0  -0.872591  0  1.83944  0  0  -0.819136  0  2.005638  0  0  -0.838503  0  1.973727  0  0  -0.62214  -0.805252  0  2.027837  0
O  O142  1  0.58558154  0.51664363  0.84709528  1  0  -0.872549  0  1.839478  0  0  -0.819066  0  2.005744  0  0  -0.838427  0  1.973827  0  0  -0.622093  -0.805184  0  2.027951  0
O  O143  1  0.41443100  0.01663517  0.65290316  1  0  -0.872771  0  1.839196  0  0  -0.819269  0  2.005438  0  0  -0.838637  0  1.973527  0  0  -0.622212  -0.805379  0  2.027635  0
