# generated using pymatgen
data_Cu2H15(C5N)4
_symmetry_space_group_name_H-M   'P 1'
_cell_length_a   31.39932874
_cell_length_b   32.98705541
_cell_length_c   34.74088390
_cell_angle_alpha   89.44521257
_cell_angle_beta   86.79462536
_cell_angle_gamma   88.20153075
_symmetry_Int_Tables_number   1
_chemical_formula_structural   Cu2H15(C5N)4
_chemical_formula_sum   'Cu12 H90 C120 N24'
_cell_volume   35908.48736155
_cell_formula_units_Z   6
loop_
 _symmetry_equiv_pos_site_id
 _symmetry_equiv_pos_as_xyz
  1  'x, y, z'
loop_
 _atom_site_type_symbol
 _atom_site_label
 _atom_site_symmetry_multiplicity
 _atom_site_fract_x
 _atom_site_fract_y
 _atom_site_fract_z
 _atom_site_occupancy
 _atom_site_pbe_bader_charge
 _atom_site_pbe_bader_spin_density
 _atom_site_pbe_cm5_charge
 _atom_site_pbe_ddec_charge
 _atom_site_pbe_ddec_spin_density
 _atom_site_pbe_ddec_sum_bond_order
 _atom_site_pbe_magmom
Cu  Cu0  1  0.76439601  0.18488890  0.14021817  1  0.541062  0  0.487649  0.207233  0  2.124902  0
Cu  Cu1  1  0.81912679  0.21082728  0.20846369  1  0.545877  0  0.488897  0.209975  0  2.115006  0
Cu  Cu2  1  0.77594921  0.12408131  0.21008586  1  0.543048  0  0.482672  0.205235  0  2.104091  0
Cu  Cu3  1  0.82934969  0.78364749  0.83286150  1  0.544996  0  0.488034  0.212435  0  2.108063  0
Cu  Cu4  1  0.91703162  0.79998685  0.78657475  1  0.543828  0  0.483274  0.203393  0  2.116014  0
Cu  Cu5  1  0.83407035  0.85071243  0.76732966  1  0.545453  0  0.486714  0.207821  0  2.116332  0
Cu  Cu6  1  0.19925949  0.21014996  0.86580906  1  0.540304  0  0.486151  0.208759  0  2.112934  0
Cu  Cu7  1  0.13974625  0.20525727  0.79545034  1  0.542952  0  0.485222  0.206969  0  2.111431  0
Cu  Cu8  1  0.21761422  0.14217263  0.80285573  1  0.545854  0  0.485873  0.20672  0  2.116523  0
Cu  Cu9  1  0.20417853  0.78181765  0.16556460  1  0.5367  0  0.48413  0.207199  0  2.10725  0
Cu  Cu10  1  0.12042616  0.79972399  0.21901728  1  0.541294  0  0.485917  0.204607  0  2.118171  0
Cu  Cu11  1  0.19788905  0.85863952  0.21983557  1  0.546718  0  0.48863  0.209574  0  2.119208  0
H  H12  1  0.79730710  0.24591075  0.07518397  1  0.109531  0  0.120419  0.112492  0  0.987338  0
H  H13  1  0.86566356  0.28681160  0.17177057  1  0.062653  0  0.120462  0.11054  0  0.990342  0
H  H14  1  0.73503458  0.04527774  0.17575989  1  0.096975  0  0.120327  0.112776  0  0.987748  0
H  H15  1  0.70561440  0.13523963  0.08875601  1  0.077033  0  0.120299  0.110982  0  0.991883  0
H  H16  1  0.87373558  0.20288115  0.28140328  1  0.102543  0  0.120599  0.111105  0  0.990113  0
H  H17  1  0.81488029  0.08580480  0.28483478  1  0.082277  0  0.120313  0.112663  0  0.986993  0
H  H18  1  0.85746889  0.71318350  0.88933876  1  0.06516  0  0.120498  0.111062  0  0.990349  0
H  H19  1  0.97985294  0.74717629  0.83713293  1  0.124289  0  0.12064  0.112602  0  0.988292  0
H  H20  1  0.75734697  0.90904075  0.79616451  1  0.088217  0  0.120727  0.112659  0  0.987678  0
H  H21  1  0.74665530  0.81270233  0.88141266  1  0.093432  0  0.120335  0.110916  0  0.990141  0
H  H22  1  0.98537387  0.84447462  0.73114104  1  0.092726  0  0.120452  0.112526  0  0.987838  0
H  H23  1  0.86804464  0.90190851  0.69494167  1  0.105591  0  0.12051  0.111057  0  0.990214  0
H  H24  1  0.15260159  0.28072930  0.91405889  1  0.096639  0  0.120138  0.111145  0  0.991005  0
H  H25  1  0.06072150  0.26014112  0.82844769  1  0.096229  0  0.120415  0.113012  0  0.986688  0
H  H26  1  0.28702572  0.08719059  0.84277803  1  0.08853  0  0.12025  0.11071  0  0.991553  0
H  H27  1  0.25749707  0.17678092  0.93140785  1  0.112824  0  0.120404  0.112516  0  0.987471  0
H  H28  1  0.10264105  0.17615207  0.71793591  1  0.078504  0  0.120601  0.111442  0  0.990627  0
H  H29  1  0.20084109  0.08334597  0.73410972  1  0.090282  0  0.120327  0.112798  0  0.987274  0
H  H30  1  0.17782023  0.70264765  0.12279445  1  0.095704  0  0.120402  0.112476  0  0.987339  0
H  H31  1  0.06067676  0.73255497  0.18971336  1  0.090965  0  0.120457  0.110501  0  0.991731  0
H  H32  1  0.27015438  0.91187288  0.18036502  1  0.080105  0  0.12052  0.110608  0  0.990421  0
H  H33  1  0.28191164  0.80519603  0.10830584  1  0.082186  0  0.120575  0.113038  0  0.987025  0
H  H34  1  0.05142876  0.85038604  0.27099034  1  0.080253  0  0.120678  0.112639  0  0.987281  0
H  H35  1  0.16351002  0.92143121  0.28339127  1  0.091702  0  0.120453  0.110795  0  0.990242  0
H  H36  1  0.06338919  0.01651243  0.46505914  1  0.070056  0  0.099353  0.105352  0  1.00066  0
H  H37  1  0.94842134  0.09129940  0.46943908  1  0.063922  0  0.098751  0.10514  0  1.002467  0
H  H38  1  0.04983044  0.09980553  0.52007803  1  0.059936  0  0.099232  0.105637  0  1.002409  0
H  H39  1  0.96189487  0.00255935  0.51758607  1  0.058547  0  0.098667  0.103724  0  1.003981  0
H  H40  1  0.00585662  0.05252576  0.35986390  1  0.031928  0  0.096557  0.097512  0  1.023653  0
H  H41  1  0.01339404  0.03575314  0.62481987  1  0.051816  0  0.096905  0.098515  0  1.0223  0
H  H42  1  0.04618837  0.47325962  0.98346735  1  0.064133  0  0.099018  0.104462  0  1.003136  0
H  H43  1  0.94827408  0.47304279  0.07504801  1  0.060853  0  0.098824  0.103902  0  1.003665  0
H  H44  1  0.95222430  0.52630210  0.98322932  1  0.038001  0  0.099017  0.104746  0  1.002095  0
H  H45  1  0.03827666  0.52913918  0.07522090  1  0.051879  0  0.098274  0.103997  0  1.003646  0
H  H46  1  0.99185275  0.36051783  0.02192870  1  0.016919  0  0.097482  0.100156  0  1.018236  0
H  H47  1  0.99079776  0.64094394  0.02573962  1  0.032389  0  0.096902  0.097151  0  1.025732  0
H  H48  1  0.53598846  0.90640613  0.96154660  1  0.077022  0  0.098802  0.105284  0  1.003345  0
H  H49  1  0.52866311  0.02174124  0.01861710  1  0.061028  0  0.099245  0.105133  0  1.002084  0
H  H50  1  0.47220793  0.92887389  0.04288216  1  0.07231  0  0.099045  0.105079  0  1.002468  0
H  H51  1  0.47775450  0.00271860  0.94018408  1  0.047221  0  0.098716  0.103881  0  1.004262  0
H  H52  1  0.65141157  0.96554265  0.98751552  1  0.026217  0  0.09704  0.1  0  1.016666  0
H  H53  1  0.35634180  0.98069851  0.99944123  1  0.013926  0  0.09759  0.099293  0  1.020849  0
H  H54  1  0.88732816  0.34684974  0.12600468  1  0.014616  0  0.097941  0.097335  0  0.989207  0
H  H55  1  0.92064073  0.34586143  0.03996979  1  0.034681  0  0.098214  0.094979  0  0.99521  0
H  H56  1  0.86583429  0.29666172  0.05570556  1  0.067316  0  0.098314  0.097571  0  0.99277  0
H  H57  1  0.92919681  0.40668948  0.10555533  1  0.008482  0  0.097221  0.097641  0  0.995643  0
H  H58  1  0.90144333  0.65377010  0.92002280  1  0.062357  0  0.098157  0.098136  0  0.989284  0
H  H59  1  0.98793420  0.65411318  0.95957144  1  0.029536  0  0.098832  0.096366  0  0.994989  0
H  H60  1  0.98365068  0.70173768  0.90640936  1  0.051801  0  0.099066  0.098982  0  0.990857  0
H  H61  1  0.91553385  0.59311677  0.96309980  1  0.053682  0  0.097603  0.098796  0  0.994768  0
H  H62  1  0.10505833  0.34643889  0.92653872  1  0.0364  0  0.097516  0.096207  0  0.991164  0
H  H63  1  0.00897077  0.34788822  0.95402681  1  0.066865  0  0.098631  0.096075  0  0.992259  0
H  H64  1  0.02849715  0.30002002  0.89988161  1  0.049235  0  0.098672  0.099386  0  0.992317  0
H  H65  1  0.08232684  0.40551771  0.96579890  1  0.055623  0  0.097713  0.097755  0  0.994258  0
H  H66  1  0.02512713  0.69631875  0.13729279  1  0.045159  0  0.094588  0.091412  0  0.997587  0
H  H67  1  0.99302330  0.65918330  0.08725271  1  0.035428  0  0.097128  0.093195  0  0.999062  0
H  H68  1  0.10913905  0.65554617  0.10592676  1  0.041864  0  0.099235  0.098921  0  0.995817  0
H  H69  1  0.06655981  0.59643215  0.09445494  1  0.029731  0  0.097292  0.097891  0  1.001014  0
H  H70  1  0.65108176  0.08461966  0.06904472  1  0.037439  0  0.097348  0.096021  0  0.99209  0
H  H71  1  0.66005976  0.99198381  0.05277252  1  0.055205  0  0.099328  0.097974  0  0.991534  0
H  H72  1  0.70197189  0.01465074  0.10626373  1  0.069336  0  0.099108  0.099767  0  0.991792  0
H  H73  1  0.59606723  0.05864189  0.02810649  1  0.069867  0  0.097394  0.097692  0  0.99494  0
H  H74  1  0.30101643  0.94789120  0.12036696  1  0.032951  0  0.094805  0.091933  0  0.996904  0
H  H75  1  0.33750597  0.97835171  0.06370869  1  0.035449  0  0.095987  0.091444  0  0.998897  0
H  H76  1  0.33636812  0.86794809  0.08482813  1  0.070027  0  0.098993  0.098782  0  0.996602  0
H  H77  1  0.40134232  0.90639412  0.06955237  1  0.072072  0  0.097107  0.096955  0  1.00181  0
H  H78  1  0.67683016  0.85176772  0.90602269  1  0.057481  0  0.09789  0.097772  0  0.989683  0
H  H79  1  0.66031610  0.94437054  0.91846051  1  0.05469  0  0.098156  0.095539  0  0.993044  0
H  H80  1  0.70727726  0.92885370  0.86341511  1  0.039803  0  0.099101  0.09861  0  0.991173  0
H  H81  1  0.61235432  0.87075907  0.95169375  1  0.063535  0  0.09777  0.099783  0  0.994827  0
H  H82  1  0.34850374  0.06408308  0.88680603  1  0.04943  0  0.097922  0.097541  0  0.988792  0
H  H83  1  0.34638345  0.04862456  0.97541894  1  0.039812  0  0.098046  0.09454  0  0.99421  0
H  H84  1  0.30044726  0.10550134  0.95625539  1  0.048642  0  0.098617  0.09858  0  0.992547  0
H  H85  1  0.40844497  0.01979246  0.90881510  1  0.048972  0  0.097355  0.098326  0  0.995875  0
H  H86  1  0.93450243  0.16352507  0.31422022  1  0.03289  0  0.095395  0.093168  0  0.996  0
H  H87  1  0.98637760  0.12084775  0.34825958  1  0.048942  0  0.097741  0.094702  0  0.99353  0
H  H88  1  0.87454623  0.09568286  0.34067737  1  0.025751  0  0.098434  0.097935  0  0.99817  0
H  H89  1  0.91015505  0.10220865  0.40423367  1  0.054271  0  0.097187  0.098696  0  0.999446  0
H  H90  1  0.09974359  0.14265602  0.64917774  1  0.042082  0  0.098094  0.097555  0  0.989746  0
H  H91  1  0.08428535  0.05146518  0.63507257  1  0.049339  0  0.097656  0.093538  0  0.995966  0
H  H92  1  0.13520353  0.06308742  0.68392008  1  0.037335  0  0.098351  0.098147  0  0.992704  0
H  H93  1  0.06303081  0.12831972  0.58801340  1  0.052865  0  0.098108  0.100099  0  0.994525  0
H  H94  1  0.11927887  0.95331380  0.34190807  1  0.05368  0  0.098244  0.097951  0  0.989309  0
H  H95  1  0.02432097  0.98352279  0.34990039  1  0.04937  0  0.098383  0.095637  0  0.994459  0
H  H96  1  0.03618606  0.92595755  0.30828731  1  0.027303  0  0.09887  0.098589  0  0.992783  0
H  H97  1  0.10076223  0.00057681  0.39848158  1  0.081108  0  0.098222  0.100281  0  0.994117  0
H  H98  1  0.91529386  0.92958826  0.63772085  1  0.022214  0  0.097914  0.097146  0  0.989778  0
H  H99  1  0.00471844  0.96775172  0.63576937  1  0.073536  0  0.097901  0.093913  0  0.996507  0
H  H100  1  0.99603136  0.91297207  0.68258240  1  0.054679  0  0.098321  0.098357  0  0.992062  0
H  H101  1  0.93101125  0.97521802  0.58100944  1  0.026796  0  0.09749  0.098444  0  0.996721  0
C  C102  1  0.81025229  0.25139118  0.10292015  1  0.392089  0  0.006257  -0.057919  0  3.952663  0
C  C103  1  0.84116339  0.27902291  0.11242825  1  0.038467  0  -0.04011  0.01443  0  4.133873  0
C  C104  1  0.84469842  0.27284003  0.15231761  1  0.403729  0  0.008522  -0.049019  0  3.936066  0
C  C105  1  0.73111273  0.07222648  0.15797098  1  0.342351  0  0.006142  -0.059361  0  3.949256  0
C  C106  1  0.71104049  0.07688869  0.12288559  1  0.051554  0  -0.039817  0.016583  0  4.129904  0
C  C107  1  0.71534389  0.11830889  0.11388656  1  0.42238  0  0.007253  -0.053201  0  3.944316  0
C  C108  1  0.85544415  0.17610482  0.27699088  1  0.407962  0  0.006919  -0.053449  0  3.939603  0
C  C109  1  0.85588904  0.13865836  0.29676991  1  -0.024352  0  -0.039559  0.013668  0  4.129618  0
C  C110  1  0.82494659  0.11654033  0.27895112  1  0.454867  0  0.005575  -0.058396  0  3.952371  0
C  C111  1  0.88397909  0.72504831  0.87176992  1  0.425816  0  0.007736  -0.050403  0  3.93733  0
C  C112  1  0.92818353  0.71851203  0.87498885  1  -0.006868  0  -0.039541  0.015131  0  4.133791  0
C  C113  1  0.94643425  0.74308300  0.84552046  1  0.403641  0  0.006121  -0.058282  0  3.953297  0
C  C114  1  0.75993543  0.88156641  0.81343829  1  0.431313  0  0.005882  -0.058313  0  3.951351  0
C  C115  1  0.73719106  0.87105718  0.84796093  1  0.011649  0  -0.03975  0.015476  0  4.132264  0
C  C116  1  0.75394538  0.83216601  0.85671633  1  0.394353  0  0.008381  -0.050044  0  3.936668  0
C  C117  1  0.95272985  0.85445423  0.72668092  1  0.424891  0  0.006595  -0.057325  0  3.952359  0
C  C118  1  0.93748305  0.88397461  0.70088734  1  -0.023463  0  -0.039841  0.01452  0  4.132413  0
C  C119  1  0.89283194  0.88334282  0.70762499  1  0.400991  0  0.008372  -0.05046  0  3.936146  0
C  C120  1  0.13547665  0.27221172  0.88924366  1  0.392349  0  0.007009  -0.053169  0  3.944878  0
C  C121  1  0.09329166  0.28233733  0.88019379  1  0.073885  0  -0.039952  0.014428  0  4.12994  0
C  C122  1  0.08822540  0.26095345  0.84598732  1  0.350035  0  0.005914  -0.058285  0  3.949761  0
C  C123  1  0.27624500  0.11315770  0.86004164  1  0.447117  0  0.008033  -0.050947  0  3.939261  0
C  C124  1  0.28406440  0.12216685  0.89851095  1  -0.042216  0  -0.040173  0.014714  0  4.135874  0
C  C125  1  0.26054467  0.15861483  0.90545700  1  0.418154  0  0.006181  -0.057874  0  3.953165  0
C  C126  1  0.12967289  0.15753221  0.72648195  1  0.39804  0  0.007761  -0.052144  0  3.940655  0
C  C127  1  0.14549609  0.12004359  0.71172150  1  0.106451  0  -0.040113  0.013964  0  4.132661  0
C  C128  1  0.17929866  0.10975596  0.73526319  1  0.396672  0  0.005982  -0.058528  0  3.953658  0
C  C129  1  0.15271417  0.71491079  0.14250000  1  0.387285  0  0.006253  -0.057583  0  3.951093  0
C  C130  1  0.10970797  0.70413369  0.14718553  1  0.028636  0  -0.039561  0.01304  0  4.132638  0
C  C131  1  0.09268778  0.73043220  0.17625015  1  0.410777  0  0.008509  -0.051735  0  3.938233  0
C  C132  1  0.26781468  0.88268354  0.16661169  1  0.410971  0  0.008206  -0.050814  0  3.937492  0
C  C133  1  0.28956257  0.86736685  0.13301482  1  0.040645  0  -0.039278  0.012784  0  4.129956  0
C  C134  1  0.27412754  0.82797745  0.13013810  1  0.391859  0  0.006134  -0.056954  0  3.951193  0
C  C135  1  0.08289934  0.86319567  0.27007077  1  0.481366  0  0.006077  -0.058222  0  3.95119  0
C  C136  1  0.09651355  0.89811305  0.28818654  1  -0.061884  0  -0.039164  0.015955  0  4.133251  0
C  C137  1  0.14026389  0.89914121  0.27701548  1  0.41533  0  0.008102  -0.05102  0  3.94021  0
C  C138  1  0.03875906  0.03337240  0.45002684  1  -0.125244  0  -0.093207  -0.191113  0  3.925348  0
C  C139  1  0.00604522  0.05405990  0.47161395  1  0.019399  0  -0.010042  0.078867  0  4.040526  0
C  C140  1  0.97368444  0.07482872  0.45266092  1  -0.029108  0  -0.094995  -0.193265  0  3.932451  0
C  C141  1  0.97436695  0.07596942  0.41208244  1  -4.5e-05  0  -0.016484  0.119267  0  4.082767  0
C  C142  1  0.00631503  0.05335294  0.39120481  1  -0.006595  0  -0.095307  -0.193261  0  3.922234  0
C  C143  1  0.03830461  0.03126142  0.40965123  1  -0.036981  0  -0.016742  0.121667  0  4.084463  0
C  C144  1  0.00609860  0.05132395  0.51441389  1  0.016652  0  -0.010864  0.078715  0  4.044918  0
C  C145  1  0.03185045  0.07607979  0.53514074  1  -0.034998  0  -0.094871  -0.195151  0  3.932629  0
C  C146  1  0.03548239  0.07018353  0.57505423  1  -0.013173  0  -0.016453  0.120463  0  4.082723  0
C  C147  1  0.01242680  0.03912621  0.59362657  1  -0.038495  0  -0.094428  -0.189754  0  3.907315  0
C  C148  1  0.98558773  0.01449461  0.57360200  1  0.020161  0  -0.01676  0.121331  0  4.085915  0
C  C149  1  0.98229481  0.02149278  0.53384025  1  -0.110426  0  -0.093608  -0.191707  0  3.931671  0
C  C150  1  0.02376287  0.45664558  0.00233469  1  -0.078074  0  -0.094367  -0.192909  0  3.93221  0
C  C151  1  0.99676928  0.47791866  0.02898040  1  -0.063757  0  -0.010299  0.079594  0  4.048716  0
C  C152  1  0.96888964  0.45649978  0.05384223  1  -0.061101  0  -0.09379  -0.192044  0  3.933594  0
C  C153  1  0.96589695  0.41413729  0.05103207  1  -0.015945  0  -0.016508  0.120839  0  4.083591  0
C  C154  1  0.99233938  0.39353389  0.02315621  1  -0.002815  0  -0.093706  -0.189798  0  3.903615  0
C  C155  1  0.02174499  0.41424227  0.99885942  1  0.027767  0  -0.016666  0.118649  0  4.084259  0
C  C156  1  0.99566085  0.52307976  0.02913084  1  0.024799  0  -0.010397  0.079608  0  4.042829  0
C  C157  1  0.97018556  0.54372073  0.00301511  1  -0.030917  0  -0.093227  -0.190933  0  3.926655  0
C  C158  1  0.96887737  0.58635992  0.00078743  1  0.008191  0  -0.01649  0.119679  0  4.087173  0
C  C159  1  0.99200666  0.60788069  0.02681706  1  -0.010602  0  -0.094753  -0.189332  0  3.914172  0
C  C160  1  0.01640444  0.58794534  0.05436382  1  0.022212  0  -0.016496  0.11753  0  4.084764  0
C  C161  1  0.01889734  0.54518821  0.05445465  1  -0.103538  0  -0.094659  -0.193566  0  3.932411  0
C  C162  1  0.55183187  0.93168074  0.97414704  1  -0.026444  0  -0.09549  -0.195823  0  3.934922  0
C  C163  1  0.52740810  0.96403100  0.99030277  1  -0.100759  0  -0.009345  0.081232  0  4.045198  0
C  C164  1  0.54792500  0.99680192  0.00562238  1  -0.025767  0  -0.094216  -0.193954  0  3.93086  0
C  C165  1  0.59262157  0.99689573  0.00672085  1  -0.061161  0  -0.016551  0.122196  0  4.084461  0
C  C166  1  0.61663232  0.96516975  0.98850295  1  0.035878  0  -0.095906  -0.196851  0  3.918147  0
C  C167  1  0.59670896  0.93294617  0.97135287  1  -0.050243  0  -0.015369  0.123612  0  4.076795  0
C  C168  1  0.47991620  0.96563122  0.99145954  1  0.039541  0  -0.01055  0.08006  0  4.046287  0
C  C169  1  0.45591251  0.94713684  0.02148229  1  -0.05704  0  -0.094276  -0.193703  0  3.930936  0
C  C170  1  0.41123028  0.95306444  0.02535220  1  -0.025344  0  -0.016561  0.118937  0  4.081129  0
C  C171  1  0.39107365  0.97736373  0.99783887  1  -0.049687  0  -0.094317  -0.190037  0  3.905355  0
C  C172  1  0.41441501  0.99534068  0.96689615  1  0.045611  0  -0.015628  0.121616  0  4.082643  0
C  C173  1  0.45900204  0.98875438  0.96387967  1  -0.067095  0  -0.094527  -0.193129  0  3.93333  0
C  C174  1  0.86547323  0.30479979  0.08620453  1  -0.123864  0  -0.096484  -0.125695  0  4.045594  0
C  C175  1  0.88867647  0.33682053  0.09598469  1  0.057987  0  -0.10514  -0.102475  0  4.089526  0
C  C176  1  0.91605514  0.35844277  0.06902942  1  -0.027679  0  -0.100984  -0.090409  0  4.093381  0
C  C177  1  0.93617248  0.39285542  0.07726940  1  -0.018726  0  -0.098235  -0.147923  0  3.996444  0
C  C178  1  0.95043709  0.69410945  0.90267254  1  0.009429  0  -0.096284  -0.126103  0  4.04162  0
C  C179  1  0.93391309  0.66330229  0.92439545  1  -0.07831  0  -0.105725  -0.103743  0  4.088868  0
C  C180  1  0.95716458  0.64181908  0.95306105  1  -0.02458  0  -0.100896  -0.091535  0  4.09644  0
C  C181  1  0.94468962  0.60732348  0.97141008  1  -0.075413  0  -0.09759  -0.146478  0  3.989823  0
C  C182  1  0.06207402  0.30716524  0.90223590  1  -0.09389  0  -0.095919  -0.125928  0  4.036186  0
C  C183  1  0.07175966  0.33760136  0.92596470  1  0.034303  0  -0.10577  -0.103896  0  4.093074  0
C  C184  1  0.04137146  0.35934183  0.95112855  1  -0.129847  0  -0.101191  -0.091152  0  4.08843  0
C  C185  1  0.05068213  0.39279251  0.97106400  1  -0.015716  0  -0.096297  -0.143447  0  3.991453  0
C  C186  1  0.08842463  0.67549599  0.12426232  1  0.002812  0  -0.094088  -0.118631  0  4.034153  0
C  C187  1  0.04555700  0.67402702  0.12134210  1  -0.099231  0  -0.107225  -0.104003  0  4.070951  0
C  C188  1  0.02410936  0.64772246  0.09615891  1  0.041533  0  -0.101553  -0.089896  0  4.071277  0
C  C189  1  0.03811732  0.61086465  0.08278516  1  -0.118169  0  -0.097571  -0.145572  0  3.988099  0
C  C190  1  0.69195283  0.04614779  0.10062451  1  -0.016119  0  -0.096812  -0.127232  0  4.039136  0
C  C191  1  0.66312374  0.05348394  0.07345979  1  -0.062145  0  -0.105104  -0.102697  0  4.090472  0
C  C192  1  0.64585508  0.02261215  0.05052881  1  -0.02392  0  -0.100658  -0.091221  0  4.089509  0
C  C193  1  0.61214314  0.02867389  0.02813857  1  -0.096852  0  -0.096774  -0.145108  0  3.988762  0
C  C194  1  0.31832311  0.88746485  0.10561284  1  -0.01036  0  -0.094188  -0.118968  0  4.032702  0
C  C195  1  0.32198359  0.92824346  0.10191426  1  -0.065243  0  -0.106363  -0.10424  0  4.067936  0
C  C196  1  0.34907772  0.94840057  0.07313548  1  -0.05397  0  -0.100782  -0.087788  0  4.067413  0
C  C197  1  0.38692854  0.93392051  0.05728935  1  -0.078795  0  -0.097548  -0.145875  0  3.991251  0
C  C198  1  0.70693346  0.89638705  0.87032535  1  -0.063872  0  -0.09547  -0.124329  0  4.04319  0
C  C199  1  0.67960307  0.88414996  0.89951929  1  -0.047386  0  -0.106104  -0.103901  0  4.086878  0
C  C200  1  0.65373959  0.91217122  0.92285920  1  -0.039947  0  -0.100807  -0.091197  0  4.097379  0
C  C201  1  0.62173856  0.90238664  0.94877279  1  -0.059662  0  -0.097713  -0.149004  0  3.987364  0
C  C202  1  0.30817761  0.09897494  0.92576874  1  -0.061046  0  -0.096182  -0.125845  0  4.045189  0
C  C203  1  0.33861732  0.06983765  0.91705128  1  -0.029083  0  -0.105897  -0.104013  0  4.087688  0
C  C204  1  0.35928870  0.04566848  0.94558253  1  -0.062426  0  -0.100898  -0.089726  0  4.091816  0
C  C205  1  0.39372471  0.02054021  0.93814661  1  -0.047582  0  -0.098119  -0.148249  0  3.994808  0
C  C206  1  0.88405754  0.12345761  0.32549215  1  0.004262  0  -0.094162  -0.119213  0  4.037089  0
C  C207  1  0.92285758  0.13817288  0.33199247  1  -0.039436  0  -0.105959  -0.103179  0  4.066543  0
C  C208  1  0.95254899  0.11945402  0.35770835  1  -0.095417  0  -0.100983  -0.090024  0  4.072093  0
C  C209  1  0.94280295  0.09994820  0.39143219  1  -0.034864  0  -0.097893  -0.14852  0  3.989983  0
C  C210  1  0.12878073  0.09583908  0.68191460  1  -0.059476  0  -0.09631  -0.124846  0  4.040709  0
C  C211  1  0.10466775  0.10988763  0.65308472  1  -0.035122  0  -0.105589  -0.103907  0  4.0881  0
C  C212  1  0.08334912  0.08389305  0.62792928  1  -0.092423  0  -0.101996  -0.09069  0  4.093151  0
C  C213  1  0.06157823  0.09647178  0.59710471  1  -0.024934  0  -0.097296  -0.148065  0  3.989453  0
C  C214  1  0.07066419  0.92650555  0.31148201  1  -0.052286  0  -0.095734  -0.125554  0  4.04421  0
C  C215  1  0.08520123  0.95337100  0.33668561  1  0.012411  0  -0.10572  -0.103464  0  4.088103  0
C  C216  1  0.05755672  0.98163483  0.35799939  1  -0.08924  0  -0.100611  -0.089932  0  4.094006  0
C  C217  1  0.06857897  0.00428982  0.38805908  1  -0.06195  0  -0.097409  -0.148293  0  3.985721  0
C  C218  1  0.96255475  0.91038941  0.67588986  1  0.009087  0  -0.096782  -0.127146  0  4.042503  0
C  C219  1  0.94810746  0.93293483  0.64608735  1  -0.050532  0  -0.105415  -0.102638  0  4.087913  0
C  C220  1  0.97334113  0.96208430  0.62500099  1  -0.032842  0  -0.100801  -0.0884  0  4.091149  0
C  C221  1  0.96111501  0.98279623  0.59330422  1  -0.09529  0  -0.098656  -0.149675  0  3.993817  0
N  N222  1  0.81822631  0.24369990  0.16521809  1  -0.776785  0  -0.338502  -0.143925  0  3.762934  0
N  N223  1  0.79654821  0.23056571  0.13454690  1  -0.7773  0  -0.340324  -0.14246  0  3.773278  0
N  N224  1  0.73635936  0.13658662  0.14131701  1  -0.770805  0  -0.339876  -0.142906  0  3.771211  0
N  N225  1  0.74589220  0.10803548  0.16893905  1  -0.774161  0  -0.337821  -0.14157  0  3.769969  0
N  N226  1  0.80818019  0.13868107  0.25035327  1  -0.770127  0  -0.337673  -0.143118  0  3.765139  0
N  N227  1  0.82701302  0.17584638  0.24933507  1  -0.804848  0  -0.336799  -0.139469  0  3.768087  0
N  N228  1  0.91561329  0.76245796  0.82631582  1  -0.788799  0  -0.338793  -0.140482  0  3.772889  0
N  N229  1  0.87674039  0.75143116  0.84282153  1  -0.784193  0  -0.337199  -0.144848  0  3.759431  0
N  N230  1  0.78436330  0.82077757  0.82972017  1  -0.780193  0  -0.337898  -0.145155  0  3.75651  0
N  N231  1  0.78791068  0.85141936  0.80262359  1  -0.772475  0  -0.339415  -0.141936  0  3.765322  0
N  N232  1  0.88261731  0.85589499  0.73533080  1  -0.776612  0  -0.337719  -0.142655  0  3.757772  0
N  N233  1  0.91987255  0.83770251  0.74700608  1  -0.778331  0  -0.338879  -0.141387  0  3.772266  0
N  N234  1  0.12458233  0.24009720  0.83548328  1  -0.777806  0  -0.338483  -0.141904  0  3.772342  0
N  N235  1  0.15382234  0.24675050  0.86264988  1  -0.765491  0  -0.339821  -0.14513  0  3.761348  0
N  N236  1  0.24054403  0.17035443  0.87368716  1  -0.768569  0  -0.339451  -0.143595  0  3.771777  0
N  N237  1  0.25003268  0.14186562  0.84555896  1  -0.786572  0  -0.337159  -0.141004  0  3.767772  0
N  N238  1  0.18328426  0.13882987  0.76170375  1  -0.791411  0  -0.339183  -0.142766  0  3.775637  0
N  N239  1  0.15211409  0.16834569  0.75648740  1  -0.787498  0  -0.337194  -0.140766  0  3.764028  0
N  N240  1  0.12301132  0.75513566  0.18730029  1  -0.772465  0  -0.337072  -0.137343  0  3.770638  0
N  N241  1  0.16039754  0.74561424  0.16625585  1  -0.770325  0  -0.338495  -0.144768  0  3.759063  0
N  N242  1  0.24511007  0.82072622  0.15928593  1  -0.771785  0  -0.338812  -0.14456  0  3.764451  0
N  N243  1  0.24136693  0.85473564  0.18203149  1  -0.765548  0  -0.337954  -0.141335  0  3.771777  0
N  N244  1  0.15153022  0.86746773  0.25404643  1  -0.777913  0  -0.33908  -0.14385  0  3.767239  0
N  N245  1  0.11593094  0.84491746  0.24995794  1  -0.786052  0  -0.338655  -0.14003  0  3.77405  0
