# generated using pymatgen
data_MnH18C14(NO2)2
_symmetry_space_group_name_H-M   'P 1'
_cell_length_a   6.16529289
_cell_length_b   6.28341336
_cell_length_c   10.37615629
_cell_angle_alpha   90.44991240
_cell_angle_beta   104.92210490
_cell_angle_gamma   110.09705436
_symmetry_Int_Tables_number   1
_chemical_formula_structural   MnH18C14(NO2)2
_chemical_formula_sum   'Mn1 H18 C14 N2 O4'
_cell_volume   362.69670831
_cell_formula_units_Z   1
loop_
 _symmetry_equiv_pos_site_id
 _symmetry_equiv_pos_as_xyz
  1  'x, y, z'
loop_
 _atom_site_type_symbol
 _atom_site_label
 _atom_site_symmetry_multiplicity
 _atom_site_fract_x
 _atom_site_fract_y
 _atom_site_fract_z
 _atom_site_occupancy
 _atom_site_hle17_ddec_charge
 _atom_site_hle17_ddec_spin_density
 _atom_site_hle17_ddec_sum_bond_order
 _atom_site_hle17_magmom
 _atom_site_hse06_10hf_ddec_charge
 _atom_site_hse06_10hf_ddec_spin_density
 _atom_site_hse06_10hf_ddec_sum_bond_order
 _atom_site_hse06_10hf_magmom
 _atom_site_hse06_ddec_charge
 _atom_site_hse06_ddec_spin_density
 _atom_site_hse06_ddec_sum_bond_order
 _atom_site_hse06_magmom
 _atom_site_pbe_cm5_charge
 _atom_site_pbe_ddec_charge
 _atom_site_pbe_ddec_spin_density
 _atom_site_pbe_ddec_sum_bond_order
 _atom_site_pbe_magmom
Mn  Mn0  1  0.97617877  0.97644102  0.00004918  1  0.862392  -1.701408  2.811242  -1.665  0.790551  -1.424839  3.335896  -1.391  0.810195  -1.274095  3.296683  -1.243  0.701287  0.766168  -1.454597  3.365608  -1.42
H  H1  1  0.61652612  0.83104888  0.27081006  1  0.132324  0.003139  0.954336  0.002  0.151916  0.002219  1.015725  0.002  0.154029  0.001839  1.01621  0.001  0.098731  0.149903  0.002284  1.016184  0.002
H  H2  1  0.38493769  0.17986131  0.72665919  1  0.130763  0.002955  0.949075  0.002  0.151042  0.00221  1.009589  0.002  0.153058  0.001798  1.009913  0.001  0.097702  0.149299  0.002212  1.009746  0.002
H  H3  1  0.36728394  0.57607358  0.24504614  1  0.13479  0.001889  0.948396  0.002  0.153551  0.001507  1.008477  0.001  0.1549  0.001181  1.009754  0.001  0.099524  0.152103  0.001593  1.008029  0.001
H  H4  1  0.64514987  0.42622081  0.75923398  1  0.13681  0.002127  0.950592  0.002  0.154704  0.001561  1.011983  0.001  0.156166  0.001323  1.013409  0.001  0.099898  0.152989  0.001633  1.011859  0.001
H  H5  1  0.47892840  0.74605201  0.40338829  1  0.111937  0.000333  0.965079  0.001  0.135472  0.000179  1.022168  0.0  0.136813  0.000129  1.022233  0.0  0.089813  0.13463  0.000191  1.021987  0.0
H  H6  1  0.53343372  0.26479006  0.59822482  1  0.111359  0.000334  0.964738  0.001  0.134741  0.000181  1.021902  0.0  0.136112  0.000131  1.021779  0.0  0.089694  0.133855  0.000199  1.021862  0.0
H  H7  1  0.28742965  0.00913741  0.43456986  1  0.111561  -0.000617  1.016686  0.0  0.122099  -0.000816  1.081685  0.0  0.123693  -0.000584  1.085411  0.0  0.090056  0.121005  -0.001024  1.079205  -0.001
H  H8  1  0.72786175  0.00574091  0.56597317  1  0.110181  -0.000597  1.018742  0.0  0.120146  -0.00079  1.084752  0.0  0.121728  -0.000576  1.088394  0.0  0.08931  0.119118  -0.001006  1.08216  -0.001
H  H9  1  0.09758517  0.25371189  0.48670787  1  0.118266  0.000356  0.956969  0.0  0.140659  0.000239  1.014292  0.0  0.14139  0.000103  1.015317  0.0  0.092158  0.140192  0.000288  1.013359  0.0
H  H10  1  0.91926126  0.76340355  0.51286686  1  0.117091  0.000345  0.959053  0.0  0.139319  0.000204  1.016923  0.0  0.139878  0.000102  1.018329  0.0  0.091436  0.138846  0.000287  1.015995  0.0
H  H11  1  0.81203396  0.20788078  0.37016839  1  0.122951  0.002065  0.947433  0.002  0.143606  0.001542  1.008878  0.001  0.145866  0.001387  1.008305  0.001  0.095285  0.141807  0.001493  1.009335  0.001
H  H12  1  0.19530270  0.79900680  0.63579560  1  0.123275  0.00226  0.947879  0.002  0.144468  0.001673  1.008631  0.001  0.14661  0.001482  1.008172  0.001  0.095721  0.142521  0.001662  1.009377  0.001
H  H13  1  0.06280143  0.44492496  0.36316589  1  0.126616  0.002392  0.951661  0.002  0.149934  0.001792  1.008383  0.001  0.15183  0.001557  1.00838  0.001  0.097985  0.148478  0.001679  1.008524  0.001
H  H14  1  0.93912943  0.55788198  0.62906597  1  0.12565  0.002202  0.95023  0.002  0.148747  0.001685  1.007584  0.001  0.150699  0.001503  1.007589  0.001  0.097085  0.147547  0.001482  1.007225  0.001
H  H15  1  0.56362428  0.16587966  0.08929387  1  0.098327  0.001247  0.961526  0.001  0.102165  0.000251  1.029573  0.0  0.106484  0.000292  1.025091  0.0  0.122222  0.099725  0.000367  1.032429  0.0
H  H16  1  0.43719939  0.83948601  0.91410697  1  0.103352  -0.000961  0.966838  -0.003  0.107283  0.000909  1.03432  0.0  0.112  0.000545  1.028387  0.0  0.124582  0.104733  0.001009  1.037514  0.0
H  H17  1  0.09460194  0.49023678  0.90719562  1  0.094942  0.001281  0.963992  0.001  0.099646  0.000348  1.03179  0.0  0.103725  0.000319  1.027344  0.0  0.121691  0.097376  0.000498  1.034561  0.0
H  H18  1  0.90835611  0.50832033  0.08797282  1  0.100597  -0.000999  0.968895  -0.003  0.105235  0.000956  1.036224  0.0  0.109796  0.000511  1.030276  0.0  0.12391  0.102823  0.001115  1.039323  0.0
C  C19  1  0.44440195  0.75114841  0.29465383  1  -0.409228  0.002174  3.677872  -0.002  -0.488262  0.002807  3.908806  0.0  -0.495357  0.001899  3.913487  -0.001  -0.24584  -0.483036  0.003275  3.906513  0.0
C  C20  1  0.56089441  0.25350072  0.70619383  1  -0.40961  0.002315  3.676704  -0.002  -0.48852  0.002885  3.908025  0.0  -0.495612  0.001965  3.912769  0.0  -0.244559  -0.483324  0.003352  3.905704  0.0
C  C21  1  0.27713762  0.87706041  0.24119925  1  0.480012  0.072484  3.746219  0.047  0.469555  0.037152  4.019807  0.022  0.501364  0.031906  4.02429  0.019  0.111907  0.446625  0.037448  4.017976  0.022
C  C22  1  0.71466214  0.11462544  0.75905537  1  0.479289  0.071614  3.745827  0.047  0.468324  0.036802  4.020041  0.022  0.499924  0.031967  4.024771  0.019  0.110854  0.445657  0.036575  4.017993  0.022
C  C23  1  0.21322434  0.00483544  0.32712215  1  -0.479091  -0.018493  3.759678  -0.021  -0.505513  -0.003658  4.023166  -0.007  -0.531188  -0.00391  4.04078  -0.007  -0.164839  -0.488495  -0.002923  4.012153  -0.006
C  C24  1  0.78689224  0.99517296  0.67307514  1  -0.476324  -0.018424  3.759869  -0.021  -0.502925  -0.0037  4.02394  -0.007  -0.528533  -0.004019  4.041727  -0.007  -0.164154  -0.485985  -0.002967  4.012535  -0.006
C  C25  1  0.05944732  0.12706531  0.28327361  1  0.476767  0.064739  3.759212  0.041  0.468274  0.033631  4.032887  0.019  0.498748  0.033211  4.036678  0.019  0.109475  0.44712  0.031223  4.030652  0.017
C  C26  1  0.93320460  0.86565384  0.71655196  1  0.475265  0.064828  3.760287  0.041  0.467763  0.03402  4.031903  0.019  0.498144  0.033657  4.035995  0.02  0.111282  0.446816  0.031077  4.029447  0.017
C  C27  1  0.00683574  0.26518898  0.38273494  1  -0.404617  0.002719  3.686731  -0.001  -0.483776  0.002679  3.914957  0.0  -0.490418  0.001607  3.919439  -0.001  -0.24374  -0.478643  0.003273  3.911526  0.0
C  C28  1  0.99885675  0.74071132  0.61669825  1  -0.402551  0.00267  3.683827  -0.001  -0.482171  0.002646  3.911085  0.0  -0.488814  0.001588  3.915878  -0.001  -0.24409  -0.476961  0.003232  3.907458  0.0
C  C29  1  0.53266051  0.31545648  0.04939228  1  0.069716  -0.021095  3.700028  -0.026  0.046044  0.003261  3.959046  -0.005  0.05378  -0.006656  3.95769  -0.01  0.043375  0.039653  0.012794  3.957791  0.001
C  C30  1  0.46857802  0.68907397  0.95165587  1  0.051843  0.09014  3.645161  0.056  0.022255  0.054566  3.906976  0.03  0.036398  0.042115  3.903533  0.024  0.032943  0.0155  0.049908  3.904275  0.026
C  C31  1  0.27622514  0.49258228  0.94882017  1  0.066749  -0.019658  3.70241  -0.025  0.042705  0.004123  3.96209  -0.005  0.051033  -0.006667  3.960107  -0.01  0.042952  0.036074  0.014444  3.960992  0.002
C  C32  1  0.72733261  0.50834848  0.04980057  1  0.046542  0.09337  3.649098  0.058  0.016977  0.056821  3.910843  0.031  0.031504  0.0431  3.907165  0.025  0.032458  0.010172  0.052421  3.908106  0.027
N  N33  1  0.30314162  0.30223703  0.99828500  1  -0.265407  0.149501  3.182019  0.127  -0.220647  0.097148  3.456743  0.077  -0.218038  0.063526  3.457815  0.049  -0.303306  -0.21611  0.098985  3.452657  0.078
N  N34  1  0.70203552  0.70326951  0.00150950  1  -0.251601  0.084498  3.326948  0.065  -0.200575  0.068451  3.615445  0.049  -0.205582  0.027997  3.624227  0.016  -0.350668  -0.192535  0.084032  3.602974  0.064
O  O35  1  0.19893973  0.85792741  0.11202784  1  -0.505604  0.003041  2.212533  0.006  -0.454081  -0.011722  2.487967  -0.008  -0.492197  -0.010407  2.489159  -0.006  -0.289435  -0.42803  -0.012643  2.486817  -0.008
O  O36  1  0.77365236  0.11534563  0.88790756  1  -0.505669  0.003919  2.207555  0.007  -0.454118  -0.011355  2.483586  -0.007  -0.492231  -0.010325  2.484977  -0.006  -0.289109  -0.428248  -0.012153  2.482494  -0.007
O  O37  1  0.95316722  0.13256441  0.15893262  1  -0.50452  0.026462  2.125733  0.029  -0.458345  0.00178  2.397607  0.007  -0.49396  -0.005469  2.398332  -0.002  -0.286411  -0.434707  0.004223  2.397948  0.009
O  O38  1  0.02107804  0.84213978  0.84079345  1  -0.505144  0.024849  2.129038  0.028  -0.458249  0.000651  2.399287  0.005  -0.493938  -0.006031  2.400017  -0.002  -0.287188  -0.434659  0.003058  2.399696  0.008
