# generated using pymatgen
data_TlH14C10SNO2
_symmetry_space_group_name_H-M   'P 1'
_cell_length_a   8.69216515
_cell_length_b   10.56505417
_cell_length_c   13.39884415
_cell_angle_alpha   89.99992575
_cell_angle_beta   89.99992879
_cell_angle_gamma   89.99979916
_symmetry_Int_Tables_number   1
_chemical_formula_structural   TlH14C10SNO2
_chemical_formula_sum   'Tl4 H56 C40 S4 N4 O8'
_cell_volume   1230.45867691
_cell_formula_units_Z   4
loop_
 _symmetry_equiv_pos_site_id
 _symmetry_equiv_pos_as_xyz
  1  'x, y, z'
loop_
 _atom_site_type_symbol
 _atom_site_label
 _atom_site_symmetry_multiplicity
 _atom_site_fract_x
 _atom_site_fract_y
 _atom_site_fract_z
 _atom_site_occupancy
 _atom_site_hle17_bader_spin_density
 _atom_site_hle17_ddec_charge
 _atom_site_hle17_ddec_spin_density
 _atom_site_hle17_ddec_sum_bond_order
 _atom_site_hle17_magmom
 _atom_site_hse06_10hf_bader_spin_density
 _atom_site_hse06_10hf_ddec_charge
 _atom_site_hse06_10hf_ddec_spin_density
 _atom_site_hse06_10hf_ddec_sum_bond_order
 _atom_site_hse06_10hf_magmom
 _atom_site_hse06_bader_spin_density
 _atom_site_hse06_ddec_charge
 _atom_site_hse06_ddec_spin_density
 _atom_site_hse06_ddec_sum_bond_order
 _atom_site_hse06_magmom
 _atom_site_pbe_bader_spin_density
 _atom_site_pbe_cm5_charge
 _atom_site_pbe_ddec_charge
 _atom_site_pbe_ddec_spin_density
 _atom_site_pbe_ddec_sum_bond_order
 _atom_site_pbe_magmom
Tl  Tl0  1  0.46893160  0.22550265  0.59590035  1  0  0.949993  0  2.256677  0  0  0.836315  0  2.730678  0  0  0.872429  0  2.712142  0  0  0.434655  0.811979  0  2.742519  0
Tl  Tl1  1  0.03106877  0.77449567  0.09590040  1  0  0.949988  0  2.256649  0  0  0.836308  0  2.730655  0  0  0.872422  0  2.712122  0  0  0.434673  0.811977  0  2.742494  0
Tl  Tl2  1  0.96893138  0.27449662  0.40410000  1  0  0.950009  0  2.256649  0  0  0.836331  0  2.730658  0  0  0.872444  0  2.712125  0  0  0.434667  0.811994  0  2.742505  0
Tl  Tl3  1  0.53107011  0.72550258  0.90409904  1  0  0.950005  0  2.256672  0  0  0.836327  0  2.730683  0  0  0.872442  0  2.712144  0  0  0.434663  0.811991  0  2.742536  0
H  H4  1  0.46252114  0.46434420  0.15145144  1  0  0.094442  0  0.962326  0  0  0.103832  0  1.028589  0  0  0.106948  0  1.025644  0  0  0.106629  0.101651  0  1.030498  0
H  H5  1  0.03748142  0.53565970  0.65145143  1  0  0.094488  0  0.962307  0  0  0.103863  0  1.028592  0  0  0.106986  0  1.025632  0  0  0.106633  0.101679  0  1.030507  0
H  H6  1  0.96251879  0.03565793  0.84854890  1  0  0.094426  0  0.962303  0  0  0.103807  0  1.028588  0  0  0.106926  0  1.025637  0  0  0.106619  0.101628  0  1.030498  0
H  H7  1  0.53747935  0.96434231  0.34854801  1  0  0.094442  0  0.962341  0  0  0.103793  0  1.028645  0  0  0.106933  0  1.025668  0  0  0.106613  0.101607  0  1.03056  0
H  H8  1  0.65982959  0.54343948  0.27022799  1  0  0.10284  0  0.99611  0  0  0.107344  0  1.065017  0  0  0.111087  0  1.064053  0  0  0.091862  0.104606  0  1.065914  0
H  H9  1  0.84017331  0.45656089  0.77022780  1  0  0.102825  0  0.996078  0  0  0.107337  0  1.064982  0  0  0.111069  0  1.064029  0  0  0.091857  0.104598  0  1.065879  0
H  H10  1  0.15983202  0.95656312  0.72977583  1  0  0.102869  0  0.996045  0  0  0.107387  0  1.064925  0  0  0.11113  0  1.063961  0  0  0.091893  0.104648  0  1.065824  0
H  H11  1  0.34017270  0.04344160  0.22977190  1  0  0.102839  0  0.996119  0  0  0.107359  0  1.065  0  0  0.111088  0  1.06405  0  0  0.091845  0.10462  0  1.065898  0
H  H12  1  0.66546228  0.44802667  0.44380793  1  0  0.066676  0  0.980369  0  0  0.078155  0  1.0446  0  0  0.080977  0  1.041415  0  0  0.104098  0.076018  0  1.047095  0
H  H13  1  0.83454144  0.55197153  0.94380840  1  0  0.066695  0  0.980323  0  0  0.078121  0  1.044613  0  0  0.080943  0  1.041428  0  0  0.104086  0.075986  0  1.047105  0
H  H14  1  0.16546446  0.05197348  0.55619415  1  0  0.066672  0  0.980325  0  0  0.078149  0  1.04456  0  0  0.080971  0  1.041375  0  0  0.10409  0.076012  0  1.047055  0
H  H15  1  0.33454059  0.94803152  0.05619079  1  0  0.066696  0  0.980319  0  0  0.078155  0  1.044577  0  0  0.080977  0  1.041391  0  0  0.1041  0.076019  0  1.04707  0
H  H16  1  0.11680327  0.36220242  0.00255596  1  0  0.052942  0  0.914178  0  0  0.070473  0  0.973475  0  0  0.069811  0  0.973942  0  0  0.103354  0.070759  0  0.973401  0
H  H17  1  0.38319498  0.63780078  0.50255705  1  0  0.052926  0  0.914147  0  0  0.070452  0  0.973479  0  0  0.069787  0  0.973937  0  0  0.103348  0.070742  0  0.973406  0
H  H18  1  0.61680480  0.13779597  0.99744616  1  0  0.052967  0  0.914179  0  0  0.070503  0  0.973465  0  0  0.069842  0  0.973931  0  0  0.103371  0.07079  0  0.973391  0
H  H19  1  0.88319421  0.86220118  0.49744435  1  0  0.052919  0  0.914168  0  0  0.070447  0  0.973493  0  0  0.069784  0  0.973951  0  0  0.103344  0.070737  0  0.97342  0
H  H20  1  0.09334682  0.20166941  0.03839795  1  0  0.055229  0  0.955994  0  0  0.068685  0  1.021762  0  0  0.068925  0  1.021357  0  0  0.103297  0.068333  0  1.022396  0
H  H21  1  0.40665366  0.79833468  0.53839587  1  0  0.055162  0  0.956002  0  0  0.068679  0  1.02173  0  0  0.068888  0  1.02135  0  0  0.103313  0.068329  0  1.022367  0
H  H22  1  0.59334659  0.29833000  0.96160345  1  0  0.055239  0  0.956006  0  0  0.068688  0  1.021785  0  0  0.068933  0  1.021373  0  0  0.103313  0.068335  0  1.022418  0
H  H23  1  0.90665134  0.70166722  0.46160402  1  0  0.055158  0  0.956065  0  0  0.068675  0  1.021792  0  0  0.068884  0  1.021413  0  0  0.1033  0.068325  0  1.022429  0
H  H24  1  0.34596870  0.29657178  0.89404250  1  0  0.111682  0  0.97606  0  0  0.132779  0  1.038067  0  0  0.134315  0  1.03799  0  0  0.090451  0.131418  0  1.038534  0
H  H25  1  0.15402995  0.70342983  0.39404252  1  0  0.111644  0  0.976122  0  0  0.132754  0  1.038118  0  0  0.134253  0  1.03808  0  0  0.090435  0.131392  0  1.038585  0
H  H26  1  0.84597166  0.20342784  0.10595869  1  0  0.111637  0  0.976075  0  0  0.132753  0  1.038078  0  0  0.134274  0  1.038014  0  0  0.09044  0.131393  0  1.038546  0
H  H27  1  0.65402810  0.79657090  0.60595831  1  0  0.111652  0  0.976105  0  0  0.132748  0  1.038107  0  0  0.134266  0  1.03805  0  0  0.090439  0.131387  0  1.038575  0
H  H28  1  0.17089744  0.22348016  0.85777530  1  0  0.10669  0  0.966992  0  0  0.128164  0  1.028743  0  0  0.128184  0  1.030996  0  0  0.089795  0.128086  0  1.027204  0
H  H29  1  0.32910128  0.77652057  0.35777436  1  0  0.106666  0  0.967  0  0  0.128138  0  1.028752  0  0  0.12816  0  1.030999  0  0  0.089792  0.128061  0  1.027212  0
H  H30  1  0.67090116  0.27651998  0.14222454  1  0  0.106678  0  0.966981  0  0  0.12816  0  1.028732  0  0  0.128182  0  1.030981  0  0  0.089812  0.128084  0  1.027193  0
H  H31  1  0.82909968  0.72347871  0.64222559  1  0  0.106667  0  0.966983  0  0  0.128148  0  1.028733  0  0  0.128171  0  1.030982  0  0  0.089799  0.128072  0  1.027194  0
H  H32  1  0.30938780  0.13578986  0.92576175  1  0  0.10757  0  0.947696  0  0  0.128228  0  1.010153  0  0  0.129532  0  1.010061  0  0  0.087119  0.126948  0  1.010825  0
H  H33  1  0.19061195  0.86421264  0.42575934  1  0  0.107527  0  0.947695  0  0  0.128187  0  1.010156  0  0  0.129488  0  1.010062  0  0  0.087104  0.126907  0  1.010827  0
H  H34  1  0.80938898  0.36420892  0.07423873  1  0  0.107561  0  0.947673  0  0  0.128225  0  1.010129  0  0  0.12953  0  1.010036  0  0  0.087125  0.126946  0  1.010801  0
H  H35  1  0.69061084  0.63578893  0.57423923  1  0  0.107538  0  0.9477  0  0  0.128202  0  1.010153  0  0  0.129506  0  1.01006  0  0  0.087113  0.126923  0  1.010825  0
H  H36  1  0.25100163  0.35513685  0.69963021  1  0  0.14472  0  0.991298  0  0  0.164218  0  1.047494  0  0  0.16588  0  1.050515  0  0  0.082537  0.16297  0  1.045479  0
H  H37  1  0.24899739  0.64486034  0.19963097  1  0  0.144683  0  0.991305  0  0  0.164184  0  1.047508  0  0  0.165846  0  1.050529  0  0  0.082524  0.162936  0  1.045493  0
H  H38  1  0.75100216  0.14486210  0.30036956  1  0  0.144708  0  0.991298  0  0  0.16421  0  1.047497  0  0  0.165871  0  1.050524  0  0  0.082537  0.162963  0  1.045482  0
H  H39  1  0.74899838  0.85513727  0.80036904  1  0  0.144758  0  0.991278  0  0  0.164254  0  1.047476  0  0  0.165916  0  1.050501  0  0  0.082552  0.163009  0  1.045461  0
H  H40  1  0.27562492  0.42465668  0.57817716  1  0  0.146266  0  1.000209  0  0  0.163335  0  1.062221  0  0  0.16533  0  1.06459  0  0  0.083208  0.161832  0  1.060776  0
H  H41  1  0.22437318  0.57534167  0.07817800  1  0  0.146287  0  1.000272  0  0  0.163341  0  1.062295  0  0  0.165337  0  1.064664  0  0  0.083198  0.161838  0  1.060851  0
H  H42  1  0.77562667  0.07534221  0.42182260  1  0  0.146307  0  1.000233  0  0  0.16336  0  1.062259  0  0  0.165356  0  1.064628  0  0  0.083203  0.161858  0  1.060814  0
H  H43  1  0.72437364  0.92465697  0.92182203  1  0  0.146273  0  1.000242  0  0  0.163325  0  1.06228  0  0  0.165322  0  1.064646  0  0  0.08319  0.161823  0  1.060835  0
H  H44  1  0.41372499  0.45590091  0.67588327  1  0  0.153473  0  0.985194  0  0  0.17221  0  1.04056  0  0  0.174813  0  1.041924  0  0  0.085484  0.170338  0  1.039745  0
H  H45  1  0.08627292  0.54409822  0.17588351  1  0  0.153421  0  0.985182  0  0  0.172224  0  1.040475  0  0  0.174828  0  1.041837  0  0  0.085496  0.170352  0  1.039659  0
H  H46  1  0.91372706  0.04409852  0.32411712  1  0  0.153399  0  0.98523  0  0  0.172209  0  1.040515  0  0  0.174814  0  1.041874  0  0  0.085479  0.170335  0  1.039708  0
H  H47  1  0.58627343  0.95590176  0.82411663  1  0  0.1534  0  0.985221  0  0  0.172196  0  1.040522  0  0  0.174799  0  1.041886  0  0  0.085487  0.170322  0  1.039712  0
H  H48  1  0.48527113  0.97353094  0.63251655  1  0  0.147674  0  0.988911  0  0  0.166876  0  1.044402  0  0  0.169399  0  1.045391  0  0  0.085682  0.16497  0  1.044039  0
H  H49  1  0.01472687  0.02646826  0.13251589  1  0  0.147659  0  0.988927  0  0  0.166845  0  1.044439  0  0  0.169374  0  1.045422  0  0  0.085674  0.16494  0  1.044076  0
H  H50  1  0.98526973  0.52646884  0.36748401  1  0  0.147726  0  0.988856  0  0  0.16691  0  1.044361  0  0  0.169442  0  1.045339  0  0  0.08571  0.165004  0  1.043998  0
H  H51  1  0.51472838  0.47353043  0.86748258  1  0  0.147661  0  0.988897  0  0  0.166867  0  1.044383  0  0  0.169388  0  1.045378  0  0  0.085674  0.164962  0  1.044019  0
H  H52  1  0.67475414  0.03197943  0.60652889  1  0  0.148673  0  0.998151  0  0  0.166581  0  1.053469  0  0  0.168448  0  1.056504  0  0  0.083255  0.165098  0  1.051593  0
H  H53  1  0.82524332  0.96801837  0.10652851  1  0  0.148702  0  0.998048  0  0  0.16657  0  1.053448  0  0  0.168438  0  1.056481  0  0  0.083246  0.165088  0  1.05157  0
H  H54  1  0.17475371  0.46801974  0.39347169  1  0  0.148696  0  0.998125  0  0  0.166589  0  1.053457  0  0  0.168456  0  1.056493  0  0  0.08325  0.165107  0  1.051579  0
H  H55  1  0.32524494  0.53198092  0.89346995  1  0  0.148707  0  0.998065  0  0  0.166586  0  1.053427  0  0  0.168454  0  1.056461  0  0  0.083251  0.165105  0  1.05155  0
H  H56  1  0.54172069  0.00357096  0.50565011  1  0  0.140132  0  1.017803  0  0  0.154801  0  1.083389  0  0  0.157534  0  1.084058  0  0  0.079185  0.15276  0  1.083174  0
H  H57  1  0.95827811  0.99642795  0.00564959  1  0  0.140108  0  1.017813  0  0  0.15478  0  1.083391  0  0  0.157513  0  1.084059  0  0  0.079187  0.152739  0  1.083177  0
H  H58  1  0.04171880  0.49642860  0.49435058  1  0  0.140127  0  1.017843  0  0  0.154793  0  1.083413  0  0  0.157527  0  1.08408  0  0  0.0792  0.152752  0  1.083198  0
H  H59  1  0.45827851  0.50357000  0.99434876  1  0  0.14012  0  1.017778  0  0  0.154784  0  1.083371  0  0  0.157517  0  1.084038  0  0  0.079191  0.152742  0  1.083156  0
C  C60  1  0.37649675  0.27946200  0.35402054  1  0  0.26141  0  3.795642  0  0  0.249873  0  4.058452  0  0  0.265204  0  4.075822  0  0  0.120914  0.239694  0  4.046182  0
C  C61  1  0.12350543  0.72053873  0.85402101  1  0  0.261376  0  3.795864  0  0  0.249824  0  4.058652  0  0  0.265154  0  4.076025  0  0  0.120915  0.239645  0  4.046386  0
C  C62  1  0.87649400  0.22053659  0.64597913  1  0  0.261325  0  3.795806  0  0  0.249793  0  4.058597  0  0  0.265112  0  4.075988  0  0  0.120919  0.239623  0  4.046312  0
C  C63  1  0.62350454  0.77946114  0.14597910  1  0  0.26139  0  3.795849  0  0  0.249847  0  4.058617  0  0  0.265177  0  4.075989  0  0  0.120929  0.23967  0  4.046349  0
C  C64  1  0.36428343  0.33168616  0.25584265  1  0  -0.176931  0  3.729147  0  0  -0.156174  0  3.970378  0  0  -0.170199  0  3.991317  0  0  -0.020989  -0.147368  0  3.956637  0
C  C65  1  0.13572124  0.66831757  0.75584390  1  0  -0.176857  0  3.729139  0  0  -0.156014  0  3.970237  0  0  -0.170039  0  3.991181  0  0  -0.020946  -0.147206  0  3.956492  0
C  C66  1  0.86427611  0.16831436  0.74415554  1  0  -0.176804  0  3.729014  0  0  -0.156046  0  3.970182  0  0  -0.170066  0  3.991125  0  0  -0.020959  -0.147242  0  3.956436  0
C  C67  1  0.63571993  0.83168226  0.24415545  1  0  -0.176818  0  3.729139  0  0  -0.155992  0  3.970203  0  0  -0.170015  0  3.99115  0  0  -0.020876  -0.147185  0  3.956459  0
C  C68  1  0.46848515  0.42543188  0.22660048  1  0  -0.002051  0  3.735969  0  0  -0.030809  0  3.98475  0  0  -0.022779  0  3.999721  0  0  -0.064881  -0.035822  0  3.974494  0
C  C69  1  0.03151613  0.57456906  0.72660043  1  0  -0.002249  0  3.73594  0  0  -0.031032  0  3.984718  0  0  -0.023002  0  3.999691  0  0  -0.064967  -0.03604  0  3.974463  0
C  C70  1  0.96848162  0.07456928  0.77339912  1  0  -0.002169  0  3.735953  0  0  -0.030934  0  3.984756  0  0  -0.022904  0  3.999728  0  0  -0.064975  -0.035947  0  3.974503  0
C  C71  1  0.53151782  0.92543014  0.27339901  1  0  -0.002241  0  3.736089  0  0  -0.030993  0  3.98486  0  0  -0.022978  0  3.999826  0  0  -0.06501  -0.036  0  3.974608  0
C  C72  1  0.57834024  0.47071965  0.29320616  1  0  -0.154119  0  3.768271  0  0  -0.164003  0  4.021392  0  0  -0.172704  0  4.041629  0  0  -0.10278  -0.158308  0  4.007685  0
C  C73  1  0.92166607  0.52928163  0.79320807  1  0  -0.154067  0  3.768489  0  0  -0.163945  0  4.021579  0  0  -0.172639  0  4.041826  0  0  -0.102742  -0.158247  0  4.007873  0
C  C74  1  0.07833878  0.02928264  0.70679376  1  0  -0.154126  0  3.768519  0  0  -0.164024  0  4.021656  0  0  -0.172726  0  4.041893  0  0  -0.102772  -0.158329  0  4.00795  0
C  C75  1  0.42166483  0.97072023  0.20679180  1  0  -0.154101  0  3.768375  0  0  -0.163991  0  4.021467  0  0  -0.172682  0  4.04172  0  0  -0.102728  -0.158293  0  4.00776  0
C  C76  1  0.58185147  0.41726693  0.38791435  1  0  0.128076  0  3.775427  0  0  0.098521  0  4.025859  0  0  0.107715  0  4.041921  0  0  0.044994  0.092836  0  4.014534  0
C  C77  1  0.91815120  0.58273040  0.88791323  1  0  0.128082  0  3.775494  0  0  0.098556  0  4.025917  0  0  0.107753  0  4.041975  0  0  0.044981  0.09287  0  4.014599  0
C  C78  1  0.08185226  0.08273251  0.61208854  1  0  0.12804  0  3.775707  0  0  0.098483  0  4.026132  0  0  0.107678  0  4.042193  0  0  0.044957  0.092799  0  4.014806  0
C  C79  1  0.41815038  0.91726956  0.11208590  1  0  0.128065  0  3.775481  0  0  0.098516  0  4.02591  0  0  0.107711  0  4.041967  0  0  0.044963  0.092831  0  4.01459  0
C  C80  1  0.24055951  0.29517546  0.18476867  1  0  0.601801  0  3.81478  0  0  0.54986  0  4.111495  0  0  0.584499  0  4.102382  0  0  0.236701  0.526203  0  4.117622  0
C  C81  1  0.25943839  0.70482555  0.68476681  1  0  0.601768  0  3.814813  0  0  0.549832  0  4.111488  0  0  0.584466  0  4.102384  0  0  0.236655  0.526178  0  4.117615  0
C  C82  1  0.74054615  0.20482636  0.81523036  1  0  0.601929  0  3.814963  0  0  0.550064  0  4.111557  0  0  0.584698  0  4.102442  0  0  0.236819  0.526406  0  4.117685  0
C  C83  1  0.75944976  0.79516920  0.31523021  1  0  0.60206  0  3.814999  0  0  0.550133  0  4.11161  0  0  0.584766  0  4.102495  0  0  0.236868  0.526478  0  4.117736  0
C  C84  1  0.17723834  0.27144084  0.01200754  1  0  0.1557  0  3.585631  0  0  0.096968  0  3.86102  0  0  0.106949  0  3.86564  0  0  -0.067377  0.090175  0  3.857913  0
C  C85  1  0.32275989  0.72856329  0.51200709  1  0  0.155866  0  3.585488  0  0  0.09705  0  3.860975  0  0  0.107072  0  3.865561  0  0  -0.067378  0.090244  0  3.857885  0
C  C86  1  0.67723950  0.22855833  0.98799379  1  0  0.155601  0  3.585684  0  0  0.096869  0  3.861102  0  0  0.106851  0  3.86571  0  0  -0.067457  0.090076  0  3.857993  0
C  C87  1  0.82276068  0.77143979  0.48799286  1  0  0.155858  0  3.585591  0  0  0.097017  0  3.861061  0  0  0.107035  0  3.865657  0  0  -0.067399  0.090205  0  3.857971  0
C  C88  1  0.25682648  0.22969670  0.91758191  1  0  -0.324846  0  3.702254  0  0  -0.403998  0  3.947305  0  0  -0.406776  0  3.956125  0  0  -0.250368  -0.401779  0  3.941827  0
C  C89  1  0.24317213  0.77030582  0.41758030  1  0  -0.324768  0  3.70222  0  0  -0.403906  0  3.947288  0  0  -0.406655  0  3.956123  0  0  -0.250318  -0.40168  0  3.941809  0
C  C90  1  0.75682919  0.27030318  0.08241860  1  0  -0.324736  0  3.702181  0  0  -0.403915  0  3.947232  0  0  -0.406681  0  3.956062  0  0  -0.250349  -0.401698  0  3.941756  0
C  C91  1  0.74317061  0.72969561  0.58241897  1  0  -0.324774  0  3.702182  0  0  -0.403917  0  3.947265  0  0  -0.406683  0  3.956084  0  0  -0.250334  -0.40169  0  3.941792  0
C  C92  1  0.33443768  0.38658574  0.64374475  1  0  -0.616568  0  3.505314  0  0  -0.664827  0  3.752193  0  0  -0.679426  0  3.762106  0  0  -0.338075  -0.65471  0  3.745401  0
C  C93  1  0.16556145  0.61341249  0.14374411  1  0  -0.616498  0  3.505349  0  0  -0.664819  0  3.752194  0  0  -0.679417  0  3.762105  0  0  -0.338067  -0.654703  0  3.745405  0
C  C94  1  0.83443939  0.11341297  0.35625496  1  0  -0.616516  0  3.505351  0  0  -0.664838  0  3.752175  0  0  -0.679439  0  3.762083  0  0  -0.33806  -0.654726  0  3.745386  0
C  C95  1  0.66556105  0.88658631  0.85625448  1  0  -0.61654  0  3.505349  0  0  -0.664843  0  3.752223  0  0  -0.679441  0  3.762133  0  0  -0.33807  -0.654729  0  3.745433  0
C  C96  1  0.55420191  0.03377801  0.58321424  1  0  -0.628405  0  3.526743  0  0  -0.673286  0  3.775619  0  0  -0.687206  0  3.784016  0  0  -0.338492  -0.663568  0  3.770187  0
C  C97  1  0.94579559  0.96621983  0.08321376  1  0  -0.628371  0  3.526677  0  0  -0.67321  0  3.775564  0  0  -0.687143  0  3.783965  0  0  -0.338473  -0.663491  0  3.770132  0
C  C98  1  0.05420145  0.46622246  0.41678644  1  0  -0.628471  0  3.526693  0  0  -0.673313  0  3.775606  0  0  -0.687238  0  3.783977  0  0  -0.338529  -0.663594  0  3.770173  0
C  C99  1  0.44579716  0.53377817  0.91678534  1  0  -0.628404  0  3.526631  0  0  -0.673263  0  3.775546  0  0  -0.68718  0  3.783935  0  0  -0.338485  -0.663544  0  3.770115  0
S  S100  1  0.26454097  0.15714661  0.39934993  1  0  -0.515887  0  2.074419  0  0  -0.483561  0  2.410684  0  0  -0.504615  0  2.407944  0  0  -0.184033  -0.468386  0  2.412353  0
S  S101  1  0.23546112  0.84285404  0.89935168  1  0  -0.515868  0  2.074435  0  0  -0.48354  0  2.410693  0  0  -0.504595  0  2.407956  0  0  -0.184034  -0.468364  0  2.412364  0
S  S102  1  0.76454009  0.34285325  0.60064834  1  0  -0.515855  0  2.074441  0  0  -0.483536  0  2.41071  0  0  -0.504587  0  2.407979  0  0  -0.184037  -0.468365  0  2.412375  0
S  S103  1  0.73545968  0.65714456  0.10064835  1  0  -0.515904  0  2.07449  0  0  -0.483561  0  2.410724  0  0  -0.504616  0  2.407988  0  0  -0.184043  -0.468385  0  2.412394  0
N  N104  1  0.48692362  0.32438820  0.41671916  1  0  -0.379173  0  3.197804  0  0  -0.309017  0  3.451538  0  0  -0.328309  0  3.469556  0  0  -0.313872  -0.295803  0  3.438788  0
N  N105  1  0.01308074  0.67561053  0.91672051  1  0  -0.379127  0  3.197732  0  0  -0.308976  0  3.451449  0  0  -0.328268  0  3.469467  0  0  -0.313843  -0.295763  0  3.438707  0
N  N106  1  0.98692464  0.17561007  0.58328042  1  0  -0.379145  0  3.197813  0  0  -0.308992  0  3.451541  0  0  -0.328281  0  3.469565  0  0  -0.313869  -0.29578  0  3.438787  0
N  N107  1  0.51307862  0.82438966  0.08327969  1  0  -0.379173  0  3.197779  0  0  -0.309028  0  3.451508  0  0  -0.32832  0  3.469526  0  0  -0.313891  -0.295815  0  3.438765  0
O  O108  1  0.10526643  0.27577394  0.20679750  1  0  -0.542865  0  1.995959  0  0  -0.492483  0  2.22068  0  0  -0.514049  0  2.213634  0  0  -0.264573  -0.477693  0  2.225436  0
O  O109  1  0.39473948  0.72422514  0.70679551  1  0  -0.542896  0  1.995902  0  0  -0.492522  0  2.220617  0  0  -0.514089  0  2.213568  0  0  -0.264542  -0.477729  0  2.225371  0
O  O110  1  0.60527144  0.22422828  0.79320612  1  0  -0.542869  0  1.996471  0  0  -0.492528  0  2.221191  0  0  -0.514091  0  2.21414  0  0  -0.264574  -0.477742  0  2.225947  0
O  O111  1  0.89472221  0.77576448  0.29320662  1  0  -0.542918  0  1.996429  0  0  -0.49259  0  2.221188  0  0  -0.51415  0  2.214132  0  0  -0.264643  -0.477805  0  2.225944  0
O  O112  1  0.29352801  0.28978505  0.08983211  1  0  -0.335163  0  2.240738  0  0  -0.259067  0  2.476652  0  0  -0.281924  0  2.476042  0  0  -0.167788  -0.243245  0  2.476571  0
O  O113  1  0.20647123  0.71022463  0.58983177  1  0  -0.335157  0  2.240722  0  0  -0.259085  0  2.476711  0  0  -0.281942  0  2.476078  0  0  -0.167789  -0.243274  0  2.476649  0
O  O114  1  0.79352825  0.21021378  0.91016838  1  0  -0.33521  0  2.240693  0  0  -0.259151  0  2.476596  0  0  -0.282012  0  2.475989  0  0  -0.167831  -0.243331  0  2.47652  0
O  O115  1  0.70647093  0.78978352  0.41016902  1  0  -0.335342  0  2.240706  0  0  -0.259198  0  2.476619  0  0  -0.282057  0  2.475991  0  0  -0.16785  -0.243374  0  2.476545  0
