# generated using pymatgen
data_Zn2H12PdC14N2Cl2O11
_symmetry_space_group_name_H-M   'P 1'
_cell_length_a   12.90443472
_cell_length_b   15.04758340
_cell_length_c   22.81079014
_cell_angle_alpha   89.99986799
_cell_angle_beta   89.99939772
_cell_angle_gamma   90.00004699
_symmetry_Int_Tables_number   1
_chemical_formula_structural   Zn2H12PdC14N2Cl2O11
_chemical_formula_sum   'Zn8 H48 Pd4 C56 N8 Cl8 O44'
_cell_volume   4429.41194878
_cell_formula_units_Z   4
loop_
 _symmetry_equiv_pos_site_id
 _symmetry_equiv_pos_as_xyz
  1  'x, y, z'
loop_
 _atom_site_type_symbol
 _atom_site_label
 _atom_site_symmetry_multiplicity
 _atom_site_fract_x
 _atom_site_fract_y
 _atom_site_fract_z
 _atom_site_occupancy
 _atom_site_pbe_bader_charge
 _atom_site_pbe_bader_spin_density
 _atom_site_pbe_cm5_charge
 _atom_site_pbe_ddec_charge
 _atom_site_pbe_ddec_spin_density
 _atom_site_pbe_ddec_sum_bond_order
 _atom_site_pbe_magmom
Zn  Zn0  1  0.75624090  0.55753960  0.01730230  1  1.338337  0  0.68125  0.946912  0  2.237696  0
Zn  Zn1  1  0.25623845  0.05753673  0.48269883  1  1.338429  0  0.68125  0.946864  0  2.23762  0
Zn  Zn2  1  0.74375836  0.55754072  0.51730518  1  1.338246  0  0.681261  0.946912  0  2.237627  0
Zn  Zn3  1  0.24376134  0.05754316  0.98269338  1  1.337979  0  0.681267  0.946939  0  2.237613  0
Zn  Zn4  1  0.16770587  0.18019627  0.09641032  1  1.395085  0  0.683589  1.043358  0  2.150253  0
Zn  Zn5  1  0.66770268  0.68019513  0.40359203  1  1.39512  0  0.683629  1.043458  0  2.150159  0
Zn  Zn6  1  0.33229580  0.18019678  0.59641311  1  1.395003  0  0.683607  1.043394  0  2.150234  0
Zn  Zn7  1  0.83229338  0.68019764  0.90358693  1  1.395055  0  0.683626  1.043451  0  2.150108  0
H  H8  1  0.51052550  0.35907027  0.49244849  1  0.131892  0  0.118088  0.128031  0  0.985445  0
H  H9  1  0.01052307  0.85907215  0.00754794  1  0.131811  0  0.118074  0.128024  0  0.985454  0
H  H10  1  0.98948410  0.35907223  0.99244948  1  0.131891  0  0.118053  0.127988  0  0.98535  0
H  H11  1  0.48947702  0.85907145  0.50755331  1  0.131975  0  0.118082  0.127951  0  0.985476  0
H  H12  1  0.37702075  0.21637647  0.34689858  1  0.219063  0  0.11706  0.110052  0  1.013264  0
H  H13  1  0.87702299  0.71637820  0.15310027  1  0.219168  0  0.117068  0.110044  0  1.013334  0
H  H14  1  0.12297707  0.21638215  0.84689473  1  0.219154  0  0.117014  0.110039  0  1.013237  0
H  H15  1  0.62297311  0.71637790  0.65310344  1  0.219171  0  0.117049  0.110068  0  1.013257  0
H  H16  1  0.54189549  0.44870359  0.31394772  1  0.179561  0  0.108122  0.103064  0  1.033473  0
H  H17  1  0.04189361  0.94870485  0.18604926  1  0.179572  0  0.108139  0.103074  0  1.033515  0
H  H18  1  0.95810124  0.44871018  0.81394802  1  0.179421  0  0.108107  0.103026  0  1.033413  0
H  H19  1  0.45810401  0.94870944  0.68605526  1  0.179442  0  0.108102  0.102991  0  1.033396  0
H  H20  1  0.38226893  0.19680625  0.13980098  1  0.139636  0  0.112675  0.100602  0  1.052853  0
H  H21  1  0.88226654  0.69680726  0.36020051  1  0.139671  0  0.112647  0.100612  0  1.052841  0
H  H22  1  0.11772808  0.19680860  0.63980373  1  0.139549  0  0.11269  0.100557  0  1.05291  0
H  H23  1  0.61772414  0.69680762  0.86019888  1  0.139715  0  0.11267  0.100547  0  1.053009  0
H  H24  1  0.51089212  0.30508467  0.98075604  1  0.166883  0  0.12626  0.138361  0  0.967967  0
H  H25  1  0.01090575  0.80508452  0.51924266  1  0.166962  0  0.126238  0.138304  0  0.96801  0
H  H26  1  0.98909672  0.30507707  0.48075703  1  0.16689  0  0.126295  0.138431  0  0.9679  0
H  H27  1  0.48910570  0.80508556  0.01924541  1  0.166843  0  0.126274  0.13835  0  0.968005  0
H  H28  1  0.58446453  0.41093304  0.15118254  1  0.16423  0  0.11846  0.113454  0  1.000698  0
H  H29  1  0.08447124  0.91093041  0.34881293  1  0.169241  0  0.11843  0.113367  0  1.000762  0
H  H30  1  0.91552358  0.41092896  0.65118572  1  0.1693  0  0.118448  0.113385  0  1.000691  0
H  H31  1  0.41553262  0.91093564  0.84881698  1  0.164244  0  0.118444  0.113424  0  1.000651  0
H  H32  1  0.21713564  0.36135232  0.07884685  1  0.626399  0  0.341517  0.422781  0  0.845574  0
H  H33  1  0.71713522  0.86135178  0.42115404  1  0.625999  0  0.341539  0.422807  0  0.84552  0
H  H34  1  0.28286420  0.36135412  0.57884731  1  0.626395  0  0.341552  0.422881  0  0.845492  0
H  H35  1  0.78286456  0.86135160  0.92115319  1  0.626415  0  0.341537  0.422852  0  0.845506  0
H  H36  1  0.23804566  0.33817041  0.14500147  1  0.659704  0  0.325756  0.413193  0  0.879111  0
H  H37  1  0.73804337  0.83817011  0.35499934  1  0.659733  0  0.325714  0.413105  0  0.879043  0
H  H38  1  0.26195526  0.33817420  0.64500293  1  0.659669  0  0.325741  0.413213  0  0.879073  0
H  H39  1  0.76195375  0.83817589  0.85499773  1  0.659658  0  0.325746  0.413169  0  0.879123  0
H  H40  1  0.16692054  0.17608909  0.21577664  1  0.621585  0  0.335635  0.42642  0  0.843978  0
H  H41  1  0.66692111  0.67608970  0.28422440  1  0.621543  0  0.335638  0.426427  0  0.843991  0
H  H42  1  0.33307969  0.17608894  0.71578118  1  0.621492  0  0.335591  0.426467  0  0.843859  0
H  H43  1  0.83307794  0.67608889  0.78421974  1  0.621522  0  0.335589  0.42644  0  0.843965  0
H  H44  1  0.28874770  0.16614270  0.20913645  1  0.612737  0  0.271053  0.371335  0  0.967817  0
H  H45  1  0.78874816  0.66614328  0.29086301  1  0.612739  0  0.271092  0.371378  0  0.967779  0
H  H46  1  0.21125263  0.16614578  0.70913952  1  0.612981  0  0.271049  0.371401  0  0.967741  0
H  H47  1  0.71125076  0.66614571  0.79086258  1  0.612969  0  0.271063  0.371395  0  0.967762  0
H  H48  1  0.97813243  0.25375981  0.12861981  1  0.625944  0  0.344875  0.426962  0  0.839469  0
H  H49  1  0.47812943  0.75376042  0.37138102  1  0.625896  0  0.344878  0.426921  0  0.839513  0
H  H50  1  0.52187377  0.25376010  0.62861743  1  0.625852  0  0.344925  0.42695  0  0.839449  0
H  H51  1  0.02187309  0.75376005  0.87138084  1  0.625885  0  0.344942  0.426988  0  0.839468  0
H  H52  1  0.98631625  0.15224249  0.14352377  1  0.640135  0  0.330391  0.411091  0  0.874534  0
H  H53  1  0.48631585  0.65224382  0.35647716  1  0.640147  0  0.33039  0.411058  0  0.874475  0
H  H54  1  0.51368958  0.15224610  0.64352583  1  0.64021  0  0.330363  0.410947  0  0.874534  0
H  H55  1  0.01368685  0.65224544  0.85647177  1  0.639646  0  0.330389  0.411013  0  0.874482  0
Pd  Pd56  1  0.45662856  0.31572952  0.23733784  1  0.641354  0  0.663229  0.311672  0  3.289264  0
Pd  Pd57  1  0.95662954  0.81573020  0.26266083  1  0.641597  0  0.663236  0.311656  0  3.289339  0
Pd  Pd58  1  0.04336287  0.31573049  0.73733797  1  0.641533  0  0.663273  0.31172  0  3.289273  0
Pd  Pd59  1  0.54336695  0.81573184  0.76266578  1  0.641611  0  0.663238  0.311721  0  3.289229  0
C  C60  1  0.55887722  0.36350630  0.06298536  1  -0.026355  0  -0.001402  -0.045437  0  3.93757  0
C  C61  1  0.05888927  0.86350004  0.43701209  1  -0.026123  0  -0.001513  -0.045393  0  3.937246  0
C  C62  1  0.94111791  0.36350091  0.56298488  1  -0.025788  0  -0.001498  -0.045506  0  3.937733  0
C  C63  1  0.44112453  0.86350661  0.93701555  1  -0.026106  0  -0.001314  -0.045272  0  3.937896  0
C  C64  1  0.54450485  0.36310546  0.12360759  1  0.491923  0  0.052959  0.077895  0  3.831186  0
C  C65  1  0.04451648  0.86310074  0.37638775  1  0.486744  0  0.052899  0.077772  0  3.830837  0
C  C66  1  0.95548527  0.36310274  0.62360747  1  0.48648  0  0.052932  0.077895  0  3.831107  0
C  C67  1  0.45549147  0.86310666  0.87639508  1  0.491551  0  0.052877  0.077799  0  3.831267  0
C  C68  1  0.63013285  0.43094245  0.03606012  1  1.607705  0  0.192576  0.559208  0  4.25468  0
C  C69  1  0.13014130  0.93093742  0.46393549  1  1.606426  0  0.192478  0.558923  0  4.254337  0
C  C70  1  0.86986439  0.43094100  0.53605963  1  1.607408  0  0.192694  0.559308  0  4.254485  0
C  C71  1  0.36986664  0.93094395  0.96393981  1  1.607562  0  0.192542  0.559064  0  4.254826  0
C  C72  1  0.50302308  0.30400576  0.02833311  1  -0.010192  0  -0.040605  -0.046061  0  3.862968  0
C  C73  1  0.00303060  0.80400403  0.47166344  1  -0.010144  0  -0.040488  -0.045966  0  3.8628  0
C  C74  1  0.99697574  0.30400107  0.52833625  1  -0.010029  0  -0.040595  -0.046168  0  3.863151  0
C  C75  1  0.49697707  0.80400466  0.97166702  1  -0.010103  0  -0.040583  -0.046049  0  3.863081  0
C  C76  1  0.37343971  0.17845865  0.02277263  1  1.559775  0  0.210122  0.584691  0  4.178759  0
C  C77  1  0.87344134  0.67846125  0.47722631  1  1.559485  0  0.210175  0.58472  0  4.178833  0
C  C78  1  0.12656101  0.17845370  0.52277664  1  1.559735  0  0.210246  0.584882  0  4.178493  0
C  C79  1  0.62656032  0.67845630  0.97722857  1  1.559608  0  0.210164  0.584738  0  4.178524  0
C  C80  1  0.53325573  0.41386527  0.40586480  1  -0.032171  0  -0.008288  -0.067737  0  3.958697  0
C  C81  1  0.03325556  0.91386553  0.09413185  1  -0.032275  0  -0.00844  -0.0679  0  3.958698  0
C  C82  1  0.96674159  0.41386921  0.90586460  1  -0.032255  0  -0.008456  -0.067817  0  3.958442  0
C  C83  1  0.46674142  0.91386614  0.59413867  1  -0.032217  0  -0.008327  -0.067804  0  3.958757  0
C  C84  1  0.49503901  0.35175887  0.44578905  1  -0.015953  0  -0.048454  -0.047455  0  3.889894  0
C  C85  1  0.99503689  0.85176161  0.05420846  1  -0.016024  0  -0.048386  -0.047384  0  3.889822  0
C  C86  1  0.00496640  0.35176646  0.94578852  1  -0.015697  0  -0.048346  -0.047235  0  3.889464  0
C  C87  1  0.50496351  0.85176389  0.55421539  1  -0.01564  0  -0.0484  -0.047262  0  3.889727  0
C  C88  1  0.39044448  0.21331597  0.46616535  1  1.577533  0  0.222745  0.610834  0  4.185109  0
C  C89  1  0.89044352  0.71331746  0.03383519  1  1.577587  0  0.222794  0.610946  0  4.185009  0
C  C90  1  0.10956042  0.21331699  0.96616026  1  1.577595  0  0.222846  0.611075  0  4.184361  0
C  C91  1  0.60955558  0.71331316  0.53383931  1  1.577149  0  0.222852  0.611025  0  4.184488  0
C  C92  1  0.43650890  0.28064315  0.42499254  1  0.054443  0  -0.009869  -0.072937  0  3.950846  0
C  C93  1  0.93650640  0.78064715  0.07500543  1  0.054473  0  -0.009949  -0.073001  0  3.95069  0
C  C94  1  0.06349992  0.28065078  0.92499079  1  0.05455  0  -0.009841  -0.073063  0  3.950742  0
C  C95  1  0.56349354  0.78064614  0.57500894  1  0.054482  0  -0.009941  -0.073049  0  3.950863  0
C  C96  1  0.42877100  0.24558623  0.11699098  1  0.44596  0  0.039848  0.04923  0  3.906631  0
C  C97  1  0.92877362  0.74558716  0.38300796  1  0.445902  0  0.039889  0.04921  0  3.906542  0
C  C98  1  0.07122647  0.24558589  0.61699489  1  0.446215  0  0.039788  0.049249  0  3.906574  0
C  C99  1  0.57122211  0.74558616  0.88300880  1  0.446053  0  0.03993  0.049351  0  3.906475  0
C  C100  1  0.42009417  0.27232630  0.36466281  1  0.418752  0  0.059786  0.08978  0  3.826112  0
C  C101  1  0.92009210  0.77232942  0.13533570  1  0.419356  0  0.059845  0.089856  0  3.82611  0
C  C102  1  0.07990724  0.27233727  0.86466097  1  0.418802  0  0.059756  0.089734  0  3.826437  0
C  C103  1  0.57990362  0.77233175  0.63533956  1  0.418709  0  0.059777  0.089782  0  3.826346  0
C  C104  1  0.43681067  0.24388573  0.05614870  1  0.039021  0  -0.01263  -0.074664  0  3.993907  0
C  C105  1  0.93681215  0.74388711  0.44384932  1  0.039319  0  -0.012644  -0.074617  0  3.993814  0
C  C106  1  0.06319492  0.24388140  0.55615046  1  0.038962  0  -0.012608  -0.074663  0  3.993893  0
C  C107  1  0.56318787  0.74387880  0.94385196  1  0.039021  0  -0.012667  -0.07477  0  3.993876  0
C  C108  1  0.51366379  0.40171857  0.34641011  1  0.458591  0  0.047901  0.075063  0  3.846163  0
C  C109  1  0.01366251  0.90171928  0.15358755  1  0.458697  0  0.047938  0.075078  0  3.846181  0
C  C110  1  0.98633462  0.40172119  0.84641024  1  0.458664  0  0.047875  0.074993  0  3.846202  0
C  C111  1  0.48633490  0.90171990  0.65358987  1  0.458547  0  0.047887  0.075129  0  3.846308  0
C  C112  1  0.59557601  0.49208313  0.42644604  1  1.616714  0  0.227688  0.61832  0  4.177401  0
C  C113  1  0.09557623  0.99208346  0.07355100  1  1.616866  0  0.227742  0.618602  0  4.1772  0
C  C114  1  0.90442332  0.49208636  0.92644446  1  1.616734  0  0.227712  0.618347  0  4.177005  0
C  C115  1  0.40442431  0.99208469  0.57355512  1  1.616713  0  0.227625  0.618145  0  4.177296  0
N  N116  1  0.47926499  0.30546756  0.14999315  1  -1.192398  0  -0.364168  -0.118788  0  3.721568  0
N  N117  1  0.97927055  0.80546529  0.35000321  1  -1.192561  0  -0.364058  -0.118579  0  3.721384  0
N  N118  1  0.02072573  0.30546586  0.64999604  1  -1.192457  0  -0.364123  -0.118704  0  3.721458  0
N  N119  1  0.52072973  0.80546890  0.85000698  1  -1.192316  0  -0.364226  -0.118745  0  3.721369  0
N  N120  1  0.45892772  0.33152193  0.32615017  1  -1.175868  0  -0.353958  -0.11964  0  3.666963  0
N  N121  1  0.95892648  0.83152293  0.17384802  1  -1.176471  0  -0.354013  -0.1197  0  3.667058  0
N  N122  1  0.04106749  0.33152822  0.82614768  1  -1.176047  0  -0.353857  -0.119538  0  3.66723  0
N  N123  1  0.54106780  0.83152523  0.67385342  1  -1.175993  0  -0.353868  -0.11966  0  3.66714  0
Cl  Cl124  1  0.43111272  0.46648198  0.22409275  1  -0.515309  0  -0.371309  -0.446027  0  1.195311  0
Cl  Cl125  1  0.93111577  0.96648262  0.27590628  1  -0.515334  0  -0.371322  -0.446051  0  1.195323  0
Cl  Cl126  1  0.06887987  0.46648230  0.72408790  1  -0.51538  0  -0.371327  -0.446063  0  1.195324  0
Cl  Cl127  1  0.56888526  0.96648361  0.77591195  1  -0.515363  0  -0.371304  -0.446033  0  1.195297  0
Cl  Cl128  1  0.44733393  0.16155524  0.24557531  1  -0.520053  0  -0.321421  -0.416293  0  1.255995  0
Cl  Cl129  1  0.94733739  0.66155596  0.25442189  1  -0.520206  0  -0.321409  -0.416273  0  1.255985  0
Cl  Cl130  1  0.05265565  0.16155489  0.74557889  1  -0.520206  0  -0.321433  -0.416293  0  1.255922  0
Cl  Cl131  1  0.55266066  0.66155561  0.75442766  1  -0.520249  0  -0.321443  -0.416334  0  1.255934  0
O  O132  1  0.34430085  0.14850692  0.44217513  1  -1.150785  0  -0.301657  -0.524064  0  2.31949  0
O  O133  1  0.84430564  0.64850566  0.05782709  1  -1.150719  0  -0.301693  -0.524159  0  2.319456  0
O  O134  1  0.15569514  0.14850398  0.94216802  1  -1.150885  0  -0.301748  -0.52421  0  2.319325  0
O  O135  1  0.65569295  0.64850206  0.55783006  1  -1.150638  0  -0.301743  -0.524179  0  2.319271  0
O  O136  1  0.62985677  0.48724108  0.47819908  1  -1.17223  0  -0.303463  -0.535639  0  2.335616  0
O  O137  1  0.12985562  0.98724358  0.02179820  1  -1.172347  0  -0.303396  -0.535746  0  2.335738  0
O  O138  1  0.87014315  0.48724561  0.97819815  1  -1.172165  0  -0.303447  -0.535665  0  2.335541  0
O  O139  1  0.37014743  0.98724412  0.52180121  1  -1.172179  0  -0.303461  -0.535583  0  2.335584  0
O  O140  1  0.69234139  0.47125387  0.07191048  1  -1.144716  0  -0.336064  -0.553662  0  2.20886  0
O  O141  1  0.19235205  0.97125096  0.42808689  1  -1.143887  0  -0.335996  -0.553412  0  2.208591  0
O  O142  1  0.80765445  0.47125237  0.57190992  1  -1.14458  0  -0.336092  -0.553634  0  2.208805  0
O  O143  1  0.30766124  0.97125810  0.92808808  1  -1.144332  0  -0.336073  -0.553597  0  2.208833  0
O  O144  1  0.29700911  0.13933335  0.05135629  1  -1.180143  0  -0.330613  -0.622662  0  2.455532  0
O  O145  1  0.79701283  0.63933339  0.44864360  1  -1.180111  0  -0.330625  -0.622723  0  2.455501  0
O  O146  1  0.20299336  0.13932580  0.55136248  1  -1.180211  0  -0.330736  -0.622812  0  2.455422  0
O  O147  1  0.70299166  0.63932717  0.94864234  1  -1.1802  0  -0.330667  -0.622704  0  2.45524  0
O  O148  1  0.39200201  0.16079370  0.97074501  1  -1.128928  0  -0.290488  -0.485753  0  2.079646  0
O  O149  1  0.89200501  0.66079387  0.52925208  1  -1.128794  0  -0.2905  -0.485755  0  2.079838  0
O  O150  1  0.10799887  0.16077453  0.47075265  1  -1.128937  0  -0.29047  -0.485749  0  2.079581  0
O  O151  1  0.60800265  0.66078468  0.02925490  1  -1.128853  0  -0.290478  -0.485722  0  2.079615  0
O  O152  1  0.62574804  0.44594387  0.98219000  1  -1.15885  0  -0.325744  -0.535782  0  2.070285  0
O  O153  1  0.12575162  0.94594240  0.51780605  1  -1.158539  0  -0.325717  -0.53576  0  2.070134  0
O  O154  1  0.87425099  0.44594350  0.48218904  1  -1.158871  0  -0.325776  -0.535826  0  2.070276  0
O  O155  1  0.37425224  0.94594867  0.01780904  1  -1.158819  0  -0.325689  -0.535717  0  2.070416  0
O  O156  1  0.60714992  0.55614997  0.39020215  1  -1.189251  0  -0.319231  -0.587623  0  2.322954  0
O  O157  1  0.10714899  0.05614840  0.10979549  1  -1.189295  0  -0.319232  -0.587656  0  2.322829  0
O  O158  1  0.89284317  0.55614986  0.89019757  1  -1.189417  0  -0.319179  -0.587551  0  2.322708  0
O  O159  1  0.39284844  0.05614962  0.60980143  1  -1.18938  0  -0.319154  -0.58746  0  2.322769  0
O  O160  1  0.40159441  0.22850902  0.52087099  1  -1.17208  0  -0.327865  -0.603439  0  2.318934  0
O  O161  1  0.90158671  0.72851227  0.97912901  1  -1.172084  0  -0.32786  -0.603481  0  2.318941  0
O  O162  1  0.09842267  0.22851576  0.02086817  1  -1.172092  0  -0.327882  -0.603528  0  2.318757  0
O  O163  1  0.59841264  0.72851038  0.47913101  1  -1.171908  0  -0.327879  -0.603526  0  2.318782  0
O  O164  1  0.22422900  0.18466196  0.18866824  1  -1.215943  0  -0.566263  -0.761049  0  2.107288  0
O  O165  1  0.72422984  0.68466381  0.31133245  1  -1.215912  0  -0.566289  -0.761095  0  2.107208  0
O  O166  1  0.27577251  0.18467107  0.68867356  1  -1.216055  0  -0.56618  -0.761153  0  2.107031  0
O  O167  1  0.77577026  0.68466827  0.81132856  1  -1.216143  0  -0.566214  -0.761154  0  2.107223  0
O  O168  1  0.19538311  0.32334349  0.11104794  1  -1.229853  0  -0.550082  -0.739556  0  2.075991  0
O  O169  1  0.69538097  0.82334374  0.38895315  1  -1.229506  0  -0.550054  -0.739489  0  2.075842  0
O  O170  1  0.30461377  0.32334332  0.61104783  1  -1.229851  0  -0.550084  -0.739684  0  2.075918  0
O  O171  1  0.80461395  0.82334423  0.88895085  1  -1.229854  0  -0.550073  -0.739592  0  2.07595  0
O  O172  1  0.02232052  0.20911306  0.14674743  1  -1.201904  0  -0.548087  -0.728098  0  2.031957  0
O  O173  1  0.52231903  0.70911609  0.35325310  1  -1.201854  0  -0.548093  -0.728036  0  2.031913  0
O  O174  1  0.47768877  0.20911966  0.64675287  1  -1.201922  0  -0.54812  -0.72795  0  2.031861  0
O  O175  1  0.97768574  0.70911937  0.85324802  1  -1.201389  0  -0.548156  -0.728065  0  2.031898  0
