# generated using pymatgen
data_CdH10C20Br4(NO)4
_symmetry_space_group_name_H-M   'P 1'
_cell_length_a   7.95737382
_cell_length_b   7.95743402
_cell_length_c   18.71251295
_cell_angle_alpha   86.87958810
_cell_angle_beta   86.87937820
_cell_angle_gamma   74.63345196
_symmetry_Int_Tables_number   1
_chemical_formula_structural   CdH10C20Br4(NO)4
_chemical_formula_sum   'Cd2 H20 C40 Br8 N8 O8'
_cell_volume   1139.84276251
_cell_formula_units_Z   2
loop_
 _symmetry_equiv_pos_site_id
 _symmetry_equiv_pos_as_xyz
  1  'x, y, z'
loop_
 _atom_site_type_symbol
 _atom_site_label
 _atom_site_symmetry_multiplicity
 _atom_site_fract_x
 _atom_site_fract_y
 _atom_site_fract_z
 _atom_site_occupancy
 _atom_site_hle17_bader_spin_density
 _atom_site_hle17_ddec_charge
 _atom_site_hle17_ddec_spin_density
 _atom_site_hle17_ddec_sum_bond_order
 _atom_site_hle17_magmom
 _atom_site_hse06_10hf_bader_spin_density
 _atom_site_hse06_10hf_ddec_charge
 _atom_site_hse06_10hf_ddec_spin_density
 _atom_site_hse06_10hf_ddec_sum_bond_order
 _atom_site_hse06_10hf_magmom
 _atom_site_hse06_bader_spin_density
 _atom_site_hse06_ddec_charge
 _atom_site_hse06_ddec_spin_density
 _atom_site_hse06_ddec_sum_bond_order
 _atom_site_hse06_magmom
 _atom_site_pbe_bader_spin_density
 _atom_site_pbe_cm5_charge
 _atom_site_pbe_ddec_charge
 _atom_site_pbe_ddec_spin_density
 _atom_site_pbe_ddec_sum_bond_order
 _atom_site_pbe_magmom
Cd  Cd0  1  0.66806765  0.33194022  0.74999988  1  0  1.104884  0  1.680103  0  0  0.918645  0  2.11786  0  0  0.975439  0  2.069122  0  0  0.777686  0.878744  0  2.150703  0
Cd  Cd1  1  0.33192720  0.66806915  0.24999888  1  0  1.104888  0  1.680107  0  0  0.918658  0  2.117884  0  0  0.97544  0  2.069158  0  0  0.77768  0.878775  0  2.150712  0
H  H2  1  0.66166328  0.56786176  0.60378970  1  0  0.07839  0  0.99583  0  0  0.080236  0  1.077721  0  0  0.083255  0  1.073519  0  0  0.116229  0.078002  0  1.080715  0
H  H3  1  0.43214249  0.33831716  0.89620731  1  0  0.07841  0  0.995727  0  0  0.080247  0  1.077661  0  0  0.083266  0  1.073463  0  0  0.116264  0.07801  0  1.080651  0
H  H4  1  0.33833529  0.43214758  0.39620522  1  0  0.078399  0  0.995764  0  0  0.080246  0  1.077664  0  0  0.083264  0  1.073464  0  0  0.116262  0.078012  0  1.080651  0
H  H5  1  0.56785441  0.66166609  0.10379316  1  0  0.078385  0  0.995806  0  0  0.080226  0  1.077719  0  0  0.083244  0  1.07352  0  0  0.116223  0.077993  0  1.08071  0
H  H6  1  0.76014415  0.75040760  0.51668616  1  0  0.097824  0  0.968293  0  0  0.106784  0  1.033524  0  0  0.10904  0  1.03309  0  0  0.097632  0.105125  0  1.033984  0
H  H7  1  0.24960424  0.23984414  0.98331103  1  0  0.097836  0  0.968324  0  0  0.10682  0  1.033513  0  0  0.109075  0  1.03308  0  0  0.09762  0.105158  0  1.03397  0
H  H8  1  0.23985668  0.24961228  0.48331270  1  0  0.097835  0  0.96832  0  0  0.106803  0  1.03354  0  0  0.109059  0  1.033105  0  0  0.097614  0.105142  0  1.034  0
H  H9  1  0.75040126  0.76013527  0.01668985  1  0  0.097785  0  0.968358  0  0  0.106779  0  1.033526  0  0  0.109033  0  1.033097  0  0  0.09763  0.105121  0  1.033986  0
H  H10  1  0.29880007  0.11089652  0.60397847  1  0  0.11695  0  0.934728  0  0  0.127555  0  0.994566  0  0  0.13097  0  0.992302  0  0  0.108945  0.125089  0  0.996262  0
H  H11  1  0.88911329  0.70118818  0.89602346  1  0  0.116964  0  0.934794  0  0  0.127593  0  0.994588  0  0  0.131007  0  0.992323  0  0  0.108973  0.125129  0  0.996282  0
H  H12  1  0.70119876  0.88911680  0.39602062  1  0  0.116934  0  0.934774  0  0  0.127586  0  0.994562  0  0  0.131001  0  0.992298  0  0  0.108952  0.12512  0  0.996256  0
H  H13  1  0.11089586  0.29879652  0.10397932  1  0  0.116927  0  0.934791  0  0  0.127532  0  0.994634  0  0  0.130948  0  0.992371  0  0  0.108913  0.125066  0  0.996328  0
H  H14  1  0.48942990  0.04640769  0.70856091  1  0  0.126285  0  0.958152  0  0  0.135673  0  1.01958  0  0  0.138718  0  1.017389  0  0  0.123672  0.133483  0  1.021208  0
H  H15  1  0.95359161  0.51057394  0.79143911  1  0  0.126284  0  0.958131  0  0  0.135664  0  1.019582  0  0  0.138709  0  1.01739  0  0  0.123676  0.133472  0  1.021207  0
H  H16  1  0.51056761  0.95359646  0.29143738  1  0  0.12624  0  0.958188  0  0  0.135632  0  1.019617  0  0  0.138676  0  1.017425  0  0  0.123662  0.13344  0  1.021245  0
H  H17  1  0.04640539  0.48942762  0.20856141  1  0  0.126278  0  0.958186  0  0  0.135671  0  1.019608  0  0  0.138715  0  1.017417  0  0  0.123655  0.133478  0  1.021236  0
H  H18  1  0.58047112  0.77491596  0.80968744  1  0  0.106988  0  0.951743  0  0  0.11536  0  1.013341  0  0  0.118401  0  1.010968  0  0  0.11221  0.11315  0  1.015155  0
H  H19  1  0.22508030  0.41953157  0.69031045  1  0  0.107015  0  0.95166  0  0  0.115358  0  1.013307  0  0  0.118399  0  1.010934  0  0  0.112196  0.113147  0  1.015117  0
H  H20  1  0.41952506  0.22507900  0.19030900  1  0  0.106969  0  0.951662  0  0  0.115319  0  1.013294  0  0  0.11836  0  1.010919  0  0  0.112175  0.113111  0  1.01511  0
H  H21  1  0.77491528  0.58047520  0.30968943  1  0  0.10701  0  0.951649  0  0  0.115373  0  1.013252  0  0  0.118415  0  1.010876  0  0  0.112203  0.113168  0  1.015061  0
C  C22  1  0.92192196  0.09699628  0.55972908  1  0  -0.088448  0  3.724055  0  0  -0.082069  0  3.971184  0  0  -0.084746  0  3.988051  0  0  -0.019904  -0.080816  0  3.960446  0
C  C23  1  0.90300237  0.07808672  0.94027218  1  0  -0.088374  0  3.723978  0  0  -0.081924  0  3.971142  0  0  -0.084596  0  3.988007  0  0  -0.019962  -0.080684  0  3.960424  0
C  C24  1  0.07809375  0.90301071  0.44027347  1  0  -0.088338  0  3.72375  0  0  -0.081982  0  3.970939  0  0  -0.084618  0  3.987747  0  0  -0.019953  -0.080744  0  3.960213  0
C  C25  1  0.09698473  0.92190953  0.05972873  1  0  -0.088383  0  3.72398  0  0  -0.08212  0  3.971201  0  0  -0.084735  0  3.987967  0  0  -0.020022  -0.080888  0  3.960498  0
C  C26  1  0.63011531  0.65889125  0.64665413  1  0  0.164355  0  3.677839  0  0  0.10215  0  3.948132  0  0  0.116251  0  3.960816  0  0  0.132292  0.093124  0  3.939145  0
C  C27  1  0.34110762  0.36986918  0.85334246  1  0  0.164337  0  3.677768  0  0  0.102123  0  3.948046  0  0  0.116221  0  3.96073  0  0  0.132223  0.093103  0  3.939057  0
C  C28  1  0.36988251  0.34111155  0.35334099  1  0  0.164373  0  3.677713  0  0  0.102176  0  3.947989  0  0  0.116277  0  3.960672  0  0  0.132292  0.093156  0  3.938997  0
C  C29  1  0.65888875  0.63012059  0.14665678  1  0  0.164228  0  3.677827  0  0  0.102015  0  3.948133  0  0  0.116114  0  3.960819  0  0  0.132259  0.092988  0  3.939151  0
C  C30  1  0.64419845  0.85774113  0.50899136  1  0  -0.133217  0  3.739782  0  0  -0.154174  0  3.994168  0  0  -0.158621  0  4.017568  0  0  -0.092592  -0.151137  0  3.978462  0
C  C31  1  0.14226439  0.35579160  0.99100823  1  0  -0.133424  0  3.739754  0  0  -0.154318  0  3.994273  0  0  -0.158765  0  4.017678  0  0  -0.09264  -0.151271  0  3.978561  0
C  C32  1  0.35580504  0.14227353  0.49100703  1  0  -0.133336  0  3.73968  0  0  -0.154225  0  3.994168  0  0  -0.158672  0  4.01757  0  0  -0.092553  -0.151174  0  3.978433  0
C  C33  1  0.85773646  0.64418648  0.00899441  1  0  -0.133171  0  3.739867  0  0  -0.15413  0  3.99427  0  0  -0.158577  0  4.01767  0  0  -0.092554  -0.151098  0  3.978569  0
C  C34  1  0.02549711  0.92542220  0.56916916  1  0  0.025512  0  3.699658  0  0  0.024019  0  3.979089  0  0  0.027333  0  3.998463  0  0  -0.023605  0.021691  0  3.966308  0
C  C35  1  0.07457472  0.97450913  0.93083390  1  0  0.025494  0  3.699705  0  0  0.023971  0  3.979169  0  0  0.027282  0  3.998546  0  0  -0.023597  0.021635  0  3.966404  0
C  C36  1  0.97452110  0.07458479  0.43083225  1  0  0.025514  0  3.699723  0  0  0.024052  0  3.979146  0  0  0.027353  0  3.998511  0  0  -0.023637  0.021725  0  3.966368  0
C  C37  1  0.92541408  0.02549503  0.06916997  1  0  0.02538  0  3.699762  0  0  0.023975  0  3.979175  0  0  0.027267  0  3.998537  0  0  -0.02365  0.021649  0  3.966407  0
C  C38  1  0.53307071  0.92084522  0.56763322  1  0  0.184636  0  3.763317  0  0  0.17528  0  4.013392  0  0  0.180613  0  4.035303  0  0  0.094546  0.171596  0  3.998667  0
C  C39  1  0.07916044  0.46691667  0.93236496  1  0  0.184943  0  3.763165  0  0  0.175283  0  4.013663  0  0  0.180613  0  4.035574  0  0  0.094524  0.171604  0  3.998928  0
C  C40  1  0.46692935  0.07916809  0.43236423  1  0  0.18472  0  3.763376  0  0  0.175068  0  4.0139  0  0  0.180398  0  4.035816  0  0  0.094468  0.171387  0  3.999168  0
C  C41  1  0.92084128  0.53306270  0.06763549  1  0  0.184515  0  3.763806  0  0  0.175109  0  4.013961  0  0  0.180441  0  4.035876  0  0  0.094555  0.171433  0  3.999225  0
C  C42  1  0.38864669  0.06388397  0.55887267  1  0  -0.111174  0  3.710039  0  0  -0.132826  0  3.962915  0  0  -0.135189  0  3.982264  0  0  -0.084783  -0.131193  0  3.949914  0
C  C43  1  0.93612321  0.61134447  0.94112596  1  0  -0.111262  0  3.709991  0  0  -0.132853  0  3.962994  0  0  -0.13522  0  3.982351  0  0  -0.084805  -0.13122  0  3.949988  0
C  C44  1  0.61135464  0.93612936  0.44112582  1  0  -0.111205  0  3.710182  0  0  -0.132865  0  3.963245  0  0  -0.135234  0  3.982606  0  0  -0.084778  -0.13123  0  3.950232  0
C  C45  1  0.06388228  0.38863493  0.05887385  1  0  -0.111154  0  3.71034  0  0  -0.132835  0  3.963308  0  0  -0.135193  0  3.982643  0  0  -0.084756  -0.131202  0  3.950297  0
C  C46  1  0.89610754  0.16992063  0.49013970  1  0  0.034086  0  3.692249  0  0  0.033643  0  3.968214  0  0  0.037114  0  3.987597  0  0  -0.021724  0.03119  0  3.955437  0
C  C47  1  0.83007418  0.10391382  0.00986207  1  0  0.034136  0  3.691998  0  0  0.033658  0  3.968014  0  0  0.03713  0  3.987389  0  0  -0.021644  0.031205  0  3.955252  0
C  C48  1  0.10391728  0.83007598  0.50986342  1  0  0.03401  0  3.692038  0  0  0.033586  0  3.968054  0  0  0.03704  0  3.987434  0  0  -0.021704  0.031134  0  3.955285  0
C  C49  1  0.16991348  0.89608505  0.99013930  1  0  0.034105  0  3.692128  0  0  0.033716  0  3.968127  0  0  0.03716  0  3.987505  0  0  -0.021671  0.031277  0  3.95535  0
C  C50  1  0.84501579  0.19806700  0.62521675  1  0  0.630999  0  4.002346  0  0  0.581227  0  4.300482  0  0  0.615308  0  4.293467  0  0  0.176941  0.558169  0  4.304354  0
C  C51  1  0.80193309  0.15498987  0.87478413  1  0  0.630906  0  4.002581  0  0  0.580964  0  4.300976  0  0  0.615042  0  4.293968  0  0  0.176838  0.557917  0  4.304831  0
C  C52  1  0.15500024  0.80193864  0.37478315  1  0  0.631056  0  4.002474  0  0  0.581246  0  4.300692  0  0  0.615315  0  4.293691  0  0  0.177073  0.558198  0  4.304545  0
C  C53  1  0.19804896  0.84499720  0.12521823  1  0  0.6309  0  4.00279  0  0  0.581205  0  4.300828  0  0  0.615291  0  4.293792  0  0  0.177015  0.558145  0  4.304699  0
C  C54  1  0.53428092  0.90719374  0.70259887  1  0  -0.037025  0  3.638252  0  0  -0.081478  0  3.902888  0  0  -0.078843  0  3.919134  0  0  0.002688  -0.083263  0  3.892104  0
C  C55  1  0.09280704  0.46571520  0.79739973  1  0  -0.037067  0  3.638205  0  0  -0.081508  0  3.902804  0  0  -0.078873  0  3.919047  0  0  0.002638  -0.083306  0  3.892043  0
C  C56  1  0.46571819  0.09280910  0.29739835  1  0  -0.036938  0  3.638228  0  0  -0.08139  0  3.902833  0  0  -0.078757  0  3.919082  0  0  0.002748  -0.083164  0  3.892035  0
C  C57  1  0.90719241  0.53427722  0.20260043  1  0  -0.037055  0  3.638196  0  0  -0.081509  0  3.902825  0  0  -0.078876  0  3.919074  0  0  0.002752  -0.083291  0  3.892043  0
C  C58  1  0.58198489  0.77090974  0.75185887  1  0  0.012638  0  3.74043  0  0  -0.020726  0  4.007939  0  0  -0.018473  0  4.026794  0  0  -0.006204  -0.022266  0  3.995255  0
C  C59  1  0.22908935  0.41801280  0.74813908  1  0  0.01262  0  3.740494  0  0  -0.020737  0  4.007985  0  0  -0.018483  0  4.02684  0  0  -0.00622  -0.022275  0  3.995289  0
C  C60  1  0.41801365  0.22909047  0.24813790  1  0  0.012621  0  3.740457  0  0  -0.020719  0  4.007955  0  0  -0.018465  0  4.026812  0  0  -0.006223  -0.022267  0  3.995282  0
C  C61  1  0.77090674  0.58198745  0.25186150  1  0  0.012547  0  3.740464  0  0  -0.020803  0  4.007973  0  0  -0.018549  0  4.02683  0  0  -0.006272  -0.022348  0  3.995289  0
Br  Br62  1  0.05518669  0.82489809  0.66341349  1  0  -0.007593  0  1.388678  0  0  -0.002854  0  1.667704  0  0  -0.005692  0  1.661454  0  0  0.070516  -0.000983  0  1.672331  0
Br  Br63  1  0.17510537  0.94484591  0.83659022  1  0  -0.007552  0  1.388605  0  0  -0.002832  0  1.667667  0  0  -0.00567  0  1.661419  0  0  0.070546  -0.00095  0  1.672296  0
Br  Br64  1  0.94483190  0.17510761  0.33658956  1  0  -0.007502  0  1.388678  0  0  -0.002797  0  1.667733  0  0  -0.005637  0  1.661487  0  0  0.070592  -0.000924  0  1.67236  0
Br  Br65  1  0.82488625  0.05518961  0.16341114  1  0  -0.00749  0  1.38887  0  0  -0.002795  0  1.667905  0  0  -0.005637  0  1.661662  0  0  0.070575  -0.000915  0  1.672533  0
Br  Br66  1  0.74922925  0.39938628  0.47642450  1  0  -0.022158  0  1.363925  0  0  -0.015048  0  1.635369  0  0  -0.016844  0  1.625958  0  0  0.069264  -0.013839  0  1.642116  0
Br  Br67  1  0.60061042  0.25079341  0.02357958  1  0  -0.022162  0  1.363936  0  0  -0.015043  0  1.635402  0  0  -0.01684  0  1.62599  0  0  0.069246  -0.013817  0  1.64213  0
Br  Br68  1  0.25078132  0.60061680  0.52358310  1  0  -0.022085  0  1.364003  0  0  -0.014978  0  1.635471  0  0  -0.016773  0  1.626057  0  0  0.06927  -0.013755  0  1.642197  0
Br  Br69  1  0.39938086  0.74921073  0.97642209  1  0  -0.022126  0  1.363902  0  0  -0.015033  0  1.635346  0  0  -0.016829  0  1.62594  0  0  0.069272  -0.013813  0  1.642075  0
N  N70  1  0.64085728  0.61690924  0.71622362  1  0  -0.399296  0  3.274375  0  0  -0.320496  0  3.554788  0  0  -0.342328  0  3.572461  0  0  -0.364981  -0.305554  0  3.542206  0
N  N71  1  0.38309357  0.35913125  0.78377218  1  0  -0.399304  0  3.274239  0  0  -0.320496  0  3.554656  0  0  -0.342328  0  3.572328  0  0  -0.364936  -0.305556  0  3.542075  0
N  N72  1  0.35913855  0.38309613  0.28376987  1  0  -0.399435  0  3.274424  0  0  -0.320645  0  3.554872  0  0  -0.342478  0  3.572544  0  0  -0.365046  -0.305707  0  3.542299  0
N  N73  1  0.61690607  0.64086508  0.21622680  1  0  -0.399209  0  3.274433  0  0  -0.320405  0  3.554842  0  0  -0.342237  0  3.572521  0  0  -0.36493  -0.305464  0  3.542266  0
N  N74  1  0.56592938  0.83447734  0.63585555  1  0  -0.09227  0  3.610963  0  0  -0.003887  0  3.823677  0  0  -0.018935  0  3.849568  0  0  -0.22349  0.006113  0  3.806041  0
N  N75  1  0.16552580  0.43405742  0.86414370  1  0  -0.092303  0  3.611163  0  0  -0.003813  0  3.823894  0  0  -0.018859  0  3.849783  0  0  -0.223399  0.006183  0  3.806256  0
N  N76  1  0.43406796  0.16553202  0.36414155  1  0  -0.092163  0  3.611081  0  0  -0.003688  0  3.823825  0  0  -0.018738  0  3.849729  0  0  -0.223419  0.006308  0  3.806186  0
N  N77  1  0.83447291  0.56592847  0.13585718  1  0  -0.092034  0  3.611087  0  0  -0.003632  0  3.823785  0  0  -0.01868  0  3.849683  0  0  -0.223485  0.006366  0  3.806142  0
O  O78  1  0.94244194  0.26292630  0.65932124  1  0  -0.609253  0  1.900882  0  0  -0.560932  0  2.125671  0  0  -0.587579  0  2.118228  0  0  -0.324028  -0.541975  0  2.129913  0
O  O79  1  0.73708327  0.05756427  0.84067775  1  0  -0.609194  0  1.900889  0  0  -0.560812  0  2.12574  0  0  -0.587457  0  2.1183  0  0  -0.323951  -0.54186  0  2.129978  0
O  O80  1  0.05756729  0.73709491  0.34067469  1  0  -0.609327  0  1.900835  0  0  -0.560977  0  2.125615  0  0  -0.587627  0  2.118181  0  0  -0.324074  -0.542025  0  2.129851  0
O  O81  1  0.26288687  0.94242541  0.15933127  1  0  -0.609225  0  1.900977  0  0  -0.560882  0  2.125639  0  0  -0.587539  0  2.118197  0  0  -0.324042  -0.541926  0  2.12988  0
O  O82  1  0.68511652  0.20592640  0.64237163  1  0  -0.630742  0  1.981154  0  0  -0.566771  0  2.227529  0  0  -0.59748  0  2.219417  0  0  -0.332507  -0.545098  0  2.23201  0
O  O83  1  0.79406886  0.31488943  0.85763056  1  0  -0.630713  0  1.981303  0  0  -0.5667  0  2.227784  0  0  -0.597412  0  2.219685  0  0  -0.332459  -0.545025  0  2.232253  0
O  O84  1  0.31490201  0.79407014  0.35763058  1  0  -0.6307  0  1.981187  0  0  -0.56675  0  2.227648  0  0  -0.597439  0  2.21951  0  0  -0.332509  -0.545096  0  2.232154  0
O  O85  1  0.20592547  0.68509374  0.14236624  1  0  -0.630702  0  1.981304  0  0  -0.566771  0  2.227681  0  0  -0.597472  0  2.219533  0  0  -0.332497  -0.545107  0  2.232186  0
