# generated using pymatgen
data_ZnMoH18C18(N3O2)2
_symmetry_space_group_name_H-M   'P 1'
_cell_length_a   9.01801787
_cell_length_b   11.71476289
_cell_length_c   11.71474771
_cell_angle_alpha   119.99993990
_cell_angle_beta   89.99990489
_cell_angle_gamma   90.00002788
_symmetry_Int_Tables_number   1
_chemical_formula_structural   ZnMoH18C18(N3O2)2
_chemical_formula_sum   'Zn2 Mo2 H36 C36 N12 O8'
_cell_volume   1071.78686193
_cell_formula_units_Z   2
loop_
 _symmetry_equiv_pos_site_id
 _symmetry_equiv_pos_as_xyz
  1  'x, y, z'
loop_
 _atom_site_type_symbol
 _atom_site_label
 _atom_site_symmetry_multiplicity
 _atom_site_fract_x
 _atom_site_fract_y
 _atom_site_fract_z
 _atom_site_occupancy
 _atom_site_hle17_bader_spin_density
 _atom_site_hle17_ddec_charge
 _atom_site_hle17_ddec_spin_density
 _atom_site_hle17_ddec_sum_bond_order
 _atom_site_hle17_magmom
 _atom_site_hse06_10hf_bader_spin_density
 _atom_site_hse06_10hf_ddec_charge
 _atom_site_hse06_10hf_ddec_spin_density
 _atom_site_hse06_10hf_ddec_sum_bond_order
 _atom_site_hse06_10hf_magmom
 _atom_site_hse06_bader_spin_density
 _atom_site_hse06_ddec_charge
 _atom_site_hse06_ddec_spin_density
 _atom_site_hse06_ddec_sum_bond_order
 _atom_site_hse06_magmom
 _atom_site_pbe_bader_spin_density
 _atom_site_pbe_cm5_charge
 _atom_site_pbe_ddec_charge
 _atom_site_pbe_ddec_spin_density
 _atom_site_pbe_ddec_sum_bond_order
 _atom_site_pbe_magmom
Zn  Zn0  1  0.99436535  0.33333476  0.66666893  1  0  0.994084  0  2.044836  0  0  0.814139  0  2.537479  0  0  0.85431  0  2.48806  0  0  0.71426  0.786782  0  2.570615  0
Zn  Zn1  1  0.00563524  0.66666513  0.33333077  1  0  0.994119  0  2.044845  0  0  0.814152  0  2.537491  0  0  0.854321  0  2.488073  0  0  0.714267  0.786794  0  2.570627  0
Mo  Mo2  1  0.58233135  0.33333287  0.66666654  1  0  2.080578  0  4.465423  0  0  2.049842  0  5.095519  0  0  2.152778  0  5.0503  0  0  1.407531  1.981233  0  5.124347  0
Mo  Mo3  1  0.41766924  0.66666703  0.33333316  1  0  2.080635  0  4.465361  0  0  2.049915  0  5.095429  0  0  2.152849  0  5.050213  0  0  1.407615  1.981305  0  5.124257  0
H  H4  1  0.85125750  0.56758641  0.64305171  1  0  0.113977  0  0.935899  0  0  0.124537  0  0.99169  0  0  0.127232  0  0.990201  0  0  0.124965  0.122558  0  0.992906  0
H  H5  1  0.85125824  0.35694866  0.92453761  1  0  0.113977  0  0.935916  0  0  0.124528  0  0.991706  0  0  0.127223  0  0.990216  0  0  0.124962  0.122552  0  0.992918  0
H  H6  1  0.85125868  0.07546535  0.43241582  1  0  0.114008  0  0.935903  0  0  0.124591  0  0.991666  0  0  0.127286  0  0.990176  0  0  0.125002  0.122612  0  0.99288  0
H  H7  1  0.14874308  0.43241250  0.35695006  1  0  0.114005  0  0.935911  0  0  0.124563  0  0.991706  0  0  0.127258  0  0.990214  0  0  0.124972  0.122586  0  0.992917  0
H  H8  1  0.14873791  0.64305024  0.07546160  1  0  0.113981  0  0.935954  0  0  0.124545  0  0.991724  0  0  0.127239  0  0.990236  0  0  0.124972  0.122569  0  0.992934  0
H  H9  1  0.14873858  0.92453454  0.56758558  1  0  0.113987  0  0.935982  0  0  0.124595  0  0.991718  0  0  0.12729  0  0.990226  0  0  0.124993  0.122616  0  0.992933  0
H  H10  1  0.01955812  0.79019631  0.69715149  1  0  0.107625  0  1.005342  0  0  0.113943  0  1.073685  0  0  0.115801  0  1.074568  0  0  0.116326  0.112574  0  1.073168  0
H  H11  1  0.01956305  0.30284798  0.09304624  1  0  0.107678  0  1.005277  0  0  0.113991  0  1.073637  0  0  0.115824  0  1.074549  0  0  0.116349  0.11264  0  1.073101  0
H  H12  1  0.01956090  0.90695602  0.20980639  1  0  0.107632  0  1.005384  0  0  0.113958  0  1.073709  0  0  0.115819  0  1.074587  0  0  0.116339  0.112585  0  1.0732  0
H  H13  1  0.98044136  0.20980260  0.30284857  1  0  0.107666  0  1.005262  0  0  0.113971  0  1.073633  0  0  0.115807  0  1.074535  0  0  0.116342  0.112632  0  1.073085  0
H  H14  1  0.98043975  0.69715487  0.90695579  1  0  0.107651  0  1.005331  0  0  0.113959  0  1.073692  0  0  0.115793  0  1.074602  0  0  0.116354  0.112611  0  1.073155  0
H  H15  1  0.98044190  0.09304387  0.79019331  1  0  0.107631  0  1.005368  0  0  0.113931  0  1.073727  0  0  0.115791  0  1.074611  0  0  0.116322  0.112561  0  1.07321  0
H  H16  1  0.29998217  0.50994594  0.71411619  1  0  0.121154  0  0.995386  0  0  0.12655  0  1.063438  0  0  0.130801  0  1.058643  0  0  0.130905  0.12346  0  1.066847  0
H  H17  1  0.29998311  0.28588525  0.79583055  1  0  0.121125  0  0.995388  0  0  0.12652  0  1.063449  0  0  0.130771  0  1.05865  0  0  0.130893  0.123429  0  1.066858  0
H  H18  1  0.29998231  0.20417150  0.49005548  1  0  0.121167  0  0.995379  0  0  0.126567  0  1.063424  0  0  0.130818  0  1.058628  0  0  0.130915  0.123477  0  1.066832  0
H  H19  1  0.70002064  0.49005494  0.28588400  1  0  0.12119  0  0.99538  0  0  0.126581  0  1.063434  0  0  0.130831  0  1.05864  0  0  0.130921  0.123491  0  1.066843  0
H  H20  1  0.70001525  0.71411464  0.20416915  1  0  0.121141  0  0.995379  0  0  0.126536  0  1.063438  0  0  0.130786  0  1.058643  0  0  0.130896  0.123442  0  1.066846  0
H  H21  1  0.70001717  0.79582839  0.50994679  1  0  0.121164  0  0.995358  0  0  0.126562  0  1.063415  0  0  0.130814  0  1.058617  0  0  0.130912  0.123472  0  1.066825  0
H  H22  1  0.34008535  0.78102648  0.66388629  1  0  0.109453  0  0.942086  0  0  0.120534  0  1.007008  0  0  0.12278  0  1.004729  0  0  0.111382  0.11873  0  1.008805  0
H  H23  1  0.34008802  0.33611065  0.11713805  1  0  0.109459  0  0.94207  0  0  0.120512  0  1.006995  0  0  0.122764  0  1.004708  0  0  0.111384  0.118711  0  1.008795  0
H  H24  1  0.34008254  0.88286202  0.21897347  1  0  0.109486  0  0.942098  0  0  0.120555  0  1.007012  0  0  0.122828  0  1.004699  0  0  0.1114  0.11875  0  1.008811  0
H  H25  1  0.65991523  0.21897341  0.33611256  1  0  0.109457  0  0.942052  0  0  0.120525  0  1.006974  0  0  0.122768  0  1.004699  0  0  0.111384  0.118728  0  1.008765  0
H  H26  1  0.65991368  0.66388826  0.88286031  1  0  0.109467  0  0.9421  0  0  0.120522  0  1.007021  0  0  0.12277  0  1.00474  0  0  0.111387  0.118721  0  1.008821  0
H  H27  1  0.65991583  0.11713689  0.78102403  1  0  0.109484  0  0.942092  0  0  0.120544  0  1.007019  0  0  0.122828  0  1.004692  0  0  0.111398  0.118739  0  1.008819  0
H  H28  1  0.41773423  0.70068768  0.74388162  1  0  0.112831  0  0.91235  0  0  0.129569  0  0.968885  0  0  0.131108  0  0.967483  0  0  0.121561  0.128378  0  0.969965  0
H  H29  1  0.41773386  0.25611670  0.95680573  1  0  0.112812  0  0.912381  0  0  0.129537  0  0.968912  0  0  0.131074  0  0.96751  0  0  0.121556  0.128347  0  0.969992  0
H  H30  1  0.41773450  0.04319431  0.29931264  1  0  0.112814  0  0.912394  0  0  0.129543  0  0.968918  0  0  0.13108  0  0.96752  0  0  0.121546  0.128352  0  0.969998  0
H  H31  1  0.58226746  0.29931320  0.25611858  1  0  0.112832  0  0.912353  0  0  0.129561  0  0.968886  0  0  0.1311  0  0.967482  0  0  0.121555  0.12837  0  0.969967  0
H  H32  1  0.58226672  0.74388319  0.04319397  1  0  0.112842  0  0.912367  0  0  0.129561  0  0.968902  0  0  0.131099  0  0.9675  0  0  0.12156  0.128371  0  0.969981  0
H  H33  1  0.58226719  0.95680262  0.70068388  1  0  0.1128  0  0.912385  0  0  0.129543  0  0.968905  0  0  0.13108  0  0.967508  0  0  0.121556  0.128353  0  0.969983  0
H  H34  1  0.31268316  0.01262044  0.79451906  1  0  0.101881  0  0.940873  0  0  0.115566  0  0.999266  0  0  0.117967  0  0.998728  0  0  0.106424  0.113859  0  0.999673  0
H  H35  1  0.31268384  0.20548151  0.21810196  1  0  0.101861  0  0.940845  0  0  0.115538  0  0.999245  0  0  0.117939  0  0.99871  0  0  0.106407  0.113832  0  0.999651  0
H  H36  1  0.31267987  0.78189974  0.98737983  1  0  0.101865  0  0.940881  0  0  0.115547  0  0.999275  0  0  0.117948  0  0.998737  0  0  0.106417  0.113842  0  0.999682  0
H  H37  1  0.68731632  0.98738240  0.20548212  1  0  0.101882  0  0.94087  0  0  0.11558  0  0.999244  0  0  0.117983  0  0.998705  0  0  0.106427  0.113874  0  0.999651  0
H  H38  1  0.68731564  0.79451936  0.78189824  1  0  0.101873  0  0.940888  0  0  0.115552  0  0.999284  0  0  0.117953  0  0.998748  0  0  0.10642  0.113847  0  0.99969  0
H  H39  1  0.68731739  0.21810015  0.01261817  1  0  0.101899  0  0.940862  0  0  0.115587  0  0.999244  0  0  0.117989  0  0.998707  0  0  0.106472  0.113881  0  0.999651  0
C  C40  1  0.96827877  0.58837633  0.66525308  1  0  -0.002381  0  3.758144  0  0  -0.036826  0  4.02792  0  0  -0.03491  0  4.046691  0  0  -0.002036  -0.038106  0  4.015198  0
C  C41  1  0.96827952  0.33474917  0.92312644  1  0  -0.002506  0  3.758168  0  0  -0.036928  0  4.027962  0  0  -0.035012  0  4.04673  0  0  -0.002108  -0.038208  0  4.015242  0
C  C42  1  0.96827777  0.07687584  0.41162587  1  0  -0.002473  0  3.75812  0  0  -0.03692  0  4.027911  0  0  -0.035005  0  4.046683  0  0  -0.002118  -0.038201  0  4.015191  0
C  C43  1  0.03172182  0.41162356  0.33474918  1  0  -0.0025  0  3.75819  0  0  -0.036953  0  4.027974  0  0  -0.035036  0  4.046739  0  0  -0.002095  -0.038234  0  4.015255  0
C  C44  1  0.03171996  0.66525072  0.07687327  1  0  -0.002496  0  3.758184  0  0  -0.036929  0  4.027966  0  0  -0.035014  0  4.046736  0  0  -0.002101  -0.038208  0  4.015243  0
C  C45  1  0.03172171  0.92312405  0.58837469  1  0  -0.002426  0  3.758287  0  0  -0.036916  0  4.028053  0  0  -0.035001  0  4.046827  0  0  -0.002096  -0.038194  0  4.015323  0
C  C46  1  0.04931297  0.69809541  0.69159444  1  0  -0.066992  0  3.671902  0  0  -0.106982  0  3.930838  0  0  -0.105183  0  3.949373  0  0  -0.000258  -0.108  0  3.918268  0
C  C47  1  0.04931581  0.30840722  0.00650339  1  0  -0.067064  0  3.671874  0  0  -0.107058  0  3.930815  0  0  -0.105238  0  3.949372  0  0  -0.000246  -0.108093  0  3.918228  0
C  C48  1  0.04931238  0.99349963  0.30190636  1  0  -0.067  0  3.671955  0  0  -0.106996  0  3.930892  0  0  -0.105197  0  3.949428  0  0  -0.000279  -0.108018  0  3.918322  0
C  C49  1  0.95068761  0.30190349  0.30840562  1  0  -0.066987  0  3.671789  0  0  -0.106965  0  3.930727  0  0  -0.105143  0  3.949285  0  0  -0.000235  -0.108012  0  3.918133  0
C  C50  1  0.95068589  0.69159563  0.99349779  1  0  -0.066973  0  3.671877  0  0  -0.106952  0  3.930816  0  0  -0.105132  0  3.949376  0  0  -0.000231  -0.107989  0  3.91823  0
C  C51  1  0.95068821  0.00650026  0.69809419  1  0  -0.066978  0  3.671965  0  0  -0.106957  0  3.93092  0  0  -0.10516  0  3.949456  0  0  -0.000279  -0.107976  0  3.918348  0
C  C52  1  0.19697730  0.55184522  0.70143221  1  0  0.152717  0  3.621917  0  0  0.09539  0  3.874707  0  0  0.108156  0  3.887255  0  0  0.144039  0.087094  0  3.866095  0
C  C53  1  0.19697816  0.29856997  0.85041473  1  0  0.152717  0  3.621861  0  0  0.095401  0  3.874661  0  0  0.108167  0  3.887209  0  0  0.144046  0.087105  0  3.866048  0
C  C54  1  0.19697633  0.14958756  0.44815720  1  0  0.152705  0  3.62195  0  0  0.095387  0  3.874753  0  0  0.108154  0  3.8873  0  0  0.144032  0.087089  0  3.866141  0
C  C55  1  0.80302440  0.44815566  0.29856883  1  0  0.152722  0  3.621935  0  0  0.095402  0  3.874707  0  0  0.108168  0  3.887257  0  0  0.144055  0.087105  0  3.866094  0
C  C56  1  0.80302131  0.70143091  0.14958547  1  0  0.152682  0  3.621842  0  0  0.095383  0  3.874633  0  0  0.108148  0  3.887182  0  0  0.144003  0.08709  0  3.866016  0
C  C57  1  0.80302536  0.85041233  0.55184335  1  0  0.152804  0  3.621904  0  0  0.09546  0  3.8747  0  0  0.108227  0  3.887246  0  0  0.144068  0.087163  0  3.866089  0
C  C58  1  0.32237405  0.75957119  0.74422762  1  0  -0.061209  0  3.611872  0  0  -0.125085  0  3.852292  0  0  -0.120953  0  3.861432  0  0  -0.046482  -0.127625  0  3.846158  0
C  C59  1  0.32237800  0.25577091  0.01534331  1  0  -0.061211  0  3.611896  0  0  -0.125003  0  3.852243  0  0  -0.120876  0  3.861386  0  0  -0.046478  -0.127546  0  3.846105  0
C  C60  1  0.32237910  0.98465607  0.24042813  1  0  -0.061274  0  3.611959  0  0  -0.125073  0  3.852318  0  0  -0.120962  0  3.861458  0  0  -0.046499  -0.12761  0  3.846182  0
C  C61  1  0.67762654  0.24042870  0.25577122  1  0  -0.061206  0  3.611781  0  0  -0.125029  0  3.852164  0  0  -0.120891  0  3.861296  0  0  -0.046492  -0.127576  0  3.846026  0
C  C62  1  0.67762258  0.74422997  0.98465518  1  0  -0.06128  0  3.611952  0  0  -0.12505  0  3.852309  0  0  -0.120919  0  3.861449  0  0  -0.04648  -0.12759  0  3.846167  0
C  C63  1  0.67761927  0.01534382  0.75957243  1  0  -0.061183  0  3.611925  0  0  -0.124983  0  3.85233  0  0  -0.120889  0  3.861487  0  0  -0.04647  -0.127523  0  3.846201  0
C  C64  1  0.30868691  0.88411963  0.87634713  1  0  0.08365  0  3.77269  0  0  0.104876  0  4.017333  0  0  0.104573  0  4.042098  0  0  -0.011624  0.105029  0  4.000638  0
C  C65  1  0.30868760  0.12365341  0.00777155  1  0  0.083751  0  3.772668  0  0  0.104924  0  4.017344  0  0  0.104622  0  4.042107  0  0  -0.011594  0.105078  0  4.000651  0
C  C66  1  0.30868554  0.99222612  0.11588090  1  0  0.083766  0  3.772531  0  0  0.104885  0  4.017289  0  0  0.10458  0  4.04206  0  0  -0.01161  0.105036  0  4.000601  0
C  C67  1  0.69131257  0.11587829  0.12365158  1  0  0.083651  0  3.772528  0  0  0.104823  0  4.017226  0  0  0.104518  0  4.041996  0  0  -0.011617  0.10498  0  4.000527  0
C  C68  1  0.69131188  0.87634549  0.99222595  1  0  0.083744  0  3.77263  0  0  0.104861  0  4.017371  0  0  0.10456  0  4.042138  0  0  -0.011632  0.105014  0  4.000684  0
C  C69  1  0.69131172  0.00777378  0.88411710  1  0  0.083799  0  3.77257  0  0  0.104855  0  4.017406  0  0  0.104551  0  4.042177  0  0  -0.011636  0.105009  0  4.000715  0
C  C70  1  0.30787047  0.00709471  0.88483203  1  0  -0.162734  0  3.709076  0  0  -0.194898  0  3.958142  0  0  -0.198606  0  3.980463  0  0  -0.089394  -0.192291  0  3.943018  0
C  C71  1  0.30786911  0.11516669  0.12226144  1  0  -0.162777  0  3.708969  0  0  -0.194909  0  3.958063  0  0  -0.198621  0  3.980393  0  0  -0.089409  -0.192299  0  3.942932  0
C  C72  1  0.30786842  0.87773734  0.99290505  1  0  -0.162733  0  3.709053  0  0  -0.194879  0  3.958133  0  0  -0.198589  0  3.980466  0  0  -0.089398  -0.192271  0  3.943011  0
C  C73  1  0.69212901  0.99290222  0.11516619  1  0  -0.162741  0  3.709017  0  0  -0.194884  0  3.9581  0  0  -0.198591  0  3.980422  0  0  -0.089398  -0.192276  0  3.942971  0
C  C74  1  0.69212926  0.88483320  0.87773741  1  0  -0.16283  0  3.708959  0  0  -0.194918  0  3.958071  0  0  -0.198622  0  3.980384  0  0  -0.089414  -0.192311  0  3.942951  0
C  C75  1  0.69212884  0.12226157  0.00709246  1  0  -0.162773  0  3.708961  0  0  -0.194883  0  3.958072  0  0  -0.198589  0  3.980392  0  0  -0.089451  -0.192272  0  3.942936  0
N  N76  1  0.06163382  0.49832483  0.67222904  1  0  -0.400786  0  3.36194  0  0  -0.321722  0  3.669506  0  0  -0.341656  0  3.682579  0  0  -0.369567  -0.308264  0  3.660258  0
N  N77  1  0.06163360  0.32777271  0.82609772  1  0  -0.400668  0  3.361799  0  0  -0.321645  0  3.669397  0  0  -0.341579  0  3.682473  0  0  -0.369557  -0.308188  0  3.660152  0
N  N78  1  0.06163279  0.17390429  0.50167804  1  0  -0.400701  0  3.361838  0  0  -0.321695  0  3.669469  0  0  -0.34163  0  3.682542  0  0  -0.369547  -0.308239  0  3.660225  0
N  N79  1  0.93836898  0.50167604  0.32777371  1  0  -0.400787  0  3.361942  0  0  -0.321715  0  3.669501  0  0  -0.34165  0  3.682577  0  0  -0.369585  -0.308257  0  3.660253  0
N  N80  1  0.93836588  0.67222521  0.17390100  1  0  -0.40072  0  3.361826  0  0  -0.321708  0  3.669444  0  0  -0.341642  0  3.682518  0  0  -0.36957  -0.30825  0  3.660197  0
N  N81  1  0.93837001  0.82609560  0.49832251  1  0  -0.400836  0  3.361994  0  0  -0.321762  0  3.669573  0  0  -0.341697  0  3.68265  0  0  -0.369573  -0.308302  0  3.660323  0
N  N82  1  0.19320709  0.67277821  0.71328391  1  0  -0.039595  0  3.555701  0  0  0.055997  0  3.769496  0  0  0.041466  0  3.795644  0  0  -0.234628  0.065562  0  3.75178  0
N  N83  1  0.19321003  0.28671715  0.95949635  1  0  -0.039563  0  3.555702  0  0  0.056029  0  3.769462  0  0  0.041495  0  3.795606  0  0  -0.234624  0.065594  0  3.751749  0
N  N84  1  0.19320841  0.04050541  0.32722206  1  0  -0.03961  0  3.555695  0  0  0.055986  0  3.76946  0  0  0.041451  0  3.795613  0  0  -0.234597  0.065551  0  3.751743  0
N  N85  1  0.80679460  0.32722069  0.28671530  1  0  -0.039603  0  3.555676  0  0  0.055979  0  3.769442  0  0  0.041445  0  3.795585  0  0  -0.234617  0.065543  0  3.751735  0
N  N86  1  0.80679056  0.71328471  0.04050434  1  0  -0.039554  0  3.555681  0  0  0.056017  0  3.769443  0  0  0.041482  0  3.795587  0  0  -0.234601  0.065582  0  3.751731  0
N  N87  1  0.80679328  0.95949546  0.67277984  1  0  -0.039689  0  3.555714  0  0  0.055915  0  3.769482  0  0  0.04138  0  3.795639  0  0  -0.234597  0.065481  0  3.751768  0
O  O88  1  0.78371263  0.33333382  0.66666689  1  0  -0.964538  0  1.724193  0  0  -0.906598  0  2.066156  0  0  -0.943412  0  2.038829  0  0  -0.625412  -0.88131  0  2.083862  0
O  O89  1  0.21628907  0.66666706  0.33333331  1  0  -0.964528  0  1.724146  0  0  -0.906592  0  2.066102  0  0  -0.943406  0  2.038779  0  0  -0.625467  -0.881315  0  2.083831  0
O  O90  1  0.51525672  0.49649926  0.73460371  1  0  -0.872998  0  1.472061  0  0  -0.853917  0  1.729694  0  0  -0.88647  0  1.71408  0  0  -0.6004  -0.831869  0  1.739783  0
O  O91  1  0.51525883  0.26539492  0.76189630  1  0  -0.872954  0  1.472026  0  0  -0.853867  0  1.729655  0  0  -0.886424  0  1.714047  0  0  -0.600362  -0.831819  0  1.73974  0
O  O92  1  0.51525688  0.23810347  0.50350012  1  0  -0.873  0  1.472021  0  0  -0.853926  0  1.729654  0  0  -0.886477  0  1.714039  0  0  -0.600407  -0.831878  0  1.739742  0
O  O93  1  0.48474276  0.50350161  0.26539563  1  0  -0.873022  0  1.472059  0  0  -0.853944  0  1.729688  0  0  -0.886496  0  1.714076  0  0  -0.600405  -0.831894  0  1.739777  0
O  O94  1  0.48474286  0.73460399  0.23810461  1  0  -0.872986  0  1.472017  0  0  -0.853909  0  1.729649  0  0  -0.886465  0  1.71404  0  0  -0.600403  -0.831857  0  1.739735  0
O  O95  1  0.48474148  0.76189543  0.49649909  1  0  -0.873018  0  1.472039  0  0  -0.853948  0  1.729673  0  0  -0.886498  0  1.714057  0  0  -0.600418  -0.831897  0  1.73976  0
