# generated using pymatgen
data_CdH8C10S2(NO)2
_symmetry_space_group_name_H-M   'P 1'
_cell_length_a   3.80790628
_cell_length_b   7.98466048
_cell_length_c   18.60169475
_cell_angle_alpha   90.00283972
_cell_angle_beta   89.99896549
_cell_angle_gamma   92.62356607
_symmetry_Int_Tables_number   1
_chemical_formula_structural   CdH8C10S2(NO)2
_chemical_formula_sum   'Cd2 H16 C20 S4 N4 O4'
_cell_volume   564.98870215
_cell_formula_units_Z   2
loop_
 _symmetry_equiv_pos_site_id
 _symmetry_equiv_pos_as_xyz
  1  'x, y, z'
loop_
 _atom_site_type_symbol
 _atom_site_label
 _atom_site_symmetry_multiplicity
 _atom_site_fract_x
 _atom_site_fract_y
 _atom_site_fract_z
 _atom_site_occupancy
 _atom_site_hle17_bader_spin_density
 _atom_site_hle17_ddec_charge
 _atom_site_hle17_ddec_spin_density
 _atom_site_hle17_ddec_sum_bond_order
 _atom_site_hle17_magmom
 _atom_site_hse06_10hf_bader_spin_density
 _atom_site_hse06_10hf_ddec_charge
 _atom_site_hse06_10hf_ddec_spin_density
 _atom_site_hse06_10hf_ddec_sum_bond_order
 _atom_site_hse06_10hf_magmom
 _atom_site_hse06_bader_spin_density
 _atom_site_hse06_ddec_charge
 _atom_site_hse06_ddec_spin_density
 _atom_site_hse06_ddec_sum_bond_order
 _atom_site_hse06_magmom
 _atom_site_pbe_bader_spin_density
 _atom_site_pbe_cm5_charge
 _atom_site_pbe_ddec_charge
 _atom_site_pbe_ddec_spin_density
 _atom_site_pbe_ddec_sum_bond_order
 _atom_site_pbe_magmom
Cd  Cd0  1  0.00001504  0.50004495  0.49999701  1  0  0.83066  0  2.064868  0  0  0.677102  0  2.522332  0  0  0.725321  0  2.484138  0  0  0.560289  0.642707  0  2.549088  0
Cd  Cd1  1  0.50004731  0.99997922  0.00000292  1  0  0.830711  0  2.065089  0  0  0.677128  0  2.522565  0  0  0.725344  0  2.484366  0  0  0.560274  0.642731  0  2.549322  0
H  H2  1  0.77817983  0.92784767  0.44801457  1  0  0.121545  0  0.949766  0  0  0.125041  0  1.019035  0  0  0.129907  0  1.01395  0  0  0.125765  0.121513  0  1.022728  0
H  H3  1  0.72179389  0.57216622  0.94801239  1  0  0.121518  0  0.949572  0  0  0.124995  0  1.018904  0  0  0.129862  0  1.013818  0  0  0.125725  0.121465  0  1.022596  0
H  H4  1  0.22184038  0.07219840  0.55199135  1  0  0.121573  0  0.949689  0  0  0.12512  0  1.018983  0  0  0.129991  0  1.013889  0  0  0.125799  0.121589  0  1.022676  0
H  H5  1  0.27818383  0.42779588  0.05197740  1  0  0.121789  0  0.949532  0  0  0.125318  0  1.018806  0  0  0.130186  0  1.013713  0  0  0.125841  0.121786  0  1.022501  0
H  H6  1  0.50051483  0.81119263  0.33475496  1  0  0.108669  0  0.963251  0  0  0.120207  0  1.02005  0  0  0.12322  0  1.019648  0  0  0.100413  0.118094  0  1.020473  0
H  H7  1  0.99947370  0.68877605  0.83474856  1  0  0.108637  0  0.963201  0  0  0.120177  0  1.020013  0  0  0.123195  0  1.019594  0  0  0.100376  0.118064  0  1.020434  0
H  H8  1  0.49950201  0.18884592  0.66524935  1  0  0.108457  0  0.963265  0  0  0.119991  0  1.020087  0  0  0.123001  0  1.01969  0  0  0.100282  0.117878  0  1.02051  0
H  H9  1  0.00048639  0.31116725  0.16524285  1  0  0.108517  0  0.963378  0  0  0.120107  0  1.020133  0  0  0.123122  0  1.019725  0  0  0.100367  0.117982  0  1.020569  0
H  H10  1  0.27079592  0.01745046  0.24307639  1  0  0.088899  0  0.987997  0  0  0.095755  0  1.059899  0  0  0.098878  0  1.057344  0  0  0.09215  0.093493  0  1.061729  0
H  H11  1  0.22923589  0.48255841  0.74307959  1  0  0.088874  0  0.987607  0  0  0.095728  0  1.059549  0  0  0.098862  0  1.056973  0  0  0.092034  0.093469  0  1.061369  0
H  H12  1  0.72916014  0.98261071  0.75692846  1  0  0.088967  0  0.988219  0  0  0.095887  0  1.060003  0  0  0.09903  0  1.057425  0  0  0.092226  0.093571  0  1.06189  0
H  H13  1  0.77069156  0.51739997  0.25690590  1  0  0.088724  0  0.987953  0  0  0.095763  0  1.059696  0  0  0.098887  0  1.057139  0  0  0.092095  0.093496  0  1.061521  0
H  H14  1  0.29730194  0.32017071  0.27447377  1  0  0.107294  0  0.967877  0  0  0.11953  0  1.028266  0  0  0.121931  0  1.028314  0  0  0.102476  0.117833  0  1.02838  0
H  H15  1  0.20278997  0.17980684  0.77446358  1  0  0.107473  0  0.967854  0  0  0.11963  0  1.028298  0  0  0.122038  0  1.028349  0  0  0.102481  0.117938  0  1.028406  0
H  H16  1  0.70267988  0.67985909  0.72554721  1  0  0.107298  0  0.967509  0  0  0.119464  0  1.028028  0  0  0.121859  0  1.028073  0  0  0.102363  0.117769  0  1.028142  0
H  H17  1  0.79717174  0.82015276  0.22552836  1  0  0.107382  0  0.967489  0  0  0.119528  0  1.027976  0  0  0.121925  0  1.028025  0  0  0.102534  0.117834  0  1.028092  0
C  C18  1  0.66178189  0.00580849  0.40719868  1  0  0.033188  0  3.588586  0  0  -0.010126  0  3.85409  0  0  -0.000385  0  3.863519  0  0  0.037357  -0.016362  0  3.84789  0
C  C19  1  0.83822179  0.49418041  0.90719682  1  0  0.033429  0  3.588211  0  0  -0.009856  0  3.853729  0  0  -0.000117  0  3.863164  0  0  0.037456  -0.016097  0  3.847533  0
C  C20  1  0.33822419  0.99422756  0.59280832  1  0  0.03326  0  3.58861  0  0  -0.01027  0  3.854378  0  0  -0.000525  0  3.863798  0  0  0.037277  -0.016508  0  3.848181  0
C  C21  1  0.16180470  0.50577037  0.09279674  1  0  0.033051  0  3.588656  0  0  -0.010439  0  3.854415  0  0  -0.000697  0  3.863842  0  0  0.037223  -0.016666  0  3.848205  0
C  C22  1  0.51348730  0.94606808  0.34399843  1  0  -0.118094  0  3.778026  0  0  -0.128311  0  4.030824  0  0  -0.134983  0  4.049478  0  0  -0.093498  -0.124177  0  4.018233  0
C  C23  1  0.98653600  0.55391425  0.84399856  1  0  -0.118106  0  3.778034  0  0  -0.128405  0  4.030905  0  0  -0.135074  0  4.049555  0  0  -0.093515  -0.124263  0  4.018304  0
C  C24  1  0.48651065  0.05396548  0.65600964  1  0  -0.117832  0  3.778127  0  0  -0.128007  0  4.031034  0  0  -0.134683  0  4.049699  0  0  -0.093373  -0.123865  0  4.018424  0
C  C25  1  0.01344659  0.44604408  0.15598962  1  0  -0.117876  0  3.777952  0  0  -0.128127  0  4.030877  0  0  -0.134802  0  4.049536  0  0  -0.093438  -0.123982  0  4.018277  0
C  C26  1  0.38342381  0.05903942  0.29428104  1  0  -0.033919  0  3.77511  0  0  -0.057392  0  4.033433  0  0  -0.051983  0  4.049794  0  0  -0.089032  -0.060343  0  4.021879  0
C  C27  1  0.11663192  0.44093306  0.79429518  1  0  -0.03373  0  3.774457  0  0  -0.05714  0  4.0327  0  0  -0.051734  0  4.04906  0  0  -0.088697  -0.060102  0  4.021166  0
C  C28  1  0.61656164  0.94100041  0.70572758  1  0  -0.033953  0  3.775634  0  0  -0.057502  0  4.033944  0  0  -0.052109  0  4.0503  0  0  -0.089008  -0.060413  0  4.022409  0
C  C29  1  0.88329803  0.55902406  0.20569946  1  0  -0.033601  0  3.775196  0  0  -0.057194  0  4.033452  0  0  -0.051785  0  4.049816  0  0  -0.088745  -0.060142  0  4.021896  0
C  C30  1  0.39955407  0.22822341  0.31117146  1  0  -0.14886  0  3.747092  0  0  -0.164108  0  3.999131  0  0  -0.171839  0  4.019675  0  0  -0.096272  -0.159393  0  3.985344  0
C  C31  1  0.10055769  0.27174482  0.81117802  1  0  -0.149009  0  3.746993  0  0  -0.164346  0  3.999061  0  0  -0.172088  0  4.019613  0  0  -0.096305  -0.159632  0  3.985288  0
C  C32  1  0.60044951  0.77181389  0.68883501  1  0  -0.148733  0  3.746888  0  0  -0.164057  0  3.998852  0  0  -0.171779  0  4.019399  0  0  -0.096106  -0.159337  0  3.985054  0
C  C33  1  0.89942753  0.72818718  0.18881338  1  0  -0.148815  0  3.747597  0  0  -0.164147  0  3.999802  0  0  -0.17187  0  4.020335  0  0  -0.096375  -0.159436  0  3.986019  0
C  C34  1  0.54227113  0.28894878  0.37623196  1  0  0.147134  0  3.732525  0  0  0.133905  0  4.006426  0  0  0.146434  0  4.023584  0  0  0.093116  0.125665  0  3.994877  0
C  C35  1  0.95782484  0.21107261  0.87623155  1  0  0.147048  0  3.73261  0  0  0.134031  0  4.006212  0  0  0.14656  0  4.023369  0  0  0.093054  0.125776  0  3.994693  0
C  C36  1  0.45777746  0.71109225  0.62377396  1  0  0.14682  0  3.733588  0  0  0.134003  0  4.006876  0  0  0.146535  0  4.024035  0  0  0.093111  0.125752  0  3.995348  0
C  C37  1  0.04221302  0.78888693  0.12376846  1  0  0.146891  0  3.733486  0  0  0.133903  0  4.006973  0  0  0.146436  0  4.024121  0  0  0.093191  0.125658  0  3.995441  0
S  S38  1  0.54287529  0.49968296  0.39724987  1  0  -0.415482  0  2.246401  0  0  -0.371111  0  2.607239  0  0  -0.392564  0  2.600158  0  0  -0.186422  -0.356024  0  2.612764  0
S  S39  1  0.95720281  0.00030717  0.89725927  1  0  -0.415656  0  2.24585  0  0  -0.371289  0  2.606409  0  0  -0.392748  0  2.599331  0  0  -0.18656  -0.356188  0  2.611926  0
S  S40  1  0.45719481  0.50036307  0.60274154  1  0  -0.415493  0  2.246838  0  0  -0.371211  0  2.607327  0  0  -0.392669  0  2.600249  0  0  -0.186566  -0.35612  0  2.612858  0
S  S41  1  0.04284781  0.99964861  0.10274235  1  0  -0.415633  0  2.246151  0  0  -0.371289  0  2.606765  0  0  -0.392745  0  2.599677  0  0  -0.18658  -0.356197  0  2.612299  0
N  N42  1  0.67819997  0.17286949  0.42311820  1  0  0.216  0  3.642755  0  0  0.268689  0  3.902828  0  0  0.266573  0  3.924335  0  0  -0.117868  0.269445  0  3.888123  0
N  N43  1  0.82184717  0.32712007  0.92311526  1  0  0.215964  0  3.643048  0  0  0.268563  0  3.903121  0  0  0.266445  0  3.924623  0  0  -0.117867  0.269322  0  3.888429  0
N  N44  1  0.32183349  0.82717783  0.57689310  1  0  0.215931  0  3.643496  0  0  0.268535  0  3.903601  0  0  0.266416  0  3.925111  0  0  -0.117923  0.269295  0  3.888905  0
N  N45  1  0.17817943  0.67283196  0.07688797  1  0  0.216085  0  3.643028  0  0  0.268729  0  3.903089  0  0  0.266605  0  3.924592  0  0  -0.117847  0.269484  0  3.888395  0
O  O46  1  0.82365920  0.21799631  0.48522881  1  0  -0.521745  0  1.824088  0  0  -0.470702  0  2.069461  0  0  -0.497926  0  2.070742  0  0  -0.248355  -0.451167  0  2.067903  0
O  O47  1  0.67634298  0.28201216  0.98522505  1  0  -0.521752  0  1.824237  0  0  -0.470636  0  2.069552  0  0  -0.497857  0  2.07083  0  0  -0.248307  -0.451102  0  2.067998  0
O  O48  1  0.17635388  0.78205729  0.51477927  1  0  -0.521638  0  1.824479  0  0  -0.470462  0  2.069724  0  0  -0.497686  0  2.071005  0  0  -0.248215  -0.450931  0  2.068175  0
O  O49  1  0.32364048  0.71795495  0.01476743  1  0  -0.521859  0  1.823932  0  0  -0.470699  0  2.069083  0  0  -0.497916  0  2.070353  0  0  -0.248404  -0.451163  0  2.067534  0
