# generated using pymatgen
data_LaH13C18N2O7
_symmetry_space_group_name_H-M   'P 1'
_cell_length_a   9.00855009
_cell_length_b   10.09487342
_cell_length_c   10.59096599
_cell_angle_alpha   72.25665420
_cell_angle_beta   77.85106081
_cell_angle_gamma   70.03249709
_symmetry_Int_Tables_number   1
_chemical_formula_structural   LaH13C18N2O7
_chemical_formula_sum   'La2 H26 C36 N4 O14'
_cell_volume   856.07468512
_cell_formula_units_Z   2
loop_
 _symmetry_equiv_pos_site_id
 _symmetry_equiv_pos_as_xyz
  1  'x, y, z'
loop_
 _atom_site_type_symbol
 _atom_site_label
 _atom_site_symmetry_multiplicity
 _atom_site_fract_x
 _atom_site_fract_y
 _atom_site_fract_z
 _atom_site_occupancy
 _atom_site_hle17_bader_spin_density
 _atom_site_hle17_ddec_charge
 _atom_site_hle17_ddec_spin_density
 _atom_site_hle17_ddec_sum_bond_order
 _atom_site_hle17_magmom
 _atom_site_hse06_10hf_bader_spin_density
 _atom_site_hse06_10hf_ddec_charge
 _atom_site_hse06_10hf_ddec_spin_density
 _atom_site_hse06_10hf_ddec_sum_bond_order
 _atom_site_hse06_10hf_magmom
 _atom_site_hse06_bader_spin_density
 _atom_site_hse06_ddec_charge
 _atom_site_hse06_ddec_spin_density
 _atom_site_hse06_ddec_sum_bond_order
 _atom_site_hse06_magmom
 _atom_site_pbe_bader_spin_density
 _atom_site_pbe_cm5_charge
 _atom_site_pbe_ddec_charge
 _atom_site_pbe_ddec_spin_density
 _atom_site_pbe_ddec_sum_bond_order
 _atom_site_pbe_magmom
La  La0  1  0.41732892  0.58735097  0.16646419  1  0  2.034114  0  1.870762  0  0  1.885624  0  2.413243  0  0  1.988484  0  2.315724  0  0  1.399737  1.807872  0  2.482062  0
La  La1  1  0.58267239  0.41264750  0.83353597  1  0  2.0341  0  1.870813  0  0  1.885612  0  2.413281  0  0  1.988456  0  2.31579  0  0  1.399739  1.807861  0  2.482099  0
H  H2  1  0.30781432  0.38458405  0.47493425  1  0  0.083907  0  0.970654  0  0  0.090077  0  1.03734  0  0  0.092983  0  1.034503  0  0  0.122958  0.087902  0  1.039641  0
H  H3  1  0.69218515  0.61541659  0.52506657  1  0  0.083886  0  0.970679  0  0  0.090053  0  1.037376  0  0  0.092959  0  1.034537  0  0  0.122947  0.087878  0  1.039677  0
H  H4  1  0.13138240  0.38375319  0.69100310  1  0  0.114204  0  0.931437  0  0  0.126132  0  0.985973  0  0  0.129579  0  0.984508  0  0  0.112975  0.123702  0  0.987346  0
H  H5  1  0.86861550  0.61624528  0.30899862  1  0  0.114196  0  0.93149  0  0  0.126142  0  0.985992  0  0  0.129589  0  0.984526  0  0  0.112981  0.123712  0  0.987364  0
H  H6  1  0.92191489  0.61445661  0.71918510  1  0  0.107808  0  0.952793  0  0  0.11661  0  1.016457  0  0  0.119194  0  1.015381  0  0  0.11321  0.114843  0  1.017247  0
H  H7  1  0.07808265  0.38554296  0.28081448  1  0  0.107801  0  0.952815  0  0  0.11659  0  1.016492  0  0  0.119174  0  1.015416  0  0  0.113209  0.114826  0  1.017279  0
H  H8  1  0.78410417  0.87438639  0.62047114  1  0  0.098941  0  0.968209  0  0  0.110292  0  1.02997  0  0  0.112179  0  1.030637  0  0  0.103944  0.10883  0  1.029982  0
H  H9  1  0.21589337  0.12561318  0.37952844  1  0  0.098943  0  0.968231  0  0  0.110307  0  1.02997  0  0  0.11221  0  1.030619  0  0  0.103932  0.108844  0  1.029983  0
H  H10  1  0.75421783  0.09145436  0.42976378  1  0  0.114836  0  0.961419  0  0  0.123761  0  1.023767  0  0  0.127012  0  1.022386  0  0  0.107776  0.121237  0  1.025592  0
H  H11  1  0.24578015  0.90854737  0.57023793  1  0  0.114814  0  0.961434  0  0  0.123738  0  1.023787  0  0  0.126989  0  1.022407  0  0  0.107765  0.121215  0  1.025611  0
H  H12  1  0.85288317  0.21217169  0.20069101  1  0  0.112713  0  0.930854  0  0  0.124465  0  0.988167  0  0  0.127382  0  0.986291  0  0  0.114954  0.122453  0  0.989601  0
H  H13  1  0.14711672  0.78783115  0.79930721  1  0  0.112736  0  0.930893  0  0  0.124479  0  0.98821  0  0  0.127428  0  0.986296  0  0  0.114986  0.122468  0  0.989645  0
H  H14  1  0.05344621  0.19476419  0.99567497  1  0  0.109727  0  0.965258  0  0  0.120193  0  1.022734  0  0  0.123441  0  1.022061  0  0  0.10675  0.117932  0  1.023322  0
H  H15  1  0.94655473  0.80523538  0.00432305  1  0  0.109725  0  0.96527  0  0  0.120191  0  1.022746  0  0  0.12344  0  1.022072  0  0  0.106756  0.11793  0  1.023334  0
H  H16  1  0.26734229  0.95775456  0.99446875  1  0  0.075551  0  0.982762  0  0  0.081325  0  1.051543  0  0  0.084007  0  1.049546  0  0  0.114887  0.078974  0  1.05397  0
H  H17  1  0.73265867  0.04224500  0.00553210  1  0  0.075562  0  0.982762  0  0  0.081318  0  1.051555  0  0  0.084006  0  1.049557  0  0  0.114871  0.078966  0  1.053983  0
H  H18  1  0.48622538  0.07108143  0.36721343  1  0  0.131498  0  0.939259  0  0  0.136295  0  1.006157  0  0  0.141067  0  1.002445  0  0  0.112932  0.132728  0  1.009376  0
H  H19  1  0.51377593  0.92891704  0.63278673  1  0  0.131501  0  0.939252  0  0  0.136294  0  1.006156  0  0  0.141066  0  1.002443  0  0  0.112934  0.132727  0  1.009374  0
H  H20  1  0.51313155  0.96141236  0.11839803  1  0  0.115298  0  0.949383  0  0  0.12259  0  1.015197  0  0  0.126642  0  1.01232  0  0  0.10917  0.119406  0  1.017811  0
H  H21  1  0.48687017  0.03858830  0.88159953  1  0  0.115284  0  0.949447  0  0  0.12257  0  1.015258  0  0  0.126623  0  1.012378  0  0  0.109161  0.119386  0  1.017871  0
H  H22  1  0.12514143  0.43820070  0.89158073  1  0  0.124612  0  0.940817  0  0  0.131518  0  1.003679  0  0  0.135776  0  1.000902  0  0  0.116976  0.128498  0  1.005681  0
H  H23  1  0.87485839  0.56179886  0.10841939  1  0  0.124609  0  0.940811  0  0  0.131492  0  1.003702  0  0  0.135751  0  1.000925  0  0  0.116972  0.128473  0  1.005702  0
H  H24  1  0.62012380  0.47141975  0.38707352  1  0  0.400708  0  0.890469  0  0  0.373576  0  0.964496  0  0  0.38265  0  0.951372  0  0  0.297159  0.367203  0  0.973637  0
H  H25  1  0.37987828  0.52857982  0.61292524  1  0  0.400709  0  0.890467  0  0  0.373575  0  0.964499  0  0  0.382649  0  0.951375  0  0  0.297155  0.367201  0  0.973641  0
H  H26  1  0.56053197  0.32985611  0.43456716  1  0  0.429663  0  0.875045  0  0  0.395431  0  0.94486  0  0  0.408229  0  0.926111  0  0  0.289901  0.386312  0  0.95819  0
H  H27  1  0.43946863  0.67014454  0.56543250  1  0  0.429648  0  0.875064  0  0  0.395416  0  0.94488  0  0  0.408215  0  0.926129  0  0  0.289896  0.386298  0  0.958208  0
C  C28  1  0.21899495  0.48494478  0.49089979  1  0  0.113513  0  3.74087  0  0  0.088237  0  3.995321  0  0  0.096283  0  4.012428  0  0  0.052959  0.083579  0  3.983775  0
C  C29  1  0.78100337  0.51505587  0.50909934  1  0  0.113546  0  3.740891  0  0  0.088271  0  3.99533  0  0  0.096318  0  4.012433  0  0  0.052999  0.083612  0  3.983786  0
C  C30  1  0.11920621  0.48438803  0.61233595  1  0  -0.112648  0  3.730557  0  0  -0.128821  0  3.986877  0  0  -0.134795  0  4.005925  0  0  -0.080232  -0.125236  0  3.974821  0
C  C31  1  0.88079247  0.51561153  0.38766437  1  0  -0.112639  0  3.730649  0  0  -0.128822  0  3.986958  0  0  -0.134798  0  4.006012  0  0  -0.080246  -0.125236  0  3.974904  0
C  C32  1  0.00439475  0.61199293  0.62795656  1  0  -0.035865  0  3.668534  0  0  -0.059925  0  3.916837  0  0  -0.05712  0  3.933889  0  0  -0.057106  -0.062074  0  3.906408  0
C  C33  1  0.99560393  0.38800663  0.37204282  1  0  -0.035896  0  3.668559  0  0  -0.059948  0  3.916866  0  0  -0.057143  0  3.933917  0  0  -0.057131  -0.062099  0  3.906439  0
C  C34  1  0.98928493  0.73907959  0.52201942  1  0  0.022403  0  3.785277  0  0  0.040032  0  4.012567  0  0  0.037449  0  4.036526  0  0  0.000747  0.041679  0  3.998717  0
C  C35  1  0.01071225  0.26092107  0.47797991  1  0  0.022431  0  3.785289  0  0  0.040101  0  4.012568  0  0  0.03752  0  4.036531  0  0  0.000796  0.041748  0  3.998718  0
C  C36  1  0.86611571  0.87174390  0.52905304  1  0  -0.090813  0  3.737916  0  0  -0.113366  0  3.989459  0  0  -0.116454  0  4.012959  0  0  -0.08311  -0.111833  0  3.975717  0
C  C37  1  0.13388559  0.12825457  0.47094618  1  0  -0.09082  0  3.737901  0  0  -0.113384  0  3.98942  0  0  -0.116484  0  4.012912  0  0  -0.083069  -0.11185  0  3.975677  0
C  C38  1  0.85010330  0.99166215  0.42350981  1  0  -0.098024  0  3.736684  0  0  -0.121121  0  3.992177  0  0  -0.12477  0  4.015676  0  0  -0.082269  -0.119323  0  3.977968  0
C  C39  1  0.14989582  0.00833959  0.57649075  1  0  -0.098018  0  3.736648  0  0  -0.121097  0  3.992144  0  0  -0.124749  0  4.01565  0  0  -0.082275  -0.1193  0  3.977935  0
C  C40  1  0.95961862  0.98859160  0.30437243  1  0  0.024195  0  3.793613  0  0  0.040481  0  4.022801  0  0  0.037953  0  4.047783  0  0  -0.001575  0.042875  0  4.006305  0
C  C41  1  0.04038277  0.01141012  0.69562961  1  0  0.024227  0  3.793527  0  0  0.04048  0  4.022776  0  0  0.03795  0  4.047765  0  0  -0.001622  0.042874  0  4.006282  0
C  C42  1  0.94883804  0.11203738  0.19467852  1  0  -0.046814  0  3.670656  0  0  -0.069644  0  3.916312  0  0  -0.067853  0  3.934875  0  0  -0.061737  -0.0708  0  3.904993  0
C  C43  1  0.05116257  0.88796326  0.80532303  1  0  -0.046864  0  3.670665  0  0  -0.069671  0  3.916324  0  0  -0.067903  0  3.934876  0  0  -0.06175  -0.070827  0  3.905006  0
C  C44  1  0.05932353  0.10267056  0.08299705  1  0  -0.119209  0  3.736464  0  0  -0.131579  0  3.985486  0  0  -0.138648  0  4.007362  0  0  -0.08433  -0.126934  0  3.971634  0
C  C45  1  0.94067593  0.89733009  0.91700282  1  0  -0.119202  0  3.736511  0  0  -0.13158  0  3.985513  0  0  -0.13865  0  4.0074  0  0  -0.084357  -0.126934  0  3.971659  0
C  C46  1  0.17888253  0.96997257  0.08130250  1  0  0.140006  0  3.717176  0  0  0.112755  0  3.97424  0  0  0.120132  0  3.992637  0  0  0.056187  0.107385  0  3.962799  0
C  C47  1  0.82111807  0.03002808  0.91869811  1  0  0.139955  0  3.717258  0  0  0.112739  0  3.974277  0  0  0.12011  0  3.992678  0  0  0.056216  0.107371  0  3.962834  0
C  C48  1  0.08516025  0.85886187  0.29373484  1  0  0.137321  0  3.73164  0  0  0.134725  0  3.968506  0  0  0.139359  0  3.99001  0  0  0.123358  0.13119  0  3.953875  0
C  C49  1  0.91483958  0.14113768  0.70626811  1  0  0.137368  0  3.731524  0  0  0.134769  0  3.968476  0  0  0.139406  0  3.989978  0  0  0.123412  0.131233  0  3.953846  0
C  C50  1  0.09826664  0.73067552  0.40393425  1  0  0.143409  0  3.736577  0  0  0.13783  0  3.976947  0  0  0.142892  0  3.998613  0  0  0.125073  0.135179  0  3.962362  0
C  C51  1  0.90173169  0.26932513  0.59606582  1  0  0.143324  0  3.736548  0  0  0.137658  0  3.977055  0  0  0.142713  0  3.998733  0  0  0.124969  0.135008  0  3.96247  0
C  C52  1  0.48118564  0.22244803  0.16677749  1  0  0.722689  0  3.868461  0  0  0.682912  0  4.155171  0  0  0.720111  0  4.144636  0  0  0.228109  0.657299  0  4.161276  0
C  C53  1  0.51881496  0.77755262  0.83322217  1  0  0.722711  0  3.868398  0  0  0.682933  0  4.155108  0  0  0.720131  0  4.144573  0  0  0.22811  0.657321  0  4.161212  0
C  C54  1  0.49508538  0.07604340  0.26149357  1  0  -0.165483  0  3.645463  0  0  -0.185066  0  3.901209  0  0  -0.189046  0  3.912422  0  0  -0.080095  -0.182666  0  3.893894  0
C  C55  1  0.50491785  0.92395615  0.73850687  1  0  -0.165435  0  3.645432  0  0  -0.185001  0  3.901163  0  0  -0.18898  0  3.912374  0  0  -0.080069  -0.182602  0  3.893847  0
C  C56  1  0.50567402  0.95749365  0.22364037  1  0  -0.175215  0  3.655135  0  0  -0.196962  0  3.912481  0  0  -0.202716  0  3.926319  0  0  -0.083998  -0.192942  0  3.903382  0
C  C57  1  0.49432771  0.04250700  0.77635814  1  0  -0.175246  0  3.655221  0  0  -0.197006  0  3.91257  0  0  -0.202758  0  3.926406  0  0  -0.084009  -0.192984  0  3.903468  0
C  C58  1  0.50537719  0.81464614  0.32054578  1  0  0.70974  0  3.890524  0  0  0.663335  0  4.18833  0  0  0.698935  0  4.178835  0  0  0.215778  0.638628  0  4.194429  0
C  C59  1  0.49462341  0.18535451  0.67945388  1  0  0.709749  0  3.890558  0  0  0.663382  0  4.188318  0  0  0.698976  0  4.178831  0  0  0.21578  0.638674  0  4.194418  0
C  C60  1  0.18619775  0.54264588  0.01987850  1  0  0.691499  0  3.90779  0  0  0.651116  0  4.194018  0  0  0.687272  0  4.18596  0  0  0.213322  0.626175  0  4.198732  0
C  C61  1  0.81380363  0.45735586  0.98012070  1  0  0.691543  0  3.907711  0  0  0.651199  0  4.193851  0  0  0.68736  0  4.185787  0  0  0.213302  0.626258  0  4.198566  0
C  C62  1  0.07617548  0.49126744  0.97320582  1  0  -0.152269  0  3.617808  0  0  -0.170776  0  3.868976  0  0  -0.175145  0  3.880597  0  0  -0.067613  -0.16784  0  3.861319  0
C  C63  1  0.92382512  0.50873321  0.02679478  1  0  -0.152181  0  3.617754  0  0  -0.170669  0  3.868905  0  0  -0.175044  0  3.880527  0  0  -0.067539  -0.167734  0  3.861247  0
N  N64  1  0.21180666  0.60439693  0.39059544  1  0  -0.398196  0  3.205715  0  0  -0.351022  0  3.476224  0  0  -0.372498  0  3.498143  0  0  -0.36944  -0.335741  0  3.4601  0
N  N65  1  0.78819053  0.39560372  0.60940483  1  0  -0.398119  0  3.20564  0  0  -0.350916  0  3.476168  0  0  -0.372389  0  3.498088  0  0  -0.369386  -0.335634  0  3.460044  0
N  N66  1  0.19238213  0.85107191  0.18258890  1  0  -0.389166  0  3.190884  0  0  -0.341421  0  3.457382  0  0  -0.361861  0  3.479222  0  0  -0.350649  -0.32655  0  3.442388  0
N  N67  1  0.80761698  0.14892982  0.81741260  1  0  -0.389156  0  3.190923  0  0  -0.3414  0  3.457404  0  0  -0.361842  0  3.479246  0  0  -0.350675  -0.326531  0  3.442411  0
O  O68  1  0.40931919  0.33075791  0.21675926  1  0  -0.668495  0  1.971937  0  0  -0.616766  0  2.217911  0  0  -0.649657  0  2.209024  0  0  -0.371575  -0.591644  0  2.222612  0
O  O69  1  0.59067871  0.66924056  0.78324151  1  0  -0.668505  0  1.971902  0  0  -0.616773  0  2.217871  0  0  -0.649663  0  2.208983  0  0  -0.371573  -0.59165  0  2.222572  0
O  O70  1  0.53774292  0.23018168  0.04456027  1  0  -0.699769  0  2.012836  0  0  -0.651234  0  2.26653  0  0  -0.685202  0  2.257019  0  0  -0.378776  -0.626321  0  2.272312  0
O  O71  1  0.46225313  0.76981897  0.95543927  1  0  -0.699785  0  2.012795  0  0  -0.651249  0  2.26648  0  0  -0.685217  0  2.256966  0  0  -0.378773  -0.626336  0  2.272263  0
O  O72  1  0.47710988  0.80676167  0.44411203  1  0  -0.611595  0  1.944802  0  0  -0.553926  0  2.161819  0  0  -0.578449  0  2.150878  0  0  -0.301204  -0.537429  0  2.169574  0
O  O73  1  0.52289300  0.19323897  0.55588816  1  0  -0.611588  0  1.944791  0  0  -0.553924  0  2.161774  0  0  -0.578445  0  2.150836  0  0  -0.301202  -0.537427  0  2.169528  0
O  O74  1  0.53615877  0.70641627  0.26901421  1  0  -0.740446  0  2.005082  0  0  -0.689472  0  2.272199  0  0  -0.724209  0  2.260644  0  0  -0.414652  -0.663292  0  2.278838  0
O  O75  1  0.46384104  0.29358329  0.73098685  1  0  -0.740447  0  2.005124  0  0  -0.68949  0  2.27223  0  0  -0.724222  0  2.260677  0  0  -0.414649  -0.663309  0  2.27887  0
O  O76  1  0.14074361  0.59825593  0.11915455  1  0  -0.646688  0  1.966752  0  0  -0.604021  0  2.209444  0  0  -0.63369  0  2.203123  0  0  -0.345956  -0.582714  0  2.213396  0
O  O77  1  0.85925812  0.40174472  0.88084491  1  0  -0.646737  0  1.966731  0  0  -0.604072  0  2.20939  0  0  -0.633735  0  2.203056  0  0  -0.345973  -0.582764  0  2.213342  0
O  O78  1  0.32688437  0.52849393  0.95662389  1  0  -0.741506  0  2.065651  0  0  -0.684974  0  2.326592  0  0  -0.723272  0  2.318307  0  0  -0.397815  -0.657233  0  2.330774  0
O  O79  1  0.67311480  0.47151109  0.04337289  1  0  -0.741524  0  2.065636  0  0  -0.685014  0  2.326568  0  0  -0.72331  0  2.318266  0  0  -0.397798  -0.657274  0  2.330751  0
O  O80  1  0.58549129  0.40745138  0.35461966  1  0  -0.866191  0  1.872832  0  0  -0.819264  0  2.074515  0  0  -0.843677  0  2.043082  0  0  -0.626765  -0.801363  0  2.096065  0
O  O81  1  0.41450931  0.59254927  0.64538000  1  0  -0.866172  0  1.872837  0  0  -0.819244  0  2.074515  0  0  -0.843657  0  2.043087  0  0  -0.626755  -0.801343  0  2.096066  0
