# generated using pymatgen
data_Ag3H5C10SNO7
_symmetry_space_group_name_H-M   'P 1'
_cell_length_a   10.78150273
_cell_length_b   11.27569987
_cell_length_c   11.19890887
_cell_angle_alpha   90.00003400
_cell_angle_beta   90.00000013
_cell_angle_gamma   119.12149997
_symmetry_Int_Tables_number   1
_chemical_formula_structural   Ag3H5C10SNO7
_chemical_formula_sum   'Ag12 H20 C40 S4 N4 O28'
_cell_volume   1189.33994055
_cell_formula_units_Z   4
loop_
 _symmetry_equiv_pos_site_id
 _symmetry_equiv_pos_as_xyz
  1  'x, y, z'
loop_
 _atom_site_type_symbol
 _atom_site_label
 _atom_site_symmetry_multiplicity
 _atom_site_fract_x
 _atom_site_fract_y
 _atom_site_fract_z
 _atom_site_occupancy
 _atom_site_pbe_bader_spin_density
 _atom_site_pbe_cm5_charge
 _atom_site_pbe_ddec_charge
 _atom_site_pbe_ddec_spin_density
 _atom_site_pbe_ddec_sum_bond_order
 _atom_site_pbe_magmom
Ag  Ag0  1  0.33251992  0.83697091  0.81770670  1  0  0.424834  0.474498  0  1.942751  0
Ag  Ag1  1  0.16748185  0.16303106  0.31770689  1  0  0.424824  0.474496  0  1.942802  0
Ag  Ag2  1  0.66748141  0.16302957  0.18229192  1  0  0.424827  0.474506  0  1.942798  0
Ag  Ag3  1  0.83251863  0.83697143  0.68229351  1  0  0.424834  0.474507  0  1.942787  0
Ag  Ag4  1  0.12539095  0.98606957  0.70173919  1  0  0.409556  0.503355  0  1.858559  0
Ag  Ag5  1  0.37460975  0.01393028  0.20174019  1  0  0.409551  0.50334  0  1.858577  0
Ag  Ag6  1  0.87460851  0.01393089  0.29826121  1  0  0.409552  0.503357  0  1.858586  0
Ag  Ag7  1  0.62539107  0.98606918  0.79826021  1  0  0.409568  0.50337  0  1.858541  0
Ag  Ag8  1  0.12246007  0.85282338  0.00217636  1  0  0.485009  0.469807  0  1.814514  0
Ag  Ag9  1  0.37753961  0.14717631  0.50217486  1  0  0.485001  0.4698  0  1.814517  0
Ag  Ag10  1  0.87753930  0.14717506  0.99782404  1  0  0.484993  0.469799  0  1.814531  0
Ag  Ag11  1  0.62245934  0.85282314  0.49782375  1  0  0.484998  0.469787  0  1.814521  0
H  H12  1  0.28371266  0.44198683  0.93771202  1  0  0.105798  0.105525  0  1.054243  0
H  H13  1  0.21628626  0.55801319  0.43771067  1  0  0.105811  0.105556  0  1.054176  0
H  H14  1  0.71628629  0.55801262  0.06228838  1  0  0.105801  0.105534  0  1.054202  0
H  H15  1  0.78371227  0.44198726  0.56228706  1  0  0.105799  0.105549  0  1.054172  0
H  H16  1  0.66813842  0.58974341  0.73515483  1  0  0.095083  0.100683  0  1.079683  0
H  H17  1  0.83186021  0.41025660  0.23515518  1  0  0.095076  0.100695  0  1.079658  0
H  H18  1  0.33186147  0.41025604  0.26484467  1  0  0.095085  0.100695  0  1.079666  0
H  H19  1  0.16813781  0.58974284  0.76484522  1  0  0.095081  0.100692  0  1.079675  0
H  H20  1  0.65200110  0.36412862  0.74852214  1  0  0.102109  0.107645  0  1.029967  0
H  H21  1  0.84799981  0.63587042  0.24852351  1  0  0.102114  0.107647  0  1.03  0
H  H22  1  0.34799929  0.63587185  0.25147915  1  0  0.102109  0.107656  0  1.029964  0
H  H23  1  0.15200100  0.36412905  0.75147868  1  0  0.102105  0.107648  0  1.02997  0
H  H24  1  0.23452290  0.66104963  0.07652640  1  0  0.122636  0.109944  0  1.033939  0
H  H25  1  0.26547630  0.33894910  0.57652412  1  0  0.122634  0.109898  0  1.033944  0
H  H26  1  0.76547554  0.33894880  0.92347578  1  0  0.122633  0.109903  0  1.033927  0
H  H27  1  0.73452214  0.66104933  0.42347360  1  0  0.122637  0.109895  0  1.033961  0
H  H28  1  0.85718545  0.59366433  0.91796282  1  0  0.126763  0.120565  0  1.022476  0
H  H29  1  0.64281408  0.40633382  0.41796138  1  0  0.126762  0.120562  0  1.022447  0
H  H30  1  0.14281341  0.40633310  0.08203936  1  0  0.126755  0.120541  0  1.022502  0
H  H31  1  0.35718529  0.59366463  0.58203634  1  0  0.126764  0.120573  0  1.022475  0
C  C32  1  0.45722182  0.13904526  0.84335363  1  0  0.210319  0.59065  0  4.1646  0
C  C33  1  0.04277902  0.86095673  0.34335424  1  0  0.210355  0.590685  0  4.164501  0
C  C34  1  0.54278001  0.86095623  0.15664587  1  0  0.210363  0.590735  0  4.164508  0
C  C35  1  0.95722095  0.13904475  0.65664527  1  0  0.210311  0.590631  0  4.16457  0
C  C36  1  0.45698928  0.27217407  0.84738799  1  0  0.000681  -0.005185  0  3.904095  0
C  C37  1  0.04301063  0.72782791  0.34738584  1  0  0.000682  -0.005198  0  3.904049  0
C  C38  1  0.54301018  0.72782639  0.15261419  1  0  0.000665  -0.005219  0  3.904159  0
C  C39  1  0.95699079  0.27217459  0.65261188  1  0  0.000668  -0.005204  0  3.904107  0
C  C40  1  0.35325483  0.29574814  0.90157096  1  0  -0.015372  -0.105546  0  3.910923  0
C  C41  1  0.14674595  0.70425187  0.40156969  1  0  -0.015366  -0.10543  0  3.910795  0
C  C42  1  0.64674506  0.70425132  0.09843034  1  0  -0.015335  -0.105481  0  3.910904  0
C  C43  1  0.85325444  0.29574860  0.59842803  1  0  -0.015396  -0.105559  0  3.91092  0
C  C44  1  0.36291857  0.42355309  0.89452120  1  0  -0.079936  -0.100926  0  3.965413  0
C  C45  1  0.13708085  0.57644791  0.39451896  1  0  -0.079949  -0.100991  0  3.965366  0
C  C46  1  0.63708038  0.57644635  0.10547920  1  0  -0.07994  -0.100933  0  3.965429  0
C  C47  1  0.86292149  0.42355460  0.60547965  1  0  -0.079916  -0.100923  0  3.965401  0
C  C48  1  0.47387978  0.53049546  0.83301078  1  0  -0.017283  -0.030436  0  3.953547  0
C  C49  1  0.02612097  0.46950450  0.33301026  1  0  -0.017292  -0.030463  0  3.953602  0
C  C50  1  0.52612011  0.46950400  0.16698962  1  0  -0.017287  -0.030469  0  3.953702  0
C  C51  1  0.97387933  0.53049395  0.66699103  1  0  -0.017297  -0.030462  0  3.953663  0
C  C52  1  0.57920488  0.50823664  0.78191383  1  0  -0.085227  -0.076208  0  3.952188  0
C  C53  1  0.92079554  0.49176141  0.28191333  1  0  -0.085215  -0.076194  0  3.952126  0
C  C54  1  0.42079636  0.49176182  0.21808568  1  0  -0.085226  -0.076195  0  3.952171  0
C  C55  1  0.07920426  0.50823602  0.71808797  1  0  -0.085212  -0.0762  0  3.952215  0
C  C56  1  0.57077105  0.38157714  0.78977974  1  0  -0.087884  -0.101099  0  3.934932  0
C  C57  1  0.92922987  0.61842192  0.28977931  1  0  -0.087903  -0.101128  0  3.935026  0
C  C58  1  0.42922976  0.61842232  0.21022066  1  0  -0.087873  -0.10111  0  3.934973  0
C  C59  1  0.07077094  0.38157754  0.71022109  1  0  -0.087888  -0.101108  0  3.935054  0
C  C60  1  0.47572066  0.66429749  0.82043816  1  0  0.203823  0.568874  0  4.167687  0
C  C61  1  0.02428203  0.33570449  0.32043757  1  0  0.203853  0.568897  0  4.167604  0
C  C62  1  0.52428117  0.33570400  0.17956224  1  0  0.203848  0.568907  0  4.167768  0
C  C63  1  0.97572073  0.66429701  0.67956194  1  0  0.203851  0.568902  0  4.167644  0
C  C64  1  0.12936013  0.58856603  0.04338297  1  0  0.058629  0.055123  0  3.878554  0
C  C65  1  0.37063762  0.41143166  0.54337895  1  0  0.058672  0.055252  0  3.878418  0
C  C66  1  0.87063873  0.41143140  0.95662100  1  0  0.058658  0.055238  0  3.878445  0
C  C67  1  0.62935989  0.58856677  0.45661788  1  0  0.058627  0.055188  0  3.878452  0
C  C68  1  0.92018865  0.55065594  0.95468960  1  0  0.055697  0.051377  0  3.861726  0
C  C69  1  0.57980997  0.44934222  0.45468818  1  0  0.055725  0.051435  0  3.861731  0
C  C70  1  0.07980979  0.44934249  0.04531348  1  0  0.05573  0.051443  0  3.861785  0
C  C71  1  0.42018847  0.55065621  0.54530954  1  0  0.05569  0.051381  0  3.861741  0
S  S72  1  0.20237771  0.16745937  0.97940707  1  0  0.508173  1.178311  0  6.076957  0
S  S73  1  0.29762259  0.83253968  0.47940499  1  0  0.508092  1.178105  0  6.077061  0
S  S74  1  0.79762260  0.83253907  0.02059422  1  0  0.508099  1.178078  0  6.077082  0
S  S75  1  0.70237823  0.16745978  0.52059363  1  0  0.508178  1.178295  0  6.076959  0
N  N76  1  0.04881335  0.63899388  0.99851443  1  0  -0.328519  -0.164309  0  3.620349  0
N  N77  1  0.45118602  0.36100519  0.49851117  1  0  -0.328562  -0.1644  0  3.62037  0
N  N78  1  0.95118509  0.36100456  0.00148865  1  0  -0.328544  -0.164377  0  3.620374  0
N  N79  1  0.54881293  0.63899426  0.50148655  1  0  -0.328527  -0.164355  0  3.620293  0
O  O80  1  0.34929113  0.03766994  0.79612132  1  0  -0.326638  -0.525305  0  2.533622  0
O  O81  1  0.15070969  0.96233201  0.29612021  1  0  -0.326654  -0.525321  0  2.533597  0
O  O82  1  0.65071121  0.96233257  0.20387997  1  0  -0.326672  -0.52537  0  2.533617  0
O  O83  1  0.84929121  0.03766948  0.70387841  1  0  -0.326645  -0.525331  0  2.533683  0
O  O84  1  0.56851472  0.13973997  0.87957859  1  0  -0.306692  -0.52893  0  2.359065  0
O  O85  1  0.93148447  0.86026117  0.37957831  1  0  -0.306715  -0.528969  0  2.358998  0
O  O86  1  0.43148567  0.86026050  0.12042092  1  0  -0.306705  -0.528954  0  2.359039  0
O  O87  1  0.06851499  0.13973929  0.62042120  1  0  -0.306684  -0.528908  0  2.359018  0
O  O88  1  0.24841721  0.07008993  0.02251918  1  0  -0.353747  -0.563581  0  2.518983  0
O  O89  1  0.25158341  0.92990979  0.52251725  1  0  -0.35372  -0.56353  0  2.518969  0
O  O90  1  0.75158267  0.92990953  0.97748211  1  0  -0.353755  -0.563553  0  2.518927  0
O  O91  1  0.74841647  0.07008967  0.47747958  1  0  -0.353752  -0.563595  0  2.518966  0
O  O92  1  0.08680674  0.10706170  0.89139402  1  0  -0.336603  -0.59485  0  2.34213  0
O  O93  1  0.41319455  0.89293932  0.39139197  1  0  -0.336568  -0.594763  0  2.342144  0
O  O94  1  0.91319552  0.89293879  0.10860817  1  0  -0.336569  -0.594759  0  2.342119  0
O  O95  1  0.58680729  0.10706218  0.60860575  1  0  -0.336581  -0.594821  0  2.342136  0
O  O96  1  0.17210456  0.23560117  0.07722367  1  0  -0.327774  -0.582067  0  2.314055  0
O  O97  1  0.32789515  0.76439858  0.57722164  1  0  -0.327744  -0.58199  0  2.314006  0
O  O98  1  0.82789625  0.76439829  0.92277763  1  0  -0.327749  -0.581961  0  2.314042  0
O  O99  1  0.67210575  0.23560291  0.42277608  1  0  -0.327777  -0.582033  0  2.313998  0
O  O100  1  0.36980675  0.66962603  0.86612119  1  0  -0.321403  -0.507812  0  2.374751  0
O  O101  1  0.13019512  0.33037801  0.36611970  1  0  -0.32137  -0.507758  0  2.374895  0
O  O102  1  0.63019517  0.33037749  0.13387921  1  0  -0.321388  -0.507782  0  2.374833  0
O  O103  1  0.86980494  0.66962549  0.63387981  1  0  -0.321426  -0.507816  0  2.374745  0
O  O104  1  0.57745917  0.76054057  0.76427826  1  0  -0.322034  -0.550139  0  2.443677  0
O  O105  1  0.92253896  0.23945846  0.26427761  1  0  -0.322086  -0.550208  0  2.443446  0
O  O106  1  0.42253979  0.23945888  0.23572125  1  0  -0.322067  -0.550186  0  2.443662  0
O  O107  1  0.07745957  0.76054200  0.73572190  1  0  -0.322019  -0.550134  0  2.443635  0
