# generated using pymatgen
data_CoH12C11(NO2)2
_symmetry_space_group_name_H-M   'P 1'
_cell_length_a   7.33763878
_cell_length_b   7.81337639
_cell_length_c   9.73744092
_cell_angle_alpha   86.30019610
_cell_angle_beta   84.95547618
_cell_angle_gamma   86.16183400
_symmetry_Int_Tables_number   1
_chemical_formula_structural   CoH12C11(NO2)2
_chemical_formula_sum   'Co2 H24 C22 N4 O8'
_cell_volume   553.88806864
_cell_formula_units_Z   2
loop_
 _symmetry_equiv_pos_site_id
 _symmetry_equiv_pos_as_xyz
  1  'x, y, z'
loop_
 _atom_site_type_symbol
 _atom_site_label
 _atom_site_symmetry_multiplicity
 _atom_site_fract_x
 _atom_site_fract_y
 _atom_site_fract_z
 _atom_site_occupancy
 _atom_site_hle17_ddec_charge
 _atom_site_hle17_ddec_spin_density
 _atom_site_hle17_ddec_sum_bond_order
 _atom_site_hle17_magmom
 _atom_site_hse06_10hf_ddec_charge
 _atom_site_hse06_10hf_ddec_spin_density
 _atom_site_hse06_10hf_ddec_sum_bond_order
 _atom_site_hse06_10hf_magmom
 _atom_site_hse06_ddec_charge
 _atom_site_hse06_ddec_spin_density
 _atom_site_hse06_ddec_sum_bond_order
 _atom_site_hse06_magmom
 _atom_site_pbe_cm5_charge
 _atom_site_pbe_ddec_charge
 _atom_site_pbe_ddec_spin_density
 _atom_site_pbe_ddec_sum_bond_order
 _atom_site_pbe_magmom
Co  Co0  1  0.29157286  0.42935154  0.45439210  1  1.044821  -2.825563  1.900452  -2.558  1.011881  -2.813942  2.31722  -2.623  1.092696  -2.870594  2.245539  -2.708  0.667388  0.935856  -2.7534  2.387122  -2.536
Co  Co1  1  0.70842771  0.57064872  0.54560809  1  1.044793  2.825561  1.900457  2.558  1.011876  2.813933  2.317208  2.623  1.092672  2.870593  2.245536  2.708  0.667386  0.93586  2.753399  2.38712  2.536
H  H2  1  0.56202837  0.64284509  0.99125169  1  0.100488  0.000266  0.926447  0.001  0.118307  5.9e-05  0.985858  0.0  0.119728  4e-05  0.985631  0.0  0.101613  0.116986  8.9e-05  0.986312  0.0
H  H3  1  0.43797656  0.35715129  0.00874743  1  0.100519  -0.000267  0.926418  -0.001  0.1183  -5.9e-05  0.985876  0.0  0.119718  -4e-05  0.985653  0.0  0.101611  0.116988  -8.9e-05  0.986318  0.0
H  H4  1  0.47377808  0.77627161  0.12173095  1  0.082604  0.00028  0.924274  0.0  0.101734  0.000172  0.984462  0.0  0.103172  0.000146  0.983937  0.0  0.098452  0.100434  0.000197  0.985166  0.0
H  H5  1  0.52622275  0.22372476  0.87826741  1  0.082585  -0.00028  0.924276  0.0  0.101759  -0.000171  0.984408  0.0  0.103208  -0.000147  0.983873  0.0  0.098458  0.100459  -0.000198  0.985119  0.0
H  H6  1  0.65371989  0.92162319  0.91006879  1  0.067559  -3e-05  0.942212  0.0  0.085649  -2.6e-05  1.00484  0.0  0.086408  -2.4e-05  1.005586  0.0  0.090556  0.085211  -2.9e-05  1.004156  0.0
H  H7  1  0.34628222  0.07837448  0.08993044  1  0.067529  3e-05  0.942207  0.0  0.085648  2.7e-05  1.004801  0.0  0.086408  2.3e-05  1.005542  0.0  0.090543  0.085212  2.9e-05  1.004115  0.0
H  H8  1  0.72213397  0.97081745  0.07201096  1  0.059673  -5e-06  0.932047  0.0  0.081782  -2e-06  0.988898  0.0  0.08234  -1e-06  0.989567  0.0  0.087195  0.081481  -1.1e-05  0.988223  0.0
H  H9  1  0.27786523  0.02918278  0.92798831  1  0.059683  5e-06  0.93205  0.0  0.081791  2e-06  0.988902  0.0  0.082349  1e-06  0.989572  0.0  0.087184  0.081494  1.1e-05  0.988227  0.0
H  H10  1  0.90569377  0.68958412  0.89217350  1  0.070546  -2.8e-05  0.956558  0.0  0.090345  -5.3e-05  1.016163  0.0  0.090742  -6.5e-05  1.017394  0.0  0.089471  0.089768  -4.2e-05  1.015619  0.0
H  H11  1  0.09431082  0.31041738  0.10782430  1  0.07055  2.9e-05  0.956594  0.0  0.090355  5.3e-05  1.016194  0.0  0.090756  6.5e-05  1.017426  0.0  0.089466  0.089774  4.2e-05  1.015646  0.0
H  H12  1  0.99673955  0.89101596  0.90534689  1  0.060232  3e-05  0.953858  0.0  0.078494  2.1e-05  1.016596  0.0  0.079563  1.3e-05  1.016443  0.0  0.087043  0.077725  2.1e-05  1.016669  0.0
H  H13  1  0.00326495  0.10898690  0.09465494  1  0.060223  -3e-05  0.953842  0.0  0.078494  -2.1e-05  1.016578  0.0  0.079565  -1.3e-05  1.016428  0.0  0.087034  0.07772  -2.1e-05  1.016649  0.0
H  H14  1  0.05696625  0.82624006  0.14425554  1  0.068324  -0.000345  0.932469  -0.001  0.087949  -0.000193  0.992206  0.0  0.087954  -0.00013  0.993057  0.0  0.091115  0.087969  -0.000255  0.991619  0.0
H  H15  1  0.94303578  0.17375893  0.85574567  1  0.068338  0.000346  0.932474  0.001  0.087985  0.000193  0.992188  0.0  0.087992  0.00013  0.993037  0.0  0.09113  0.088002  0.000255  0.991602  0.0
H  H16  1  0.13241928  0.64189278  0.05767241  1  0.088916  -0.000243  0.928028  0.0  0.105886  -0.000144  0.988605  0.0  0.107006  -8.5e-05  0.988502  0.0  0.097958  0.104932  -0.000204  0.988847  0.0
H  H17  1  0.86758129  0.35810748  0.94232779  1  0.088929  0.000244  0.928021  0.0  0.105906  0.000144  0.988596  0.0  0.107027  8.5e-05  0.988493  0.0  0.097968  0.104955  0.000204  0.988834  0.0
H  H18  1  0.14820125  0.13730701  0.30026323  1  0.105712  -2.4e-05  0.973632  0.0  0.114234  -0.000159  1.036787  -0.001  0.116085  -0.000108  1.036339  0.0  0.118918  0.11307  -0.000198  1.036876  -0.001
H  H19  1  0.85179239  0.86269454  0.69973838  1  0.105655  2.4e-05  0.973605  0.0  0.114204  0.000159  1.036736  0.001  0.116053  0.000108  1.03629  0.0  0.118899  0.113041  0.000198  1.036821  0.001
H  H20  1  0.16827609  0.79537658  0.40236907  1  0.118808  -0.000216  0.962137  0.0  0.126271  -0.000276  1.025132  0.0  0.128735  -0.000195  1.023985  0.0  0.123759  0.124547  -0.000359  1.026083  0.0
H  H21  1  0.83171336  0.20462629  0.59763582  1  0.118802  0.000216  0.96219  0.0  0.126281  0.000276  1.025174  0.0  0.128741  0.000194  1.024033  0.0  0.123778  0.12456  0.000359  1.026124  0.0
H  H22  1  0.38984677  0.10541826  0.67888190  1  0.090753  8.2e-05  0.95504  0.0  0.099745  -2.8e-05  1.020449  0.0  0.101365  -3e-05  1.018677  0.0  0.135677  0.098503  -1.8e-05  1.021663  0.0
H  H23  1  0.61015918  0.89458324  0.32111478  1  0.090746  -8.2e-05  0.955029  0.0  0.099719  2.8e-05  1.020464  0.0  0.101341  3e-05  1.01869  0.0  0.135676  0.098485  1.8e-05  1.021654  0.0
H  H24  1  0.32077781  0.80247053  0.63037234  1  0.313732  -0.000364  0.903824  0.0  0.293697  -0.000341  0.966408  0.0  0.301521  -0.000242  0.960159  0.0  0.317614  0.287994  -0.000444  0.971056  0.0
H  H25  1  0.67922122  0.19753231  0.36962883  1  0.313724  0.000364  0.90385  0.0  0.293682  0.000341  0.966442  0.0  0.301506  0.000242  0.960193  0.0  0.317588  0.28798  0.000444  0.971095  0.0
C  C26  1  0.70314834  0.61247921  0.17585386  1  -0.021326  0.006524  3.626341  0.008  -0.013278  0.002166  3.874422  0.003  -0.012423  0.002118  3.891157  0.003  0.001183  -0.015101  0.002531  3.864246  0.003
C  C27  1  0.29685377  0.38751847  0.82414639  1  -0.021327  -0.006534  3.626301  -0.008  -0.013358  -0.002164  3.874476  -0.003  -0.012509  -0.002118  3.891216  -0.003  0.001203  -0.015175  -0.002532  3.864304  -0.003
C  C28  1  0.88515372  0.61599559  0.18817813  1  -0.114348  -0.011683  3.695271  -0.015  -0.108652  -0.006017  3.94823  -0.008  -0.11856  -0.004677  3.969467  -0.006  -0.027536  -0.101551  -0.007421  3.934742  -0.01
C  C29  1  0.11484830  0.38400336  0.81182102  1  -0.114397  0.011692  3.695239  0.015  -0.108657  0.006017  3.948214  0.008  -0.118562  0.004677  3.969449  0.006  -0.027561  -0.101558  0.007421  3.934736  0.01
C  C30  1  0.60367537  0.72344061  0.07064828  1  -0.134528  -0.000578  3.692984  -0.001  -0.17837  -0.000129  3.947869  0.0  -0.179649  -9.2e-05  3.959775  0.0  -0.155883  -0.177245  -0.000147  3.94043  -0.001
C  C31  1  0.39632665  0.27655834  0.92935088  1  -0.134532  0.000579  3.693004  0.001  -0.178347  0.000129  3.94787  0.0  -0.179628  9.4e-05  3.959788  0.0  -0.155894  -0.17723  0.000147  3.940439  0.001
C  C32  1  0.71872385  0.86611166  0.00165398  1  -0.099546  -1.6e-05  3.686287  0.0  -0.142079  -4.3e-05  3.951011  0.0  -0.142923  -2.6e-05  3.965217  0.0  -0.164976  -0.141446  -4.3e-05  3.940925  0.0
C  C33  1  0.28127672  0.13388857  0.99834519  1  -0.099561  1.6e-05  3.686262  0.0  -0.142119  4.3e-05  3.950995  0.0  -0.142962  2.8e-05  3.965206  0.0  -0.164955  -0.141495  4.3e-05  3.940921  0.0
C  C34  1  0.91348197  0.79342910  0.96212626  1  -0.113594  5.1e-05  3.685417  0.0  -0.151911  8.8e-05  3.944309  0.0  -0.153163  5.3e-05  3.958343  0.0  -0.169256  -0.150735  9.2e-05  3.934718  0.0
C  C35  1  0.08651988  0.20657245  0.03787480  1  -0.113599  -5.2e-05  3.685409  0.0  -0.151939  -8.8e-05  3.944351  0.0  -0.153206  -5.3e-05  3.958407  0.0  -0.169253  -0.150742  -9.2e-05  3.934735  0.0
C  C36  1  0.00814976  0.72138316  0.08892623  1  -0.115147  0.00021  3.725735  0.001  -0.160798  -0.000125  3.984362  0.0  -0.159985  -2.9e-05  3.99827  0.0  -0.16213  -0.161223  -0.000176  3.97471  0.0
C  C37  1  0.99185226  0.27861580  0.91107395  1  -0.115161  -0.000211  3.725764  -0.001  -0.160837  0.000125  3.984394  0.0  -0.160022  3.1e-05  3.998308  0.0  -0.162134  -0.161266  0.000175  3.974738  0.0
C  C38  1  0.58316211  0.49933055  0.26911217  1  0.65118  0.002528  3.905289  0.005  0.602111  0.001221  4.214716  0.003  0.638559  0.000772  4.205443  0.002  0.21133  0.57617  0.001944  4.21835  0.004
C  C39  1  0.41683435  0.50066970  0.73088830  1  0.651258  -0.002527  3.905171  -0.005  0.602203  -0.00122  4.214614  -0.003  0.638655  -0.000772  4.205335  -0.002  0.211316  0.576266  -0.001944  4.218235  -0.004
C  C40  1  0.97037002  0.51510314  0.30287595  1  0.647575  0.00533  3.869474  0.009  0.603021  0.003418  4.173746  0.006  0.643856  0.002755  4.163239  0.005  0.213506  0.572499  0.004299  4.179358  0.007
C  C41  1  0.02963328  0.48489712  0.69712406  1  0.647727  -0.00533  3.869316  -0.009  0.603173  -0.003417  4.173586  -0.006  0.644013  -0.002753  4.163072  -0.005  0.213565  0.572645  -0.004298  4.179218  -0.007
C  C42  1  0.20212431  0.07936440  0.39340062  1  -0.014743  0.000222  3.740863  0.0  -0.044918  -0.002288  4.016476  -0.003  -0.042408  -0.001897  4.037064  -0.003  -0.00766  -0.047041  -0.002574  4.001792  -0.003
C  C43  1  0.79787070  0.92063715  0.60660090  1  -0.014627  -0.000219  3.740671  0.0  -0.044814  0.002289  4.016277  0.003  -0.042303  0.001899  4.036863  0.003  -0.007581  -0.04694  0.002574  4.001594  0.003
C  C44  1  0.21043347  0.91082706  0.44281886  1  0.005542  -0.002319  3.668005  -0.003  -0.034026  -0.000724  3.931688  -0.001  -0.031923  -0.000156  3.94985  0.0  0.004337  -0.036057  -0.001289  3.920742  -0.002
C  C45  1  0.78955872  0.08917580  0.55718482  1  0.005513  0.002315  3.668068  0.003  -0.034098  0.000723  3.931784  0.001  -0.031993  0.000156  3.949951  0.0  0.004254  -0.036135  0.001289  3.920846  0.002
C  C46  1  0.32234322  0.07068867  0.59124856  1  0.220981  -0.000481  3.667583  0.0  0.165098  -0.002772  3.943209  -0.003  0.180813  -0.002126  3.957002  -0.003  0.143265  0.154313  -0.003343  3.932634  -0.004
C  C47  1  0.67765581  0.92931417  0.40875261  1  0.221019  0.000483  3.667621  0.0  0.165136  0.002774  3.94326  0.003  0.180853  0.002126  3.957054  0.003  0.14329  0.154354  0.003343  3.932689  0.004
N  N48  1  0.27232866  0.17853004  0.48698925  1  -0.419831  -0.040868  3.374505  -0.06  -0.382053  -0.028196  3.70671  -0.033  -0.412077  -0.022116  3.721078  -0.024  -0.374542  -0.357144  -0.033666  3.695208  -0.041
N  N49  1  0.72766908  0.82147149  0.51301105  1  -0.419837  0.040866  3.374425  0.06  -0.382049  0.028197  3.706622  0.033  -0.412066  0.022115  3.720987  0.024  -0.374583  -0.357141  0.033665  3.695122  0.041
N  N50  1  0.28575308  0.90874739  0.56774377  1  -0.270508  -0.003534  3.458204  -0.005  -0.200606  -0.003403  3.68745  -0.005  -0.216513  -0.00263  3.702408  -0.004  -0.372184  -0.190273  -0.004139  3.678205  -0.006
N  N51  1  0.71424330  0.09125415  0.43225766  1  -0.270564  0.003534  3.458257  0.005  -0.200633  0.003403  3.687488  0.005  -0.21654  0.00263  3.702446  0.004  -0.37215  -0.190299  0.004139  3.678247  0.006
O  O52  1  0.49626548  0.57281859  0.37449452  1  -0.661209  -0.034049  2.144395  -0.054  -0.630295  -0.021055  2.446298  -0.03  -0.673722  -0.01514  2.43359  -0.02  -0.317899  -0.591918  -0.027382  2.451419  -0.041
O  O53  1  0.50373508  0.42718165  0.62550465  1  -0.661259  0.03405  2.144348  0.054  -0.630345  0.021055  2.44625  0.03  -0.673771  0.015139  2.433538  0.02  -0.317889  -0.591966  0.027382  2.451356  0.041
O  O54  1  0.56080118  0.34846930  0.24074249  1  -0.587808  -0.002952  1.901252  -0.005  -0.54767  -0.004084  2.121473  -0.006  -0.572323  -0.0031  2.111939  -0.004  -0.302585  -0.528234  -0.005502  2.12659  -0.008
O  O55  1  0.43919528  0.65153090  0.75925491  1  -0.587824  0.002951  1.901218  0.005  -0.547694  0.004083  2.121451  0.006  -0.572346  0.003099  2.111912  0.004  -0.302583  -0.528261  0.005501  2.126564  0.008
O  O56  1  0.87180827  0.44432774  0.40377845  1  -0.650828  0.032435  2.126472  0.05  -0.61453  0.023918  2.413226  0.031  -0.651217  0.01872  2.400053  0.023  -0.320194  -0.583021  0.029604  2.420222  0.04
O  O57  1  0.12819375  0.55567126  0.59622378  1  -0.650858  -0.032433  2.12651  -0.05  -0.614562  -0.023918  2.413294  -0.031  -0.651244  -0.018724  2.400093  -0.023  -0.320203  -0.583048  -0.029603  2.420286  -0.04
O  O58  1  0.14575744  0.50267892  0.29569468  1  -0.594009  -0.03856  2.08421  -0.065  -0.556984  -0.028016  2.359298  -0.042  -0.593624  -0.022877  2.344762  -0.033  -0.305527  -0.526456  -0.032213  2.368745  -0.049
O  O59  1  0.85424577  0.49732261  0.70430424  1  -0.594071  0.038562  2.084117  0.065  -0.557094  0.028018  2.359262  0.042  -0.593738  0.022878  2.344734  0.033  -0.305569  -0.526552  0.032214  2.36869  0.049
