# generated using pymatgen
data_ZnH4C4(IN)2
_symmetry_space_group_name_H-M   'P 1'
_cell_length_a   6.29762382
_cell_length_b   7.37909805
_cell_length_c   9.83616833
_cell_angle_alpha   89.99962765
_cell_angle_beta   90.00047130
_cell_angle_gamma   110.85480098
_symmetry_Int_Tables_number   1
_chemical_formula_structural   ZnH4C4(IN)2
_chemical_formula_sum   'Zn2 H8 C8 I4 N4'
_cell_volume   427.14818366
_cell_formula_units_Z   2
loop_
 _symmetry_equiv_pos_site_id
 _symmetry_equiv_pos_as_xyz
  1  'x, y, z'
loop_
 _atom_site_type_symbol
 _atom_site_label
 _atom_site_symmetry_multiplicity
 _atom_site_fract_x
 _atom_site_fract_y
 _atom_site_fract_z
 _atom_site_occupancy
 _atom_site_hle17_bader_spin_density
 _atom_site_hle17_ddec_charge
 _atom_site_hle17_ddec_spin_density
 _atom_site_hle17_ddec_sum_bond_order
 _atom_site_hle17_magmom
 _atom_site_hse06_10hf_bader_spin_density
 _atom_site_hse06_10hf_ddec_charge
 _atom_site_hse06_10hf_ddec_spin_density
 _atom_site_hse06_10hf_ddec_sum_bond_order
 _atom_site_hse06_10hf_magmom
 _atom_site_hse06_bader_spin_density
 _atom_site_hse06_ddec_charge
 _atom_site_hse06_ddec_spin_density
 _atom_site_hse06_ddec_sum_bond_order
 _atom_site_hse06_magmom
 _atom_site_pbe_bader_spin_density
 _atom_site_pbe_cm5_charge
 _atom_site_pbe_ddec_charge
 _atom_site_pbe_ddec_spin_density
 _atom_site_pbe_ddec_sum_bond_order
 _atom_site_pbe_magmom
Zn  Zn0  1  0.62344314  0.52983364  0.75000252  1  0  0.649077  0  2.241128  0  0  0.488445  0  2.701486  0  0  0.530147  0  2.662927  0  0  0.445376  0.460336  0  2.726922  0
Zn  Zn1  1  0.37654883  0.47016179  0.25000682  1  0  0.648989  0  2.241307  0  0  0.488314  0  2.701627  0  0  0.53001  0  2.663067  0  0  0.445357  0.460206  0  2.727065  0
H  H2  1  0.05385734  0.80298694  0.88095823  1  0  0.091756  0  0.954277  0  0  0.095894  0  1.025315  0  0  0.09931  0  1.022407  0  0  0.107628  0.09328  0  1.027702  0
H  H3  1  0.94616944  0.19700055  0.38098441  1  0  0.091734  0  0.954355  0  0  0.095872  0  1.0254  0  0  0.099283  0  1.02249  0  0  0.107655  0.093257  0  1.027788  0
H  H4  1  0.94615493  0.19706213  0.11903484  1  0  0.091623  0  0.95422  0  0  0.095767  0  1.025252  0  0  0.099178  0  1.022347  0  0  0.107609  0.093154  0  1.02764  0
H  H5  1  0.05380980  0.80294418  0.61900968  1  0  0.091689  0  0.954095  0  0  0.095839  0  1.025145  0  0  0.099255  0  1.022236  0  0  0.107621  0.093223  0  1.027534  0
H  H6  1  0.65802509  0.22245870  0.94854376  1  0  0.091192  0  0.966072  0  0  0.094667  0  1.036993  0  0  0.098336  0  1.033815  0  0  0.103254  0.091847  0  1.039656  0
H  H7  1  0.34195908  0.77754890  0.44852873  1  0  0.091267  0  0.965998  0  0  0.094742  0  1.036912  0  0  0.098414  0  1.033731  0  0  0.103272  0.09192  0  1.03958  0
H  H8  1  0.34197079  0.77755410  0.05147168  1  0  0.091335  0  0.966157  0  0  0.094788  0  1.03706  0  0  0.098457  0  1.033881  0  0  0.103314  0.091967  0  1.039729  0
H  H9  1  0.65804746  0.22243942  0.55147756  1  0  0.091117  0  0.966121  0  0  0.094655  0  1.036957  0  0  0.098328  0  1.033768  0  0  0.10327  0.091835  0  1.039624  0
C  C10  1  0.03096138  0.66701845  0.93350793  1  0  0.095566  0  3.647383  0  0  0.063811  0  3.898268  0  0  0.067489  0  3.913692  0  0  0.055078  0.061061  0  3.888615  0
C  C11  1  0.96905346  0.33297955  0.43352339  1  0  0.095631  0  3.647773  0  0  0.063857  0  3.898596  0  0  0.067542  0  3.91401  0  0  0.05506  0.061109  0  3.888944  0
C  C12  1  0.96904606  0.33304215  0.06647803  1  0  0.095581  0  3.648007  0  0  0.063733  0  3.898829  0  0  0.067412  0  3.914257  0  0  0.05503  0.060987  0  3.88917  0
C  C13  1  0.03093753  0.66696673  0.56645646  1  0  0.095678  0  3.64797  0  0  0.063821  0  3.898831  0  0  0.067496  0  3.91426  0  0  0.05512  0.061077  0  3.889172  0
C  C14  1  0.81119058  0.34619549  0.97169735  1  0  0.09224  0  3.655073  0  0  0.061727  0  3.904067  0  0  0.065639  0  3.918709  0  0  0.053299  0.058707  0  3.894979  0
C  C15  1  0.18880134  0.65381030  0.47167976  1  0  0.092219  0  3.655086  0  0  0.06174  0  3.904  0  0  0.065648  0  3.918647  0  0  0.053333  0.058729  0  3.894891  0
C  C16  1  0.18882492  0.65384204  0.02830589  1  0  0.092278  0  3.65507  0  0  0.0617  0  3.904006  0  0  0.065615  0  3.918644  0  0  0.053392  0.058684  0  3.894913  0
C  C17  1  0.81120006  0.34616930  0.52831128  1  0  0.092373  0  3.655306  0  0  0.061809  0  3.904198  0  0  0.065726  0  3.918836  0  0  0.053329  0.058792  0  3.895101  0
I  I18  1  0.25716769  0.23867323  0.75000901  1  0  -0.443844  0  1.15772  0  0  -0.391576  0  1.50141  0  0  -0.410985  0  1.481127  0  0  -0.238727  -0.377607  0  1.514997  0
I  I19  1  0.74282570  0.76131788  0.25000541  1  0  -0.443838  0  1.157767  0  0  -0.391576  0  1.501445  0  0  -0.410983  0  1.481163  0  0  -0.238724  -0.377604  0  1.51503  0
I  I20  1  0.61264721  0.87157366  0.75000106  1  0  -0.456187  0  1.169827  0  0  -0.403009  0  1.519177  0  0  -0.425533  0  1.49708  0  0  -0.221035  -0.385774  0  1.533898  0
I  I21  1  0.38734736  0.12842034  0.25000422  1  0  -0.456184  0  1.169849  0  0  -0.403001  0  1.519185  0  0  -0.425523  0  1.497086  0  0  -0.221022  -0.385762  0  1.533906  0
N  N22  1  0.84359917  0.51307590  0.90543505  1  0  -0.245211  0  3.305558  0  0  -0.163009  0  3.565483  0  0  -0.177573  0  3.582122  0  0  -0.312026  -0.153358  0  3.554597  0
N  N23  1  0.15640606  0.48691965  0.40543924  1  0  -0.245224  0  3.305664  0  0  -0.162991  0  3.565491  0  0  -0.177552  0  3.582128  0  0  -0.312044  -0.153338  0  3.554606  0
N  N24  1  0.15640240  0.48695863  0.09456717  1  0  -0.24537  0  3.305957  0  0  -0.162857  0  3.565499  0  0  -0.177413  0  3.582124  0  0  -0.312183  -0.153212  0  3.554622  0
N  N25  1  0.84359798  0.51304696  0.59456095  1  0  -0.245489  0  3.306015  0  0  -0.163163  0  3.565797  0  0  -0.177721  0  3.582423  0  0  -0.312237  -0.153516  0  3.554919  0
