# generated using pymatgen
data_Co3H8C14(NO5)2
_symmetry_space_group_name_H-M   'P 1'
_cell_length_a   10.83247858
_cell_length_b   12.85956298
_cell_length_c   17.95324815
_cell_angle_alpha   90.03756368
_cell_angle_beta   103.76251490
_cell_angle_gamma   90.00890112
_symmetry_Int_Tables_number   1
_chemical_formula_structural   Co3H8C14(NO5)2
_chemical_formula_sum   'Co12 H32 C56 N8 O40'
_cell_volume   2429.10306540
_cell_formula_units_Z   4
loop_
 _symmetry_equiv_pos_site_id
 _symmetry_equiv_pos_as_xyz
  1  'x, y, z'
loop_
 _atom_site_type_symbol
 _atom_site_label
 _atom_site_symmetry_multiplicity
 _atom_site_fract_x
 _atom_site_fract_y
 _atom_site_fract_z
 _atom_site_occupancy
 _atom_site_pbe_bader_charge
 _atom_site_pbe_bader_spin_density
 _atom_site_pbe_cm5_charge
 _atom_site_pbe_ddec_charge
 _atom_site_pbe_ddec_spin_density
 _atom_site_pbe_ddec_sum_bond_order
 _atom_site_pbe_magmom
Co  Co0  1  0.45149509  0.46401772  0.40924668  1  1.322351  2.651201  0.662127  1.015256  2.840455  2.410033  2.632
Co  Co1  1  0.04522274  0.96459298  0.09091314  1  1.324708  2.646232  0.662436  1.019158  2.837429  2.417191  2.627
Co  Co2  1  0.54892637  0.53551948  0.59093153  1  1.321243  2.650116  0.660899  1.013861  2.84006  2.407073  2.631
Co  Co3  1  0.95437527  0.03505006  0.90960880  1  1.321468  2.64773  0.660586  1.014807  2.838243  2.410708  2.628
Co  Co4  1  0.25043207  0.40218173  0.50034628  1  1.351366  2.66331  0.652865  1.096015  2.851156  2.404759  2.648
Co  Co5  1  0.25326451  0.89994111  0.00090956  1  1.363045  2.6712  0.657184  1.102016  2.859176  2.372794  2.654
Co  Co6  1  0.74997548  0.59694021  0.49983962  1  1.34654  2.661368  0.651901  1.094778  2.848393  2.401828  2.646
Co  Co7  1  0.74958763  0.09710139  0.99978365  1  1.346164  2.664313  0.651717  1.095562  2.851486  2.39919  2.648
Co  Co8  1  0.04893155  0.46509787  0.59109252  1  1.323371  2.65192  0.662972  1.01559  2.842428  2.412692  2.633
Co  Co9  1  0.45517594  0.96560854  0.90880141  1  1.327925  2.650385  0.666406  1.023925  2.842434  2.423182  2.631
Co  Co10  1  0.95133885  0.53454828  0.40932049  1  1.322015  2.649718  0.661366  1.013857  2.840103  2.411521  2.631
Co  Co11  1  0.54569048  0.03496514  0.09107656  1  1.320204  2.645582  0.661897  1.012712  2.836194  2.423541  2.626
H  H12  1  0.37028253  0.21285291  0.24601815  1  0.134701  0.001496  0.120974  0.144583  0.00073  0.980219  0.001
H  H13  1  0.12620728  0.71198471  0.25396222  1  0.144856  0.001442  0.122208  0.146271  0.000699  0.978524  0.001
H  H14  1  0.63097422  0.78637388  0.75373461  1  0.132722  0.001486  0.121185  0.145547  0.000727  0.979654  0.001
H  H15  1  0.87337945  0.28731475  0.74686820  1  0.144326  0.001448  0.121324  0.145201  0.000702  0.980024  0.001
H  H16  1  0.04391975  0.17211496  0.34127329  1  0.104256  0.001088  0.113675  0.124682  0.000455  0.985696  0.001
H  H17  1  0.45351790  0.67285789  0.15931454  1  0.115854  0.001213  0.114569  0.126329  0.000496  0.987769  0.001
H  H18  1  0.95697523  0.82858770  0.65833180  1  0.096979  0.001102  0.11418  0.125622  0.000461  0.987413  0.001
H  H19  1  0.54495224  0.32636172  0.84041860  1  0.110256  0.001134  0.114982  0.127733  0.000464  0.986376  0.001
H  H20  1  0.95344590  0.05112901  0.23158698  1  0.098558  0.001969  0.120232  0.090098  0.000379  0.991646  0.001
H  H21  1  0.54394121  0.55169418  0.26857579  1  0.086237  0.001978  0.119853  0.089378  0.000404  0.993784  0.001
H  H22  1  0.04667433  0.94995691  0.76786766  1  0.097377  0.001978  0.119983  0.090135  0.000392  0.99306  0.001
H  H23  1  0.45547243  0.44787690  0.73097575  1  0.092756  0.001974  0.119783  0.089432  0.000397  0.994006  0.001
H  H24  1  0.13067186  0.21454164  0.75559191  1  0.131392  0.001472  0.120915  0.143887  0.000711  0.9804  0.001
H  H25  1  0.37232622  0.71540008  0.74548526  1  0.152584  0.001477  0.122081  0.146197  0.000735  0.977837  0.001
H  H26  1  0.86948904  0.78538535  0.24510499  1  0.129931  0.001485  0.120897  0.143726  0.00072  0.981634  0.001
H  H27  1  0.62675998  0.28626333  0.25344394  1  0.146219  0.001457  0.121364  0.144978  0.000715  0.980541  0.001
H  H28  1  0.45521741  0.17323164  0.65861603  1  0.112544  0.001108  0.114003  0.124906  0.000468  0.986441  0.001
H  H29  1  0.04366336  0.67715976  0.83894195  1  0.101167  0.001122  0.11516  0.127143  0.000449  0.987362  0.001
H  H30  1  0.54379191  0.82633558  0.34104753  1  0.108499  0.001111  0.113734  0.124668  0.000459  0.985538  0.001
H  H31  1  0.95544954  0.32490806  0.16008361  1  0.111691  0.001134  0.114986  0.126969  0.00046  0.9873  0.001
H  H32  1  0.54625479  0.05173982  0.76789373  1  0.1068  0.002016  0.120428  0.090529  0.000396  0.991799  0.001
H  H33  1  0.95453997  0.55472548  0.73001132  1  0.109541  0.00199  0.120191  0.089994  0.000394  0.993781  0.001
H  H34  1  0.45364488  0.94827780  0.23200377  1  0.105291  0.001988  0.120133  0.091197  0.000388  0.992477  0.001
H  H35  1  0.04572702  0.44539104  0.27017390  1  0.105467  0.001986  0.11976  0.088888  0.000392  0.994205  0.001
H  H36  1  0.48482122  0.34569988  0.53952989  1  0.608249  0.0016  0.30299  0.391297  0.000859  0.906273  0.002
H  H37  1  0.01410564  0.84740339  0.96074274  1  0.590055  0.00271  0.30186  0.38961  0.001479  0.908116  0.003
H  H38  1  0.51594482  0.65374400  0.46061636  1  0.618392  0.001547  0.302929  0.390738  0.000859  0.90642  0.002
H  H39  1  0.98231073  0.15500727  0.04033240  1  0.601336  0.001602  0.302369  0.390511  0.000837  0.907014  0.002
H  H40  1  0.01644062  0.34530154  0.46183402  1  0.574935  0.001852  0.302833  0.390681  0.000907  0.906508  0.002
H  H41  1  0.48942741  0.84692209  0.03991192  1  0.57764  0.002871  0.302858  0.390075  0.001682  0.90738  0.003
H  H42  1  0.98357625  0.65415182  0.53875651  1  0.576591  0.001843  0.302913  0.391015  0.000903  0.905715  0.002
H  H43  1  0.51638848  0.15513986  0.96082681  1  0.608945  0.001457  0.303236  0.391324  0.000748  0.904965  0.002
C  C44  1  0.22387550  0.10755542  0.18779173  1  0.481005  -0.004561  0.103887  0.086779  -0.007749  3.98465  0.0
C  C45  1  0.27331078  0.60758698  0.31235391  1  0.446622  -0.004467  0.104801  0.088896  -0.007644  3.98381  0.0
C  C46  1  0.77695880  0.89182529  0.81190633  1  0.478967  -0.005232  0.104376  0.089876  -0.008336  3.983584  0.0
C  C47  1  0.72671401  0.39192466  0.68815822  1  0.384713  -0.004096  0.104676  0.08797  -0.00731  3.984691  0.0
C  C48  1  0.27835246  0.17802601  0.24512056  1  0.005907  0.001715  -0.065147  -0.134921  -5.3e-05  3.893685  0.002
C  C49  1  0.21850344  0.67774401  0.25498333  1  -0.015757  0.000651  -0.066137  -0.137309  -0.000921  3.892341  0.002
C  C50  1  0.72282136  0.82132361  0.75455088  1  0.018386  0.00128  -0.067248  -0.138976  -0.000463  3.894403  0.002
C  C51  1  0.78105396  0.32169298  0.74561893  1  0.04773  0.00089  -0.065716  -0.135791  -0.000697  3.895919  0.002
C  C52  1  0.21325572  0.20315969  0.30123162  1  -0.037837  -0.007951  0.002034  0.016247  -0.010785  3.936384  -0.002
C  C53  1  0.28378232  0.70322646  0.19906988  1  -0.004161  -0.007406  0.002804  0.016114  -0.010316  3.937666  -0.002
C  C54  1  0.78797109  0.79656708  0.69843564  1  -0.044412  -0.008214  0.002351  0.015676  -0.011051  3.935187  -0.003
C  C55  1  0.71525939  0.29618319  0.80127983  1  -0.020989  -0.006809  0.003149  0.017662  -0.009671  3.937483  -0.002
C  C56  1  0.09584714  0.15521533  0.29767240  1  0.000964  -0.004769  -0.072581  -0.135044  -0.00654  3.943775  -0.001
C  C57  1  0.40146931  0.65569642  0.20279646  1  -0.049751  -0.005359  -0.074278  -0.138501  -0.007075  3.947379  -0.001
C  C58  1  0.90505290  0.84512419  0.70198134  1  -0.017118  -0.005042  -0.074337  -0.136821  -0.006771  3.946041  -0.001
C  C59  1  0.59741481  0.34365006  0.79715613  1  -0.045823  -0.004739  -0.073872  -0.139926  -0.006375  3.947348  -0.001
C  C60  1  0.04586230  0.08801292  0.23728598  1  0.44434  -0.00981  0.051052  0.101391  -0.010817  3.949705  -0.005
C  C61  1  0.45148326  0.58839886  0.26303829  1  0.518905  -0.009274  0.051715  0.102836  -0.010305  3.95503  -0.004
C  C62  1  0.95461279  0.91254118  0.76232437  1  0.478114  -0.009956  0.050056  0.09994  -0.011054  3.951844  -0.005
C  C63  1  0.54794218  0.41107751  0.73687623  1  0.520304  -0.009033  0.051485  0.103095  -0.010051  3.956318  -0.004
C  C64  1  0.29001544  0.07185468  0.12820007  1  1.562771  -0.014246  0.222343  0.554302  -0.017432  4.178056  -0.008
C  C65  1  0.20731116  0.57216556  0.37194357  1  1.560222  -0.014781  0.222208  0.558235  -0.01808  4.183697  -0.009
C  C66  1  0.71043852  0.92686344  0.87142202  1  1.566302  -0.014987  0.220694  0.556482  -0.018344  4.186911  -0.009
C  C67  1  0.79309015  0.42730805  0.62869668  1  1.570187  -0.014406  0.221981  0.558355  -0.017668  4.183111  -0.009
C  C68  1  0.26692648  0.28141762  0.36277902  1  1.592225  -0.008324  0.210359  0.574694  -0.010112  4.212454  -0.005
C  C69  1  0.23022237  0.78182631  0.13796553  1  1.583543  -0.009439  0.211941  0.577922  -0.0116  4.205967  -0.005
C  C70  1  0.73421959  0.71816691  0.63705907  1  1.583714  -0.008283  0.210734  0.576669  -0.00999  4.209254  -0.005
C  C71  1  0.76866434  0.21794203  0.86289927  1  1.590765  -0.008227  0.208321  0.573069  -0.009927  4.213319  -0.005
C  C72  1  0.27678998  0.10870553  0.81284416  1  0.484984  -0.004271  0.104932  0.089684  -0.007372  3.98081  0.0
C  C73  1  0.22604472  0.61011037  0.68723952  1  0.462778  -0.005209  0.105432  0.089988  -0.008321  3.981533  0.0
C  C74  1  0.72322753  0.89080912  0.18743888  1  0.464552  -0.005081  0.104112  0.087623  -0.008179  3.985035  0.0
C  C75  1  0.77375111  0.39038305  0.31240898  1  0.413358  -0.004339  0.104922  0.088957  -0.007474  3.986136  0.0
C  C76  1  0.22228666  0.17954785  0.75589446  1  0.011403  0.001696  -0.065717  -0.13469  -7.4e-05  3.893799  0.002
C  C77  1  0.27998900  0.68108393  0.74429480  1  -0.021729  0.001945  -0.065326  -0.135986  0.000124  3.892715  0.002
C  C78  1  0.77751017  0.81996214  0.24443214  1  0.015661  0.001141  -0.066046  -0.134448  -0.000553  3.896561  0.002
C  C79  1  0.71919928  0.32042946  0.25477120  1  0.04007  0.000955  -0.065812  -0.136529  -0.000656  3.896651  0.002
C  C80  1  0.28690330  0.20453005  0.69954143  1  -0.046428  -0.006973  0.003015  0.017353  -0.009833  3.936995  -0.002
C  C81  1  0.21385649  0.70706255  0.79971192  1  0.02208  -0.007481  0.002066  0.013168  -0.010412  3.939882  -0.002
C  C82  1  0.71245330  0.79474106  0.30049903  1  -0.057565  -0.007712  0.002749  0.016585  -0.010597  3.938344  -0.002
C  C83  1  0.78489766  0.29515599  0.19900953  1  -0.044461  -0.006843  0.002509  0.017241  -0.009763  3.938572  -0.002
C  C84  1  0.40393072  0.15630913  0.70251731  1  -0.031029  -0.004081  -0.073287  -0.135104  -0.005713  3.944575  -0.001
C  C85  1  0.09616658  0.65952239  0.79579760  1  -0.020532  -0.005153  -0.073345  -0.136053  -0.006895  3.947324  -0.001
C  C86  1  0.59531018  0.84300541  0.29722365  1  -0.029875  -0.005223  -0.07282  -0.134226  -0.006931  3.944468  -0.001
C  C87  1  0.90303797  0.34220955  0.20336190  1  0.050956  -0.004716  -0.074001  -0.1386  -0.006416  3.947654  -0.001
C  C88  1  0.45408603  0.08884664  0.76258184  1  0.480213  -0.009591  0.050723  0.100984  -0.010657  3.951362  -0.005
C  C89  1  0.04693318  0.59155967  0.73580632  1  0.467144  -0.009361  0.052552  0.102864  -0.010381  3.953576  -0.004
C  C90  1  0.54557633  0.91076345  0.23723495  1  0.486655  -0.009608  0.049497  0.098176  -0.010679  3.951338  -0.004
C  C91  1  0.95293357  0.40903957  0.26398961  1  0.443696  -0.009173  0.051967  0.103265  -0.010109  3.954617  -0.004
C  C92  1  0.21112660  0.07297244  0.87276491  1  1.553572  -0.012969  0.220378  0.554184  -0.015897  4.181521  -0.007
C  C93  1  0.29294166  0.57378935  0.62819494  1  1.569072  -0.014734  0.22238  0.558564  -0.018057  4.18257  -0.009
C  C94  1  0.78943530  0.92628579  0.12789952  1  1.579688  -0.01507  0.220005  0.553865  -0.01849  4.187864  -0.009
C  C95  1  0.70729553  0.42590484  0.37180593  1  1.566135  -0.014323  0.222129  0.558917  -0.017623  4.182457  -0.009
C  C96  1  0.23327100  0.28285451  0.63816845  1  1.588182  -0.008249  0.208017  0.57131  -0.009978  4.213808  -0.005
C  C97  1  0.26711492  0.78560730  0.86102853  1  1.582773  -0.007612  0.213539  0.578239  -0.009376  4.196772  -0.005
C  C98  1  0.76624377  0.71661653  0.36201849  1  1.588325  -0.008306  0.208481  0.57295  -0.010061  4.215122  -0.005
C  C99  1  0.73093189  0.21777575  0.13691103  1  1.590487  -0.008417  0.208106  0.57249  -0.01017  4.213547  -0.005
N  N100  1  0.10754969  0.06456792  0.18275217  1  -1.19898  0.046027  -0.321857  -0.277378  0.023561  3.583651  0.041
N  N101  1  0.38978415  0.56480336  0.31752102  1  -1.20252  0.04834  -0.320932  -0.276658  0.024768  3.578781  0.043
N  N102  1  0.89298151  0.93548078  0.81699305  1  -1.197564  0.047613  -0.320997  -0.278347  0.024239  3.578509  0.044
N  N103  1  0.61020472  0.43476493  0.68270504  1  -1.196393  0.049178  -0.320936  -0.27598  0.025318  3.580677  0.044
N  N104  1  0.39266844  0.06532120  0.81719634  1  -1.194539  0.048125  -0.323128  -0.280287  0.02472  3.588134  0.044
N  N105  1  0.10958596  0.56717174  0.68195619  1  -1.225777  0.048825  -0.320994  -0.275691  0.025049  3.581164  0.044
N  N106  1  0.60730988  0.93438462  0.18275332  1  -1.19477  0.048777  -0.321959  -0.278784  0.025016  3.581472  0.044
N  N107  1  0.89044395  0.43294545  0.31801639  1  -1.2288  0.049336  -0.321381  -0.276425  0.02539  3.582009  0.044
O  O108  1  0.22307794  0.01263022  0.07650680  1  -1.158361  0.115869  -0.299474  -0.564573  0.061647  2.59676  0.1
O  O109  1  0.27406561  0.51237171  0.42303232  1  -1.150733  0.118839  -0.301905  -0.56869  0.062703  2.624893  0.106
O  O110  1  0.77652800  0.98677204  0.92280878  1  -1.157637  0.116072  -0.301416  -0.570464  0.061639  2.623995  0.103
O  O111  1  0.72632644  0.48653016  0.57717443  1  -1.153024  0.118119  -0.301987  -0.569231  0.062291  2.621828  0.106
O  O112  1  0.40372976  0.09777899  0.13265103  1  -1.151163  0.068447  -0.294598  -0.519244  0.035455  2.386833  0.058
O  O113  1  0.09447298  0.59968687  0.36869109  1  -1.148242  0.061099  -0.29727  -0.524135  0.031361  2.370857  0.051
O  O114  1  0.59757653  0.89920310  0.86785476  1  -1.155495  0.060748  -0.297175  -0.52583  0.031443  2.373441  0.051
O  O115  1  0.90624268  0.40015326  0.63248363  1  -1.148949  0.061813  -0.296993  -0.524586  0.031748  2.369708  0.051
O  O116  1  0.35903127  0.33595824  0.35239635  1  -1.142512  0.066148  -0.310271  -0.556747  0.033886  2.367466  0.058
O  O117  1  0.13937183  0.83716531  0.14885397  1  -1.144987  0.062048  -0.307496  -0.553345  0.031749  2.363496  0.054
O  O118  1  0.64215743  0.66361467  0.64754335  1  -1.14974  0.065919  -0.310521  -0.558358  0.033692  2.365645  0.058
O  O119  1  0.86184736  0.16417686  0.85331287  1  -1.147753  0.064648  -0.308245  -0.55486  0.033007  2.362986  0.057
O  O120  1  0.21461957  0.28648616  0.41902006  1  -1.144947  0.06105  -0.313333  -0.565589  0.03106  2.348543  0.054
O  O121  1  0.28209142  0.78670119  0.08139951  1  -1.149303  0.069715  -0.317434  -0.57089  0.036199  2.348629  0.06
O  O122  1  0.78622904  0.71317762  0.58069877  1  -1.144588  0.060826  -0.313977  -0.566274  0.030982  2.346612  0.054
O  O123  1  0.71471350  0.21237528  0.91843123  1  -1.155895  0.061848  -0.313612  -0.565403  0.031438  2.349055  0.055
O  O124  1  0.27822503  0.01336758  0.92385287  1  -1.146948  0.112387  -0.300306  -0.569594  0.058827  2.611244  0.1
O  O125  1  0.22673647  0.51322777  0.57737391  1  -1.155216  0.118343  -0.301588  -0.569569  0.06241  2.622773  0.106
O  O126  1  0.72321199  0.98665985  0.07697122  1  -1.159346  0.117244  -0.30147  -0.568636  0.062194  2.619038  0.104
O  O127  1  0.77382629  0.48562992  0.42312448  1  -1.151868  0.118039  -0.301677  -0.569722  0.062249  2.62209  0.105
O  O128  1  0.09793469  0.09991736  0.86918220  1  -1.155056  0.063806  -0.295827  -0.521864  0.033002  2.372025  0.053
O  O129  1  0.40590166  0.60130503  0.63171889  1  -1.149425  0.060459  -0.29714  -0.524266  0.031036  2.366307  0.05
O  O130  1  0.90213458  0.89843943  0.13115069  1  -1.147036  0.060333  -0.296112  -0.52322  0.031215  2.375084  0.05
O  O131  1  0.59422930  0.39865504  0.36815180  1  -1.147892  0.061539  -0.297361  -0.524541  0.031624  2.369225  0.051
O  O132  1  0.14184739  0.33794612  0.64889366  1  -1.151773  0.066293  -0.308372  -0.554067  0.033909  2.367951  0.058
O  O133  1  0.36115120  0.83832505  0.85198103  1  -1.144436  0.072097  -0.304134  -0.547565  0.036886  2.370319  0.063
O  O134  1  0.85834328  0.66198783  0.35170941  1  -1.151354  0.065733  -0.308967  -0.555675  0.033646  2.365907  0.058
O  O135  1  0.63792089  0.16381801  0.14659439  1  -1.148932  0.066953  -0.309345  -0.555207  0.034118  2.368328  0.059
O  O136  1  0.28505027  0.28711119  0.58166860  1  -1.152106  0.061298  -0.312869  -0.564435  0.031108  2.349734  0.054
O  O137  1  0.21224976  0.79232852  0.91630807  1  -1.151868  0.071876  -0.313561  -0.564696  0.036746  2.34714  0.061
O  O138  1  0.71421900  0.71216304  0.41839344  1  -1.152014  0.060895  -0.313075  -0.565204  0.030963  2.349867  0.054
O  O139  1  0.78376236  0.21307050  0.08090161  1  -1.155184  0.06075  -0.312467  -0.563779  0.030916  2.348692  0.054
O  O140  1  0.44980998  0.41366108  0.52261294  1  -1.199419  0.202966  -0.556186  -0.891349  0.110206  2.25392  0.168
O  O141  1  0.04882436  0.91494198  0.97917471  1  -1.179252  0.199074  -0.556853  -0.892127  0.107889  2.258344  0.165
O  O142  1  0.55052631  0.58566303  0.47756263  1  -1.207988  0.202815  -0.556178  -0.890465  0.110176  2.256265  0.168
O  O143  1  0.94831497  0.08687352  0.02299316  1  -1.187648  0.205258  -0.556485  -0.890993  0.111634  2.255807  0.171
O  O144  1  0.05107575  0.41354696  0.47833461  1  -1.162968  0.203044  -0.556167  -0.89008  0.110277  2.255621  0.169
O  O145  1  0.45220115  0.91351141  0.02111007  1  -1.171471  0.199061  -0.557316  -0.895261  0.107751  2.274365  0.166
O  O146  1  0.94943132  0.58579674  0.52214992  1  -1.165579  0.202973  -0.556209  -0.890381  0.110356  2.258448  0.169
O  O147  1  0.55009135  0.08677104  0.97760906  1  -1.199105  0.205758  -0.556196  -0.89011  0.111764  2.257666  0.171
