# generated using pymatgen
data_CuH8(C3N2)2
_symmetry_space_group_name_H-M   'P 1'
_cell_length_a   7.68931228
_cell_length_b   8.71398249
_cell_length_c   13.04976516
_cell_angle_alpha   82.54789956
_cell_angle_beta   72.87726670
_cell_angle_gamma   63.80983417
_symmetry_Int_Tables_number   1
_chemical_formula_structural   CuH8(C3N2)2
_chemical_formula_sum   'Cu4 H32 C24 N16'
_cell_volume   749.84561036
_cell_formula_units_Z   4
loop_
 _symmetry_equiv_pos_site_id
 _symmetry_equiv_pos_as_xyz
  1  'x, y, z'
loop_
 _atom_site_type_symbol
 _atom_site_label
 _atom_site_symmetry_multiplicity
 _atom_site_fract_x
 _atom_site_fract_y
 _atom_site_fract_z
 _atom_site_occupancy
 _atom_site_hle17_bader_spin_density
 _atom_site_hle17_ddec_charge
 _atom_site_hle17_ddec_spin_density
 _atom_site_hle17_ddec_sum_bond_order
 _atom_site_hle17_magmom
 _atom_site_hse06_10hf_bader_spin_density
 _atom_site_hse06_10hf_ddec_charge
 _atom_site_hse06_10hf_ddec_spin_density
 _atom_site_hse06_10hf_ddec_sum_bond_order
 _atom_site_hse06_10hf_magmom
 _atom_site_hse06_bader_spin_density
 _atom_site_hse06_ddec_charge
 _atom_site_hse06_ddec_spin_density
 _atom_site_hse06_ddec_sum_bond_order
 _atom_site_hse06_magmom
 _atom_site_pbe_bader_spin_density
 _atom_site_pbe_cm5_charge
 _atom_site_pbe_ddec_charge
 _atom_site_pbe_ddec_spin_density
 _atom_site_pbe_ddec_sum_bond_order
 _atom_site_pbe_magmom
Cu  Cu0  1  0.38599208  0.16894033  0.65847846  1  0  0.366918  0  2.363903  0  0  0.271335  0  2.876632  0  0  0.263558  0  2.834807  0  0  0.489098  0.279886  0  2.902027  0
Cu  Cu1  1  0.21365413  0.83109088  0.34135441  1  0  0.366762  0  2.36557  0  0  0.271277  0  2.878388  0  0  0.263342  0  2.836721  0  0  0.489444  0.279877  0  2.903741  0
Cu  Cu2  1  0.79436148  0.66894085  0.84159826  1  0  0.366484  0  2.366263  0  0  0.271003  0  2.879208  0  0  0.263195  0  2.837342  0  0  0.489054  0.27954  0  2.904679  0
Cu  Cu3  1  0.30542487  0.33090765  0.15841348  1  0  0.3675  0  2.365044  0  0  0.271505  0  2.878154  0  0  0.263748  0  2.836242  0  0  0.489567  0.280025  0  2.903639  0
H  H4  1  0.04123691  0.92192038  0.17709833  1  0  0.070667  0  0.955571  0  0  0.083988  0  1.026688  0  0  0.086499  0  1.024195  0  0  0.087021  0.082019  0  1.028562  0
H  H5  1  0.13965117  0.07803117  0.82273059  1  0  0.071576  0  0.955833  0  0  0.085153  0  1.02668  0  0  0.08768  0  1.02415  0  0  0.088054  0.08322  0  1.028527  0
H  H6  1  0.96791314  0.42182719  0.32303868  1  0  0.071485  0  0.95401  0  0  0.08511  0  1.024861  0  0  0.087539  0  1.022514  0  0  0.087909  0.083211  0  1.026645  0
H  H7  1  0.71213971  0.57826561  0.67729853  1  0  0.071041  0  0.954688  0  0  0.084801  0  1.025748  0  0  0.087332  0  1.023223  0  0  0.088008  0.082834  0  1.027642  0
H  H8  1  0.79718397  0.98272911  0.16122840  1  0  0.059732  0  0.954327  0  0  0.074862  0  1.0243  0  0  0.075158  0  1.025262  0  0  0.087152  0.074594  0  1.023669  0
H  H9  1  0.94056643  0.01723871  0.83870815  1  0  0.060751  0  0.954408  0  0  0.075824  0  1.024616  0  0  0.076131  0  1.02554  0  0  0.087659  0.075553  0  1.023981  0
H  H10  1  0.70796406  0.48273756  0.33882965  1  0  0.061335  0  0.953786  0  0  0.076405  0  1.023788  0  0  0.076705  0  1.024748  0  0  0.088174  0.07613  0  1.023159  0
H  H11  1  0.52868021  0.51754745  0.66160627  1  0  0.060759  0  0.953881  0  0  0.076068  0  1.024048  0  0  0.076383  0  1.024981  0  0  0.087669  0.07579  0  1.023426  0
H  H12  1  0.82715703  0.91689378  0.55215562  1  0  0.097  0  0.942931  0  0  0.106614  0  1.005197  0  0  0.107944  0  1.003985  0  0  0.135374  0.105532  0  1.00618  0
H  H13  1  0.29615230  0.08311776  0.44780854  1  0  0.095852  0  0.943005  0  0  0.105732  0  1.00499  0  0  0.107129  0  1.003723  0  0  0.134781  0.104588  0  1.006035  0
H  H14  1  0.12933482  0.41661590  0.94793030  1  0  0.095721  0  0.941871  0  0  0.105247  0  1.004441  0  0  0.106572  0  1.003249  0  0  0.13484  0.104165  0  1.005425  0
H  H15  1  0.49422453  0.58319857  0.05217665  1  0  0.096494  0  0.942657  0  0  0.106314  0  1.004601  0  0  0.107632  0  1.003441  0  0  0.135419  0.105195  0  1.005622  0
H  H16  1  0.94401953  0.22378649  0.22250188  1  0  0.081993  0  0.956447  0  0  0.094328  0  1.028875  0  0  0.094106  0  1.029912  0  0  0.108927  0.094342  0  1.028263  0
H  H17  1  0.38962920  0.77611967  0.77750059  1  0  0.081746  0  0.956016  0  0  0.093648  0  1.028567  0  0  0.093409  0  1.029543  0  0  0.109163  0.093701  0  1.027951  0
H  H18  1  0.91606519  0.72363726  0.27770478  1  0  0.081416  0  0.955326  0  0  0.093591  0  1.027778  0  0  0.093338  0  1.028803  0  0  0.108702  0.093618  0  1.027137  0
H  H19  1  0.91727152  0.27641867  0.72222673  1  0  0.081712  0  0.956207  0  0  0.093515  0  1.028846  0  0  0.093357  0  1.029842  0  0  0.108678  0.093509  0  1.028252  0
H  H20  1  0.69611048  0.28363948  0.21078749  1  0  0.085324  0  0.932512  0  0  0.099056  0  1.001316  0  0  0.100268  0  1.000153  0  0  0.112594  0.098028  0  1.002309  0
H  H21  1  0.18983238  0.71636199  0.78905984  1  0  0.084675  0  0.932213  0  0  0.098168  0  1.001143  0  0  0.099378  0  0.999951  0  0  0.112312  0.097178  0  1.002099  0
H  H22  1  0.65653353  0.78358000  0.28926598  1  0  0.085062  0  0.932285  0  0  0.098762  0  1.000962  0  0  0.099962  0  0.999802  0  0  0.112694  0.097731  0  1.001942  0
H  H23  1  0.72901773  0.21652144  0.71085758  1  0  0.086339  0  0.931037  0  0  0.099462  0  1.000035  0  0  0.100759  0  0.998836  0  0  0.112996  0.098407  0  1.001043  0
H  H24  1  0.45892095  0.32162018  0.39014623  1  0  0.115556  0  0.939605  0  0  0.125996  0  1.001942  0  0  0.12823  0  0.999097  0  0  0.143063  0.124228  0  1.004107  0
H  H25  1  0.17082884  0.67823208  0.60956533  1  0  0.115785  0  0.938801  0  0  0.125813  0  1.001501  0  0  0.128167  0  0.998461  0  0  0.143048  0.123993  0  1.003727  0
H  H26  1  0.59934417  0.82190269  0.10973321  1  0  0.116389  0  0.939849  0  0  0.126046  0  1.00292  0  0  0.128269  0  1.000109  0  0  0.142931  0.124287  0  1.005068  0
H  H27  1  0.53090293  0.17822979  0.89030450  1  0  0.115535  0  0.939937  0  0  0.12573  0  1.002525  0  0  0.128061  0  0.999564  0  0  0.14298  0.123909  0  1.004741  0
H  H28  1  0.07793315  0.14374984  0.03136696  1  0  0.058994  0  0.936713  0  0  0.079311  0  0.995544  0  0  0.079822  0  0.996039  0  0  0.086749  0.078823  0  0.995328  0
H  H29  1  0.25292027  0.85584928  0.96832361  1  0  0.059484  0  0.938014  0  0  0.079291  0  0.997108  0  0  0.079798  0  0.997602  0  0  0.087077  0.078836  0  0.996849  0
H  H30  1  0.85891695  0.64375400  0.46870846  1  0  0.059416  0  0.937975  0  0  0.079325  0  0.996886  0  0  0.079774  0  0.997423  0  0  0.08678  0.078892  0  0.996606  0
H  H31  1  0.97034932  0.35578697  0.53161809  1  0  0.059286  0  0.937593  0  0  0.079205  0  0.996256  0  0  0.079682  0  0.996775  0  0  0.08708  0.078759  0  0.996008  0
H  H32  1  0.84933974  0.17010112  0.01134405  1  0  0.058336  0  0.960612  0  0  0.076511  0  1.02165  0  0  0.076608  0  1.023775  0  0  0.083421  0.076408  0  1.02021  0
H  H33  1  0.03023609  0.83009911  0.98863065  1  0  0.058232  0  0.960814  0  0  0.076508  0  1.021611  0  0  0.076596  0  1.023739  0  0  0.083756  0.076409  0  1.020171  0
H  H34  1  0.61014497  0.67048123  0.48863041  1  0  0.058306  0  0.959452  0  0  0.076644  0  1.020157  0  0  0.07673  0  1.022273  0  0  0.08385  0.07655  0  1.018725  0
H  H35  1  0.76754738  0.33062985  0.51149383  1  0  0.058295  0  0.960062  0  0  0.076022  0  1.021206  0  0  0.076076  0  1.023368  0  0  0.083762  0.075929  0  1.019789  0
C  C36  1  0.91361244  0.02765133  0.15343053  1  0  -0.123899  0  3.695742  0  0  -0.164515  0  3.957587  0  0  -0.166228  0  3.971363  0  0  -0.166473  -0.163076  0  3.948023  0
C  C37  1  0.09413173  0.97233382  0.84645012  1  0  -0.124628  0  3.696968  0  0  -0.166485  0  3.959752  0  0  -0.168013  0  3.973101  0  0  -0.167458  -0.165154  0  3.950438  0
C  C38  1  0.81660272  0.52760674  0.34664636  1  0  -0.125728  0  3.695993  0  0  -0.167103  0  3.958277  0  0  -0.168751  0  3.971867  0  0  -0.167625  -0.16571  0  3.948758  0
C  C39  1  0.69008930  0.47261913  0.65363500  1  0  -0.123794  0  3.69649  0  0  -0.166168  0  3.958639  0  0  -0.167839  0  3.972375  0  0  -0.167646  -0.164757  0  3.949099  0
C  C40  1  0.77499092  0.00559366  0.48990326  1  0  0.194876  0  3.687444  0  0  0.140044  0  3.971805  0  0  0.15057  0  3.983391  0  0  0.143819  0.133208  0  3.964287  0
C  C41  1  0.27034280  0.99441273  0.51004024  1  0  0.195363  0  3.686789  0  0  0.140446  0  3.971097  0  0  0.150925  0  3.982548  0  0  0.14423  0.133678  0  3.963607  0
C  C42  1  0.01490893  0.50539270  0.01017351  1  0  0.197828  0  3.686057  0  0  0.143248  0  3.970229  0  0  0.153765  0  3.981797  0  0  0.14506  0.136442  0  3.962686  0
C  C43  1  0.53075868  0.49443963  0.98993843  1  0  0.194543  0  3.685235  0  0  0.139384  0  3.969623  0  0  0.149907  0  3.981163  0  0  0.142873  0.132596  0  3.962106  0
C  C44  1  0.18789440  0.37730976  0.71557979  1  0  -0.152562  0  3.566739  0  0  -0.162002  0  3.963137  0  0  -0.14189  0  3.949277  0  0  -0.081657  -0.17631  0  3.971953  0
C  C45  1  0.28104614  0.62269375  0.28431944  1  0  -0.153521  0  3.56679  0  0  -0.163399  0  3.963828  0  0  -0.143216  0  3.949905  0  0  -0.081918  -0.177726  0  3.97264  0
C  C46  1  0.65306547  0.87725337  0.78460499  1  0  -0.151926  0  3.568459  0  0  -0.161517  0  3.965031  0  0  -0.141384  0  3.951207  0  0  -0.081252  -0.175814  0  3.973791  0
C  C47  1  0.31566409  0.12253802  0.21528420  1  0  -0.153536  0  3.565182  0  0  -0.163141  0  3.961953  0  0  -0.142998  0  3.948018  0  0  -0.082164  -0.177462  0  3.970807  0
C  C48  1  0.82935704  0.17769664  0.22880529  1  0  -0.018656  0  3.623385  0  0  -0.094556  0  3.880447  0  0  -0.091204  0  3.893331  0  0  -0.051424  -0.096568  0  3.871691  0
C  C49  1  0.23523125  0.82223784  0.77111026  1  0  -0.018042  0  3.622727  0  0  -0.092583  0  3.877935  0  0  -0.08891  0  3.890369  0  0  -0.05162  -0.094747  0  3.869375  0
C  C50  1  0.80776470  0.67756240  0.27132073  1  0  -0.018261  0  3.622969  0  0  -0.093798  0  3.879553  0  0  -0.090162  0  3.892084  0  0  -0.052242  -0.095877  0  3.8709  0
C  C51  1  0.75637857  0.32246182  0.72880396  1  0  -0.020731  0  3.623776  0  0  -0.095009  0  3.879428  0  0  -0.091692  0  3.89224  0  0  -0.052034  -0.096949  0  3.87059  0
C  C52  1  0.58315067  0.21216704  0.41142552  1  0  0.149322  0  3.625608  0  0  0.079094  0  3.884403  0  0  0.091248  0  3.896121  0  0  0.162204  0.071289  0  3.876597  0
C  C53  1  0.20686410  0.78770668  0.58831270  1  0  0.151182  0  3.62478  0  0  0.080806  0  3.883797  0  0  0.093047  0  3.895281  0  0  0.162896  0.073041  0  3.876047  0
C  C54  1  0.74484563  0.71227991  0.08850605  1  0  0.149698  0  3.628868  0  0  0.079941  0  3.887785  0  0  0.092152  0  3.899442  0  0  0.162839  0.072156  0  3.879962  0
C  C55  1  0.54566607  0.28773719  0.91155345  1  0  0.151577  0  3.625702  0  0  0.080909  0  3.884299  0  0  0.093039  0  3.895912  0  0  0.163429  0.073157  0  3.87654  0
C  C56  1  0.98194660  0.07751717  0.03731502  1  0  -0.093719  0  3.670418  0  0  -0.126024  0  3.91698  0  0  -0.127791  0  3.933376  0  0  -0.165056  -0.12467  0  3.905614  0
C  C57  1  0.09655289  0.92244429  0.96254766  1  0  -0.094656  0  3.671936  0  0  -0.126356  0  3.918562  0  0  -0.128123  0  3.93494  0  0  -0.16575  -0.125017  0  3.907232  0
C  C58  1  0.76866920  0.57769865  0.46276246  1  0  -0.093654  0  3.671497  0  0  -0.125538  0  3.917246  0  0  -0.127197  0  3.933535  0  0  -0.165099  -0.124239  0  3.905945  0
C  C59  1  0.80819016  0.42271204  0.53752918  1  0  -0.095011  0  3.673116  0  0  -0.12586  0  3.91881  0  0  -0.127571  0  3.935138  0  0  -0.16577  -0.124571  0  3.907532  0
N  N60  1  0.76327527  0.13274946  0.34073125  1  0  0.057521  0  3.515174  0  0  0.177018  0  3.695983  0  0  0.1662  0  3.720907  0  0  -0.12761  0.183578  0  3.679983  0
N  N61  1  0.23646057  0.86717879  0.65913908  1  0  0.053688  0  3.515445  0  0  0.174089  0  3.694211  0  0  0.162502  0  3.720491  0  0  -0.128887  0.180675  0  3.678211  0
N  N62  1  0.85388130  0.63271076  0.15931466  1  0  0.055447  0  3.517142  0  0  0.175484  0  3.696632  0  0  0.164264  0  3.722282  0  0  -0.128173  0.18204  0  3.680612  0
N  N63  1  0.64601247  0.36721639  0.84080611  1  0  0.055169  0  3.516766  0  0  0.175577  0  3.695582  0  0  0.164447  0  3.72121  0  0  -0.128966  0.18213  0  3.679551  0
N  N64  1  0.05517476  0.50144689  0.76090905  1  0  -0.407958  0  3.316652  0  0  -0.348042  0  3.648658  0  0  -0.361285  0  3.650506  0  0  -0.445469  -0.339587  0  3.647005  0
N  N65  1  0.31760932  0.49854274  0.23906774  1  0  -0.40707  0  3.316678  0  0  -0.346997  0  3.648834  0  0  -0.360224  0  3.650634  0  0  -0.445772  -0.338552  0  3.647185  0
N  N66  1  0.56578606  0.00127407  0.73917523  1  0  -0.40896  0  3.317965  0  0  -0.348973  0  3.650017  0  0  -0.362269  0  3.651986  0  0  -0.446262  -0.340482  0  3.648256  0
N  N67  1  0.30682080  0.99855456  0.26065313  1  0  -0.407436  0  3.314807  0  0  -0.347441  0  3.646653  0  0  -0.360636  0  3.648426  0  0  -0.445344  -0.339  0  3.645012  0
N  N68  1  0.58649140  0.13453070  0.50700359  1  0  -0.354747  0  3.307261  0  0  -0.296603  0  3.630423  0  0  -0.308569  0  3.634116  0  0  -0.366276  -0.289279  0  3.627827  0
N  N69  1  0.22822213  0.86538576  0.49278380  1  0  -0.354909  0  3.309554  0  0  -0.296624  0  3.632673  0  0  -0.308494  0  3.636269  0  0  -0.36646  -0.289327  0  3.63005  0
N  N70  1  0.84376839  0.63457399  0.99296592  1  0  -0.35617  0  3.310009  0  0  -0.298407  0  3.633441  0  0  -0.310333  0  3.637079  0  0  -0.367063  -0.291107  0  3.63083  0
N  N71  1  0.47140923  0.36542831  0.00709741  1  0  -0.355008  0  3.307362  0  0  -0.296063  0  3.629872  0  0  -0.307998  0  3.633537  0  0  -0.365797  -0.288742  0  3.627244  0
N  N72  1  0.88814879  0.00028782  0.39006196  1  0  -0.244455  0  3.065808  0  0  -0.216042  0  3.353734  0  0  -0.222911  0  3.362274  0  0  -0.235397  -0.212037  0  3.348289  0
N  N73  1  0.27814134  0.99970871  0.60993914  1  0  -0.242099  0  3.061963  0  0  -0.214278  0  3.350017  0  0  -0.221022  0  3.358504  0  0  -0.234536  -0.210259  0  3.344564  0
N  N74  1  0.02801893  0.50006376  0.11007376  1  0  -0.244413  0  3.065457  0  0  -0.216072  0  3.353112  0  0  -0.22288  0  3.361644  0  0  -0.235096  -0.212055  0  3.347652  0
N  N75  1  0.63838716  0.49977024  0.89005472  1  0  -0.24263  0  3.065158  0  0  -0.214613  0  3.353219  0  0  -0.221417  0  3.361711  0  0  -0.234843  -0.21061  0  3.347767  0
