# generated using pymatgen
data_ZnH8C12O5
_symmetry_space_group_name_H-M   'P 1'
_cell_length_a   6.17822490
_cell_length_b   7.42304723
_cell_length_c   11.78820309
_cell_angle_alpha   90.89250486
_cell_angle_beta   104.47770203
_cell_angle_gamma   91.21744832
_symmetry_Int_Tables_number   1
_chemical_formula_structural   ZnH8C12O5
_chemical_formula_sum   'Zn2 H16 C24 O10'
_cell_volume   523.21433263
_cell_formula_units_Z   2
loop_
 _symmetry_equiv_pos_site_id
 _symmetry_equiv_pos_as_xyz
  1  'x, y, z'
loop_
 _atom_site_type_symbol
 _atom_site_label
 _atom_site_symmetry_multiplicity
 _atom_site_fract_x
 _atom_site_fract_y
 _atom_site_fract_z
 _atom_site_occupancy
 _atom_site_hle17_bader_spin_density
 _atom_site_hle17_ddec_charge
 _atom_site_hle17_ddec_spin_density
 _atom_site_hle17_ddec_sum_bond_order
 _atom_site_hle17_magmom
 _atom_site_hse06_10hf_bader_spin_density
 _atom_site_hse06_10hf_ddec_charge
 _atom_site_hse06_10hf_ddec_spin_density
 _atom_site_hse06_10hf_ddec_sum_bond_order
 _atom_site_hse06_10hf_magmom
 _atom_site_hse06_bader_spin_density
 _atom_site_hse06_ddec_charge
 _atom_site_hse06_ddec_spin_density
 _atom_site_hse06_ddec_sum_bond_order
 _atom_site_hse06_magmom
 _atom_site_pbe_bader_spin_density
 _atom_site_pbe_cm5_charge
 _atom_site_pbe_ddec_charge
 _atom_site_pbe_ddec_spin_density
 _atom_site_pbe_ddec_sum_bond_order
 _atom_site_pbe_magmom
Zn  Zn0  1  0.68877359  0.75109713  0.99861503  1  0  1.230827  0  1.668099  0  0  1.062575  0  2.137552  0  0  1.110234  0  2.073527  0  0  0.703697  1.028873  0  2.182096  0
Zn  Zn1  1  0.31123668  0.24890486  0.00137889  1  0  1.230666  0  1.668145  0  0  1.062456  0  2.137615  0  0  1.110114  0  2.073587  0  0  0.703719  1.028743  0  2.182162  0
H  H2  1  0.08204397  0.65257330  0.96389143  1  0  0.438984  0  0.862678  0  0  0.410122  0  0.921818  0  0  0.420124  0  0.907366  0  0  0.298738  0.403088  0  0.931973  0
H  H3  1  0.11791487  0.85089378  0.01979439  1  0  0.441508  0  0.860156  0  0  0.412137  0  0.920149  0  0  0.422289  0  0.905497  0  0  0.299388  0.405007  0  0.930436  0
H  H4  1  0.91796666  0.34741210  0.03613709  1  0  0.439142  0  0.862472  0  0  0.410222  0  0.921694  0  0  0.420227  0  0.907237  0  0  0.298768  0.403187  0  0.93185  0
H  H5  1  0.88207145  0.14910915  0.98021745  1  0  0.441404  0  0.860289  0  0  0.412032  0  0.92029  0  0  0.422184  0  0.905638  0  0  0.299393  0.4049  0  0.930577  0
H  H6  1  0.22427665  0.14240441  0.63246139  1  0  0.1086  0  0.955469  0  0  0.11604  0  1.022806  0  0  0.118889  0  1.022084  0  0  0.10479  0.11386  0  1.023628  0
H  H7  1  0.59063445  0.35638258  0.36828870  1  0  0.108979  0  0.956876  0  0  0.116778  0  1.023976  0  0  0.119627  0  1.023314  0  0  0.104994  0.11458  0  1.024819  0
H  H8  1  0.77571975  0.85762336  0.36750893  1  0  0.108599  0  0.955584  0  0  0.116047  0  1.022902  0  0  0.118894  0  1.022177  0  0  0.104771  0.113875  0  1.023727  0
H  H9  1  0.40938724  0.64360735  0.63170662  1  0  0.108903  0  0.956742  0  0  0.116763  0  1.023805  0  0  0.119615  0  1.02314  0  0  0.105015  0.114566  0  1.024644  0
H  H10  1  0.86436894  0.91400215  0.78332829  1  0  0.107376  0  0.955352  0  0  0.114852  0  1.018509  0  0  0.118714  0  1.015836  0  0  0.103384  0.11203  0  1.020554  0
H  H11  1  0.09181671  0.59340907  0.21637084  1  0  0.103015  0  0.943437  0  0  0.112824  0  1.003011  0  0  0.116386  0  1.000788  0  0  0.104748  0.110212  0  1.004738  0
H  H12  1  0.13562081  0.08598483  0.21666683  1  0  0.107302  0  0.955483  0  0  0.114775  0  1.018629  0  0  0.11863  0  1.015967  0  0  0.1034  0.111955  0  1.020678  0
H  H13  1  0.90818451  0.40656854  0.78362657  1  0  0.103257  0  0.944166  0  0  0.113152  0  1.003525  0  0  0.116712  0  1.0013  0  0  0.104937  0.110543  0  1.005243  0
H  H14  1  0.08200842  0.15065059  0.41490570  1  0  0.094574  0  0.966047  0  0  0.104657  0  1.028589  0  0  0.106626  0  1.029781  0  0  0.099239  0.103143  0  1.028077  0
H  H15  1  0.65924642  0.34546255  0.58602253  1  0  0.092992  0  0.974717  0  0  0.103073  0  1.037733  0  0  0.104865  0  1.039176  0  0  0.098463  0.101591  0  1.037236  0
H  H16  1  0.91802482  0.84938410  0.58507320  1  0  0.094607  0  0.966324  0  0  0.104664  0  1.028839  0  0  0.106639  0  1.030023  0  0  0.099264  0.103128  0  1.028394  0
H  H17  1  0.34070985  0.65453888  0.41398260  1  0  0.093085  0  0.974923  0  0  0.103165  0  1.03788  0  0  0.104955  0  1.039322  0  0  0.098471  0.101648  0  1.03743  0
C  C18  1  0.51389220  0.07473861  0.83862906  1  0  0.681928  0  3.850033  0  0  0.627685  0  4.138413  0  0  0.663785  0  4.128938  0  0  0.224986  0.603095  0  4.144115  0
C  C19  1  0.68067168  0.43080110  0.16165590  1  0  0.684272  0  3.846158  0  0  0.630115  0  4.135156  0  0  0.666359  0  4.125273  0  0  0.225909  0.60542  0  4.14116  0
C  C20  1  0.48610871  0.92528363  0.16135622  1  0  0.681962  0  3.850354  0  0  0.627433  0  4.139166  0  0  0.663526  0  4.129699  0  0  0.224829  0.602847  0  4.144869  0
C  C21  1  0.31929276  0.56919496  0.83835283  1  0  0.684199  0  3.846086  0  0  0.629939  0  4.135301  0  0  0.66619  0  4.125415  0  0  0.225809  0.605243  0  4.1413  0
C  C22  1  0.54076100  0.03395634  0.71862179  1  0  -0.070274  0  3.759005  0  0  -0.04807  0  3.995458  0  0  -0.056431  0  4.01819  0  0  -0.018011  -0.042533  0  3.979907  0
C  C23  1  0.82577306  0.47064635  0.28132765  1  0  -0.066  0  3.754155  0  0  -0.044429  0  3.990789  0  0  -0.052793  0  4.013454  0  0  -0.017292  -0.03894  0  3.975363  0
C  C24  1  0.45926614  0.96610125  0.28135405  1  0  -0.070144  0  3.758216  0  0  -0.047819  0  3.994695  0  0  -0.05618  0  4.017423  0  0  -0.017869  -0.042284  0  3.979154  0
C  C25  1  0.17416220  0.52938196  0.71867073  1  0  -0.065806  0  3.75335  0  0  -0.044053  0  3.98981  0  0  -0.052442  0  4.01253  0  0  -0.017138  -0.038563  0  3.974375  0
C  C26  1  0.37489641  0.07841177  0.62084435  1  0  -0.100121  0  3.676543  0  0  -0.131352  0  3.924583  0  0  -0.130028  0  3.942328  0  0  -0.075277  -0.132008  0  3.912636  0
C  C27  1  0.75439181  0.42225877  0.37952683  1  0  -0.10115  0  3.671472  0  0  -0.132957  0  3.919222  0  0  -0.131696  0  3.937173  0  0  -0.075361  -0.133616  0  3.907246  0
C  C28  1  0.62511056  0.92159422  0.37915087  1  0  -0.100264  0  3.676244  0  0  -0.131525  0  3.924323  0  0  -0.130195  0  3.942064  0  0  -0.075299  -0.132185  0  3.912379  0
C  C29  1  0.24558369  0.57775783  0.62046250  1  0  -0.101168  0  3.671259  0  0  -0.133014  0  3.919167  0  0  -0.131753  0  3.937131  0  0  -0.075482  -0.133673  0  3.907176  0
C  C30  1  0.39974996  0.04183952  0.50660972  1  0  0.047436  0  3.794096  0  0  0.064248  0  4.021901  0  0  0.06391  0  4.044807  0  0  -0.005838  0.064506  0  4.006203  0
C  C31  1  0.89177533  0.45746222  0.49357089  1  0  0.049432  0  3.787057  0  0  0.066561  0  4.01486  0  0  0.06619  0  4.037754  0  0  -0.004664  0.066889  0  3.999161  0
C  C32  1  0.60026677  0.95815574  0.49338754  1  0  0.047431  0  3.794245  0  0  0.064262  0  4.022019  0  0  0.063916  0  4.044933  0  0  -0.005875  0.064526  0  4.006317  0
C  C33  1  0.10826904  0.54251685  0.50644522  1  0  0.049573  0  3.788488  0  0  0.066309  0  4.01664  0  0  0.065937  0  4.039535  0  0  -0.004709  0.066657  0  4.000909  0
C  C34  1  0.73781188  0.94997306  0.70531700  1  0  -0.057954  0  3.720879  0  0  -0.084626  0  3.975692  0  0  -0.084923  0  3.995664  0  0  -0.083927  -0.084253  0  3.962116  0
C  C35  1  0.03914807  0.55572882  0.29446722  1  0  -0.056878  0  3.724373  0  0  -0.083429  0  3.979359  0  0  -0.083742  0  3.999571  0  0  -0.083177  -0.082995  0  3.965561  0
C  C36  1  0.26221438  0.05007080  0.29467974  1  0  -0.058035  0  3.72141  0  0  -0.084713  0  3.976248  0  0  -0.085007  0  3.996217  0  0  -0.084059  -0.084346  0  3.962685  0
C  C37  1  0.96083862  0.44425086  0.70557319  1  0  -0.057384  0  3.725228  0  0  -0.084039  0  3.98027  0  0  -0.084343  0  4.000478  0  0  -0.083453  -0.08361  0  3.966485  0
C  C38  1  0.23344865  0.08650766  0.40465781  1  0  -0.109436  0  3.728761  0  0  -0.127179  0  3.978697  0  0  -0.130709  0  4.001053  0  0  -0.086159  -0.124757  0  3.963729  0
C  C39  1  0.82314735  0.41016621  0.59589930  1  0  -0.109222  0  3.73571  0  0  -0.127723  0  3.985525  0  0  -0.13116  0  4.0082  0  0  -0.086604  -0.125423  0  3.970413  0
C  C40  1  0.76659914  0.91351223  0.59532882  1  0  -0.109618  0  3.728749  0  0  -0.12733  0  3.978668  0  0  -0.130857  0  4.001027  0  0  -0.086263  -0.124922  0  3.963686  0
C  C41  1  0.17686591  0.58980154  0.40414121  1  0  -0.109422  0  3.737137  0  0  -0.127817  0  3.986959  0  0  -0.131257  0  4.009649  0  0  -0.086566  -0.125497  0  3.971849  0
O  O42  1  0.66375006  0.02542818  0.92780961  1  0  -0.697874  0  2.126708  0  0  -0.627514  0  2.383612  0  0  -0.653287  0  2.366322  0  0  -0.322482  -0.609514  0  2.395094  0
O  O43  1  0.74441194  0.48426192  0.07192253  1  0  -0.708758  0  2.11773  0  0  -0.639862  0  2.378319  0  0  -0.665327  0  2.359663  0  0  -0.326832  -0.622029  0  2.390758  0
O  O44  1  0.33626610  0.97454281  0.07218807  1  0  -0.697708  0  2.127447  0  0  -0.627323  0  2.384528  0  0  -0.653068  0  2.367211  0  0  -0.32235  -0.60933  0  2.396019  0
O  O45  1  0.25554637  0.51565758  0.92806049  1  0  -0.708381  0  2.117839  0  0  -0.63959  0  2.378599  0  0  -0.665068  0  2.359962  0  0  -0.326729  -0.621752  0  2.391021  0
O  O46  1  0.34157161  0.16114898  0.84694111  1  0  -0.629175  0  2.062824  0  0  -0.55688  0  2.331342  0  0  -0.587019  0  2.317867  0  0  -0.301961  -0.535841  0  2.339938  0
O  O47  1  0.50028692  0.33922176  0.15382376  1  0  -0.625235  0  2.064946  0  0  -0.551802  0  2.331809  0  0  -0.581883  0  2.318813  0  0  -0.299609  -0.530844  0  2.340147  0
O  O48  1  0.65843513  0.83884223  0.15304963  1  0  -0.629475  0  2.062346  0  0  -0.557013  0  2.330952  0  0  -0.587158  0  2.317477  0  0  -0.302063  -0.535978  0  2.339569  0
O  O49  1  0.49968987  0.66080135  0.84618536  1  0  -0.62545  0  2.064854  0  0  -0.55198  0  2.331809  0  0  -0.582064  0  2.31881  0  0  -0.299611  -0.531021  0  2.340146  0
O  O50  1  0.99974268  0.76019281  0.98047282  1  0  -0.857531  0  1.906695  0  0  -0.785394  0  2.122235  0  0  -0.808543  0  2.085899  0  0  -0.580965  -0.769072  0  2.147371  0
O  O51  1  0.00025644  0.23978459  0.01954042  1  0  -0.857594  0  1.906526  0  0  -0.78545  0  2.122133  0  0  -0.808601  0  2.085796  0  0  -0.581088  -0.769127  0  2.147271  0
