# generated using pymatgen
data_ZnH10C12(NO3)2
_symmetry_space_group_name_H-M   'P 1'
_cell_length_a   4.86253568
_cell_length_b   4.86255020
_cell_length_c   27.30677296
_cell_angle_alpha   85.11527595
_cell_angle_beta   85.11494793
_cell_angle_gamma   90.29188689
_symmetry_Int_Tables_number   1
_chemical_formula_structural   ZnH10C12(NO3)2
_chemical_formula_sum   'Zn2 H20 C24 N4 O12'
_cell_volume   640.91886341
_cell_formula_units_Z   2
loop_
 _symmetry_equiv_pos_site_id
 _symmetry_equiv_pos_as_xyz
  1  'x, y, z'
loop_
 _atom_site_type_symbol
 _atom_site_label
 _atom_site_symmetry_multiplicity
 _atom_site_fract_x
 _atom_site_fract_y
 _atom_site_fract_z
 _atom_site_occupancy
 _atom_site_pbe_bader_spin_density
 _atom_site_pbe_cm5_charge
 _atom_site_pbe_ddec_charge
 _atom_site_pbe_ddec_spin_density
 _atom_site_pbe_ddec_sum_bond_order
 _atom_site_pbe_magmom
Zn  Zn0  1  0.83191299  0.16808293  0.25000114  1  0  0.704168  0.969256  0  2.259433  0
Zn  Zn1  1  0.16808705  0.83191277  0.74999995  1  0  0.704175  0.969285  0  2.2594  0
H  H2  1  0.69857997  0.05399310  0.14645911  1  0  0.116648  0.119607  0  1.005833  0
H  H3  1  0.94601409  0.30141964  0.35354075  1  0  0.116657  0.11961  0  1.005811  0
H  H4  1  0.30141807  0.94600880  0.85354082  1  0  0.11665  0.11961  0  1.005831  0
H  H5  1  0.05398804  0.69857814  0.64645991  1  0  0.116646  0.119611  0  1.005784  0
H  H6  1  0.57403892  0.72913792  0.17337120  1  0  0.126467  0.134717  0  0.946385  0
H  H7  1  0.27086998  0.42596618  0.32662786  1  0  0.126436  0.134681  0  0.946363  0
H  H8  1  0.42596121  0.27086605  0.82662866  1  0  0.126456  0.134692  0  0.946388  0
H  H9  1  0.72913217  0.57403367  0.67337204  1  0  0.126445  0.134688  0  0.946384  0
H  H10  1  0.33557768  0.39013997  0.99364082  1  0  0.103519  0.103824  0  1.040311  0
H  H11  1  0.60986036  0.66442486  0.50635947  1  0  0.103521  0.103849  0  1.040321  0
H  H12  1  0.66442241  0.60985987  0.00635874  1  0  0.103523  0.103838  0  1.0403  0
H  H13  1  0.39014183  0.33557911  0.49364037  1  0  0.103515  0.103796  0  1.040339  0
H  H14  1  0.92561306  0.68865493  0.07706370  1  0  0.107452  0.110052  0  1.00194  0
H  H15  1  0.31134716  0.07438595  0.42293608  1  0  0.10744  0.110024  0  1.001963  0
H  H16  1  0.07438703  0.31134491  0.92293623  1  0  0.107443  0.110045  0  1.001951  0
H  H17  1  0.68865502  0.92561597  0.57706378  1  0  0.107445  0.110045  0  1.001951  0
H  H18  1  0.33676735  0.68788549  0.10488315  1  0  0.305141  0.280419  0  1.01548  0
H  H19  1  0.31211779  0.66323267  0.39511725  1  0  0.305145  0.280501  0  1.015375  0
H  H20  1  0.66323070  0.31211641  0.89511715  1  0  0.305139  0.280434  0  1.015467  0
H  H21  1  0.68788436  0.33676717  0.60488338  1  0  0.305158  0.280507  0  1.015366  0
C  C22  1  0.33519246  0.06764815  0.19632489  1  0  0.232173  0.641346  0  4.096248  0
C  C23  1  0.93235386  0.66480817  0.30367485  1  0  0.232187  0.641348  0  4.096312  0
C  C24  1  0.66480763  0.93235169  0.80367541  1  0  0.232172  0.641442  0  4.096157  0
C  C25  1  0.06764621  0.33518961  0.69632511  1  0  0.232167  0.641369  0  4.096202  0
C  C26  1  0.50996943  0.92961778  0.15657867  1  0  -0.056944  -0.170256  0  3.941047  0
C  C27  1  0.07038481  0.49003112  0.34342067  1  0  -0.056911  -0.170162  0  3.940967  0
C  C28  1  0.49002861  0.07038412  0.84342126  1  0  -0.056939  -0.170248  0  3.940996  0
C  C29  1  0.92961525  0.50996665  0.65657966  1  0  -0.056895  -0.170187  0  3.94091  0
C  C30  1  0.31089727  0.10369595  0.08246513  1  0  0.240966  0.477113  0  4.130344  0
C  C31  1  0.89630901  0.68909596  0.41753581  1  0  0.241018  0.477037  0  4.130673  0
C  C32  1  0.68910078  0.89630595  0.91753480  1  0  0.241033  0.477234  0  4.130332  0
C  C33  1  0.10369314  0.31090389  0.58246409  1  0  0.240998  0.477075  0  4.130565  0
C  C34  1  0.15115625  0.04526756  0.04018588  1  0  -0.009371  -0.024021  0  3.97217  0
C  C35  1  0.95473508  0.84884177  0.45981470  1  0  -0.009378  -0.023934  0  3.972239  0
C  C36  1  0.84884178  0.95473227  0.95981408  1  0  -0.009408  -0.024075  0  3.972265  0
C  C37  1  0.04526712  0.15116220  0.54018514  1  0  -0.009397  -0.023965  0  3.972201  0
C  C38  1  0.18760894  0.21995159  0.99656858  1  0  -0.080908  -0.090393  0  3.965768  0
C  C39  1  0.78004843  0.81239257  0.50343136  1  0  -0.080936  -0.090482  0  3.965782  0
C  C40  1  0.81239322  0.78004826  0.00343096  1  0  -0.08092  -0.090427  0  3.965798  0
C  C41  1  0.21995376  0.18761140  0.49656847  1  0  -0.080936  -0.090435  0  3.965821  0
C  C42  1  0.96108729  0.82507372  0.04333674  1  0  -0.080453  -0.093456  0  3.955855  0
C  C43  1  0.17493009  0.03891207  0.45666269  1  0  -0.080421  -0.093403  0  3.955879  0
C  C44  1  0.03891073  0.17492612  0.95666285  1  0  -0.080455  -0.093468  0  3.955875  0
C  C45  1  0.82507210  0.96109191  0.54333715  1  0  -0.080418  -0.093431  0  3.955817  0
N  N46  1  0.36555050  0.88619828  0.11400484  1  0  -0.421829  -0.341928  0  3.602639  0
N  N47  1  0.11380568  0.63444904  0.38599491  1  0  -0.421851  -0.342028  0  3.602711  0
N  N48  1  0.63444960  0.11380157  0.88599472  1  0  -0.421853  -0.34199  0  3.602647  0
N  N49  1  0.88619645  0.36554874  0.61400539  1  0  -0.421899  -0.342042  0  3.602607  0
O  O50  1  0.44672302  0.15406456  0.23284575  1  0  -0.322489  -0.576516  0  2.349602  0
O  O51  1  0.84593157  0.55326713  0.26715496  1  0  -0.322511  -0.57656  0  2.349659  0
O  O52  1  0.55327705  0.84593321  0.76715458  1  0  -0.322487  -0.576567  0  2.349601  0
O  O53  1  0.15406431  0.44672444  0.73284589  1  0  -0.322506  -0.576552  0  2.349575  0
O  O54  1  0.07735123  0.08576610  0.19220988  1  0  -0.306277  -0.537475  0  2.365361  0
O  O55  1  0.91422708  0.92264274  0.30779059  1  0  -0.306271  -0.537465  0  2.365453  0
O  O56  1  0.92264678  0.91423167  0.80779047  1  0  -0.30626  -0.537508  0  2.365356  0
O  O57  1  0.08576678  0.07735295  0.69220986  1  0  -0.306264  -0.537489  0  2.365387  0
O  O58  1  0.38993146  0.34315465  0.08867484  1  0  -0.306156  -0.517615  0  2.183416  0
O  O59  1  0.65684866  0.61006162  0.41132767  1  0  -0.306193  -0.517631  0  2.183558  0
O  O60  1  0.61006865  0.65684725  0.91132506  1  0  -0.306205  -0.517696  0  2.183443  0
O  O61  1  0.34315142  0.38993822  0.58867263  1  0  -0.306161  -0.51765  0  2.183566  0
