# generated using pymatgen
data_Mn3H20C34O11F12
_symmetry_space_group_name_H-M   'P 1'
_cell_length_a   7.25431116
_cell_length_b   16.35796163
_cell_length_c   31.87992527
_cell_angle_alpha   89.99998983
_cell_angle_beta   90.00003671
_cell_angle_gamma   99.62932533
_symmetry_Int_Tables_number   1
_chemical_formula_structural   Mn3H20C34O11F12
_chemical_formula_sum   'Mn12 H80 C136 O44 F48'
_cell_volume   3729.75388342
_cell_formula_units_Z   4
loop_
 _symmetry_equiv_pos_site_id
 _symmetry_equiv_pos_as_xyz
  1  'x, y, z'
loop_
 _atom_site_type_symbol
 _atom_site_label
 _atom_site_symmetry_multiplicity
 _atom_site_fract_x
 _atom_site_fract_y
 _atom_site_fract_z
 _atom_site_occupancy
 _atom_site_pbe_bader_charge
 _atom_site_pbe_bader_spin_density
 _atom_site_pbe_cm5_charge
 _atom_site_pbe_ddec_charge
 _atom_site_pbe_ddec_spin_density
 _atom_site_pbe_ddec_sum_bond_order
 _atom_site_pbe_magmom
Mn  Mn0  1  0.74573049  0.60247122  0.07026556  1  1.497607  4.528612  0.591418  1.025009  4.634228  2.340498  4.456
Mn  Mn1  1  0.25425222  0.89752469  0.57026763  1  1.49757  4.528592  0.591381  1.024915  4.634243  2.340646  4.456
Mn  Mn2  1  0.25424307  0.39753703  0.92973148  1  1.497408  4.528656  0.591359  1.024855  4.634257  2.340726  4.456
Mn  Mn3  1  0.74575228  0.10246366  0.42973412  1  1.4974  4.52867  0.591375  1.024987  4.63423  2.340535  4.456
Mn  Mn4  1  0.72973258  0.37451924  0.92659066  1  1.531853  4.564145  0.607274  1.103227  4.671944  2.204069  4.488
Mn  Mn5  1  0.27025511  0.12547587  0.42659073  1  1.531804  4.564142  0.607251  1.10325  4.671937  2.204195  4.488
Mn  Mn6  1  0.27027447  0.62548648  0.07340418  1  1.531676  4.564166  0.607271  1.10337  4.672056  2.203993  4.488
Mn  Mn7  1  0.72974293  0.87451000  0.57340694  1  1.531692  4.564178  0.607309  1.103309  4.672112  2.203973  4.488
Mn  Mn8  1  0.00001309  0.50000376  0.99999747  1  1.536284  4.527857  0.615977  1.116088  4.652919  2.334571  4.465
Mn  Mn9  1  0.00000461  0.00001733  0.50000525  1  1.536039  4.527925  0.616038  1.116215  4.652922  2.334422  4.465
Mn  Mn10  1  0.50000090  0.49999607  0.99999688  1  1.488091  4.604992  0.572418  1.068376  4.723864  2.181465  4.526
Mn  Mn11  1  0.49998884  0.00000034  0.50000435  1  1.488024  4.605017  0.572409  1.068297  4.723883  2.181538  4.526
H  H12  1  0.84916686  0.23195405  0.99169466  1  0.09967  0.000342  0.109702  0.113831  -0.000373  1.012588  0.0
H  H13  1  0.15083579  0.26804724  0.49169500  1  0.099671  0.000342  0.109695  0.113789  -0.000373  1.012653  0.0
H  H14  1  0.15083690  0.76804671  0.00830489  1  0.099669  0.000343  0.109708  0.1138  -0.000372  1.012638  0.0
H  H15  1  0.84916611  0.73195228  0.50830486  1  0.099647  0.000343  0.109717  0.113869  -0.000372  1.012543  0.0
H  H16  1  0.86092651  0.19253750  0.28707256  1  0.125422  0.000272  0.1058  0.114108  2.6e-05  0.997999  0.0
H  H17  1  0.13907552  0.30746009  0.78707273  1  0.125434  0.000272  0.105797  0.114093  2.6e-05  0.998036  0.0
H  H18  1  0.13907216  0.80746078  0.71292825  1  0.125434  0.000272  0.105805  0.114091  2.6e-05  0.998008  0.0
H  H19  1  0.86092890  0.69253880  0.21292744  1  0.125446  0.000272  0.105797  0.114126  2.6e-05  0.997994  0.0
H  H20  1  0.95816565  0.11783746  0.03007008  1  0.089776  0.00013  0.100954  0.110337  5.4e-05  1.006597  0.0
H  H21  1  0.04183548  0.38216328  0.53007086  1  0.089788  0.00013  0.100949  0.1103  5.4e-05  1.006607  0.0
H  H22  1  0.04184158  0.88216516  0.96992978  1  0.089777  0.00013  0.100951  0.110283  5.4e-05  1.006632  0.0
H  H23  1  0.95815721  0.61783377  0.46992931  1  0.089808  0.00013  0.100975  0.110326  5.4e-05  1.006566  0.0
H  H24  1  0.79351613  0.21925333  0.14691131  1  0.054964  8.2e-05  0.09121  0.099667  5e-06  1.043835  0.0
H  H25  1  0.20647976  0.28074367  0.64691243  1  0.054918  8.2e-05  0.091199  0.099642  5e-06  1.043917  0.0
H  H26  1  0.20648829  0.78074556  0.85308793  1  0.054934  8.2e-05  0.091188  0.099647  5e-06  1.043909  0.0
H  H27  1  0.79351226  0.71925524  0.35308806  1  0.054957  8.2e-05  0.091195  0.099642  5e-06  1.043899  0.0
H  H28  1  0.66651625  0.32642013  0.10748021  1  0.090201  0.000371  0.103651  0.109662  -0.000177  1.019517  0.0
H  H29  1  0.33348163  0.17357874  0.60748042  1  0.090261  0.000371  0.10371  0.109735  -0.000177  1.019418  0.0
H  H30  1  0.33348404  0.67357877  0.89252028  1  0.090174  0.000371  0.103692  0.109706  -0.000177  1.019439  0.0
H  H31  1  0.66651938  0.82642202  0.39252038  1  0.090068  0.000371  0.103719  0.109734  -0.000177  1.019383  0.0
H  H32  1  0.12865392  0.94830701  0.09314887  1  0.094995  9.3e-05  0.094973  0.099009  1.5e-05  1.036896  0.0
H  H33  1  0.87134382  0.55169197  0.59314948  1  0.094973  9.3e-05  0.094969  0.099  1.5e-05  1.036916  0.0
H  H34  1  0.87135397  0.05169374  0.90685005  1  0.095074  9.3e-05  0.094971  0.099025  1.5e-05  1.036872  0.0
H  H35  1  0.12864707  0.44830757  0.40685069  1  0.095058  9.3e-05  0.094966  0.098998  1.5e-05  1.03691  0.0
H  H36  1  0.96103335  0.81351158  0.06781669  1  0.101964  6.2e-05  0.107473  0.111051  -0.000852  1.021236  0.0
H  H37  1  0.03896570  0.68648740  0.56781843  1  0.102001  6.2e-05  0.107474  0.110979  -0.000851  1.021296  0.0
H  H38  1  0.03897179  0.18648917  0.93218317  1  0.101999  6.2e-05  0.107484  0.111038  -0.000851  1.021258  0.0
H  H39  1  0.96103184  0.31351150  0.43218300  1  0.102015  6.2e-05  0.107489  0.111091  -0.000852  1.021191  0.0
H  H40  1  0.60802777  0.04327412  0.09370164  1  0.10357  6.5e-05  0.095098  0.101517  2e-06  1.03193  0.0
H  H41  1  0.39197444  0.45672537  0.59370247  1  0.103596  6.5e-05  0.095076  0.101475  2e-06  1.031969  0.0
H  H42  1  0.39198246  0.95672911  0.90629822  1  0.103539  6.5e-05  0.095109  0.101477  2e-06  1.032011  0.0
H  H43  1  0.60801824  0.54327168  0.40629802  1  0.103522  6.5e-05  0.095116  0.101493  2e-06  1.032003  0.0
H  H44  1  0.23220008  0.38700278  0.09361879  1  0.081053  0.000953  0.111172  0.112858  -0.000302  0.998261  0.0
H  H45  1  0.76779913  0.11299609  0.59361844  1  0.081042  0.000953  0.111153  0.112827  -0.000302  0.998271  0.0
H  H46  1  0.76779859  0.61299550  0.90638107  1  0.081086  0.000953  0.111155  0.112835  -0.000302  0.998319  0.0
H  H47  1  0.23220577  0.88700405  0.40638111  1  0.081074  0.000953  0.111153  0.112823  -0.000302  0.998316  0.0
H  H48  1  0.41894190  0.33897395  0.14937552  1  0.083846  7.3e-05  0.095974  0.102573  -4.7e-05  1.042986  0.0
H  H49  1  0.58105885  0.16102491  0.64937515  1  0.083866  7.3e-05  0.095967  0.102568  -4.7e-05  1.043001  0.0
H  H50  1  0.58105516  0.66102371  0.85062465  1  0.083847  7.3e-05  0.095952  0.102547  -4.7e-05  1.042959  0.0
H  H51  1  0.41894282  0.83897399  0.35062409  1  0.083842  7.3e-05  0.095972  0.102569  -4.7e-05  1.04299  0.0
H  H52  1  0.09726902  0.44702941  0.24209936  1  0.082434  9.4e-05  0.100059  0.110848  2.7e-05  1.009369  0.0
H  H53  1  0.90272923  0.05296944  0.74209904  1  0.082444  9.4e-05  0.100067  0.11087  2.7e-05  1.009378  0.0
H  H54  1  0.90272827  0.55296888  0.75790113  1  0.08241  9.4e-05  0.10007  0.11089  2.7e-05  1.009361  0.0
H  H55  1  0.09726878  0.94703070  0.25790082  1  0.082436  9.4e-05  0.100052  0.110848  2.7e-05  1.009392  0.0
H  H56  1  0.26837888  0.29645000  0.37909061  1  0.11956  0.000465  0.107899  0.112432  -0.000247  1.047396  0.0
H  H57  1  0.73161657  0.20355131  0.87908993  1  0.11959  0.000465  0.10788  0.112392  -0.000247  1.047447  0.0
H  H58  1  0.73161961  0.70355138  0.62091051  1  0.119607  0.000465  0.107903  0.112404  -0.000247  1.0475  0.0
H  H59  1  0.26837869  0.79644884  0.12090930  1  0.119554  0.000465  0.107892  0.112427  -0.000247  1.047408  0.0
H  H60  1  0.90824053  0.49438601  0.18512595  1  0.093453  0.000199  0.100873  0.10821  -0.000194  1.02078  0.0
H  H61  1  0.09175803  0.00561408  0.68512583  1  0.093463  0.000199  0.100879  0.108229  -0.000194  1.020814  0.0
H  H62  1  0.09176023  0.50561413  0.81487423  1  0.093457  0.000199  0.100888  0.108234  -0.000194  1.020768  0.0
H  H63  1  0.90824273  0.99438606  0.31487435  1  0.093474  0.000199  0.100896  0.108234  -0.000194  1.020798  0.0
H  H64  1  0.45925522  0.37414592  0.32395027  1  0.091781  5.3e-05  0.09979  0.112485  -2e-06  1.016264  0.0
H  H65  1  0.54074194  0.12585664  0.82394927  1  0.091934  5.4e-05  0.099794  0.112483  -2e-06  1.016232  0.0
H  H66  1  0.54074076  0.62585609  0.67605022  1  0.091916  5.4e-05  0.099793  0.112514  -2e-06  1.016206  0.0
H  H67  1  0.45925793  0.87414475  0.17604934  1  0.091796  5.3e-05  0.099808  0.112495  -2e-06  1.016202  0.0
H  H68  1  0.05465274  0.26886310  0.23105888  1  0.094155  0.000112  0.100046  0.11204  6.9e-05  1.024199  0.0
H  H69  1  0.94535099  0.23113574  0.73105886  1  0.094142  0.000112  0.10005  0.112061  6.9e-05  1.024146  0.0
H  H70  1  0.94534802  0.73113704  0.76894161  1  0.094101  0.000112  0.100031  0.112016  6.9e-05  1.024198  0.0
H  H71  1  0.05465367  0.76886377  0.26894100  1  0.094158  0.000112  0.100021  0.111995  6.9e-05  1.024156  0.0
H  H72  1  0.44059587  0.90536713  0.07173604  1  0.055374  0.000412  0.103877  0.107026  8e-06  1.0036  0.0
H  H73  1  0.55940414  0.59463434  0.57173818  1  0.055394  0.000412  0.103926  0.107032  8e-06  1.003545  0.0
H  H74  1  0.55940932  0.09463735  0.92826382  1  0.055239  0.000413  0.103899  0.107025  8e-06  1.003612  0.0
H  H75  1  0.44059316  0.40536394  0.42826451  1  0.055252  0.000412  0.103873  0.106996  8e-06  1.003631  0.0
H  H76  1  0.79274391  0.61783781  0.99071910  1  0.584296  0.009204  0.318797  0.40509  0.005366  0.885254  0.008
H  H77  1  0.20725522  0.88216546  0.49071882  1  0.584351  0.009205  0.318803  0.405111  0.005366  0.885191  0.008
H  H78  1  0.20725087  0.38216110  0.00928013  1  0.584334  0.009207  0.318826  0.40513  0.005367  0.885224  0.008
H  H79  1  0.79274702  0.11784212  0.50927979  1  0.584251  0.009207  0.318795  0.40506  0.005367  0.885278  0.008
H  H80  1  0.44021407  0.49747764  0.08294249  1  0.609642  0.007194  0.306217  0.38664  0.005039  0.9271  0.008
H  H81  1  0.55978535  0.00252185  0.58294275  1  0.609634  0.007192  0.306226  0.386567  0.005038  0.927134  0.008
H  H82  1  0.55977477  0.50252376  0.91705737  1  0.609608  0.007193  0.306217  0.386577  0.005038  0.927122  0.008
H  H83  1  0.44022183  0.99747704  0.41705805  1  0.609631  0.007191  0.306221  0.386612  0.005037  0.927129  0.008
H  H84  1  0.48821223  0.36117387  0.85678747  1  0.651755  0.001447  0.309922  0.408877  0.001077  0.90978  0.001
H  H85  1  0.51178819  0.13882620  0.35678725  1  0.651755  0.001447  0.309924  0.408892  0.001077  0.909759  0.001
H  H86  1  0.51178668  0.63882503  0.14321239  1  0.651763  0.001447  0.309893  0.40886  0.001078  0.909796  0.001
H  H87  1  0.48821258  0.86117394  0.64321292  1  0.651727  0.001447  0.309895  0.408856  0.001077  0.909823  0.001
H  H88  1  0.67191503  0.33309090  0.84126236  1  0.604803  0.001648  0.304076  0.378184  0.001039  0.940114  0.001
H  H89  1  0.32808511  0.16690855  0.34126179  1  0.604804  0.001648  0.30413  0.378252  0.001039  0.940131  0.001
H  H90  1  0.32808364  0.66690738  0.15873845  1  0.6048  0.001648  0.30404  0.378161  0.001039  0.940173  0.001
H  H91  1  0.67191428  0.83309159  0.65873932  1  0.604385  0.001648  0.304118  0.378227  0.001039  0.940173  0.001
C  C92  1  0.69150616  0.35626260  0.02409702  1  1.527783  0.041986  0.233259  0.595778  0.040978  4.141888  0.033
C  C93  1  0.30850190  0.14374185  0.52409754  1  1.527627  0.042005  0.23328  0.595857  0.040992  4.141955  0.033
C  C94  1  0.30850107  0.64374001  0.97590253  1  1.527643  0.042006  0.233295  0.595871  0.040993  4.1418  0.033
C  C95  1  0.69150605  0.85626262  0.47590326  1  1.52779  0.041979  0.233253  0.595772  0.040972  4.141861  0.033
C  C96  1  0.75043306  0.28623280  0.04728936  1  -0.02445  0.001155  -0.014198  -0.033602  -0.000655  3.979593  -0.001
C  C97  1  0.24956859  0.21376918  0.54729019  1  -0.024874  0.001154  -0.014182  -0.033549  -0.000657  3.979356  -0.001
C  C98  1  0.24957117  0.71376920  0.95271019  1  -0.024832  0.001154  -0.014145  -0.033436  -0.000657  3.979423  -0.001
C  C99  1  0.75043241  0.78623158  0.45271030  1  -0.024847  0.001156  -0.014229  -0.033604  -0.000654  3.979472  -0.001
C  C100  1  0.83556270  0.22781516  0.02567608  1  -0.032797  0.008073  -0.079033  -0.0774  0.005459  3.950066  0.005
C  C101  1  0.16443842  0.27218558  0.52567658  1  -0.032338  0.008076  -0.079064  -0.077444  0.005462  3.950143  0.005
C  C102  1  0.16443968  0.77218560  0.97432347  1  -0.032374  0.008077  -0.079131  -0.07756  0.005462  3.950115  0.005
C  C103  1  0.83556049  0.72781332  0.47432360  1  -0.032325  0.00807  -0.079049  -0.077501  0.005457  3.950036  0.005
C  C104  1  0.89834639  0.16437775  0.04745814  1  -0.083176  -0.001508  -0.093386  -0.129857  -0.00152  3.969282  -0.001
C  C105  1  0.10165616  0.33562298  0.54745862  1  -0.083169  -0.00151  -0.09342  -0.129851  -0.001521  3.969258  -0.001
C  C106  1  0.10165761  0.83562363  0.95254141  1  -0.083151  -0.001509  -0.09339  -0.1298  -0.001521  3.969169  -0.001
C  C107  1  0.89834275  0.66437592  0.45254156  1  -0.08322  -0.001507  -0.093421  -0.129825  -0.001519  3.969141  -0.001
C  C108  1  0.88766314  0.16050383  0.09148239  1  -0.045024  0.008537  -0.016333  0.085269  0.006684  3.946837  0.006
C  C109  1  0.11233583  0.33949441  0.59148287  1  -0.045014  0.008543  -0.016247  0.085438  0.006688  3.946669  0.006
C  C110  1  0.11234475  0.83949692  0.90851747  1  -0.044993  0.008542  -0.016279  0.085438  0.006688  3.946657  0.006
C  C111  1  0.88765434  0.66050326  0.40851730  1  -0.0449  0.008534  -0.016334  0.085322  0.006682  3.946708  0.006
C  C112  1  0.80408172  0.21948505  0.11293068  1  0.009921  -0.001736  -0.098993  -0.138597  -0.001776  3.981083  -0.002
C  C113  1  0.19591731  0.28051319  0.61293149  1  0.009881  -0.001737  -0.099012  -0.138662  -0.001777  3.981253  -0.002
C  C114  1  0.19592480  0.78051570  0.88706887  1  0.010393  -0.001737  -0.099043  -0.138755  -0.001777  3.981271  -0.002
C  C115  1  0.80407585  0.71948510  0.38706900  1  0.010396  -0.001735  -0.099001  -0.138638  -0.001775  3.981202  -0.002
C  C116  1  0.73157695  0.28051937  0.09084592  1  0.022943  0.008639  -0.083561  -0.084078  0.006389  3.965716  0.005
C  C117  1  0.26842435  0.21948136  0.59084675  1  0.022822  0.008643  -0.083555  -0.084066  0.006392  3.965511  0.005
C  C118  1  0.26842519  0.71948077  0.90915362  1  0.022447  0.008643  -0.083544  -0.084056  0.006392  3.965589  0.005
C  C119  1  0.73157690  0.78052002  0.40915405  1  0.022562  0.008636  -0.083573  -0.084085  0.006387  3.965562  0.005
C  C120  1  0.97106994  0.09067271  0.11305083  1  0.030634  0.00013  -0.009147  -0.270474  0.000138  3.844153  -0.001
C  C121  1  0.02893070  0.40932616  0.61305130  1  0.030656  0.00013  -0.009166  -0.270502  0.000138  3.844111  -0.001
C  C122  1  0.02894071  0.90932804  0.88694840  1  0.030598  0.00013  -0.009162  -0.270432  0.000138  3.843869  -0.001
C  C123  1  0.97105970  0.59067214  0.38694825  1  0.030499  0.00013  -0.009152  -0.270576  0.000138  3.844069  -0.001
C  C124  1  0.93420863  0.08616642  0.16129718  1  1.724097  0.000526  0.302637  0.679529  0.000458  3.967307  0.0
C  C125  1  0.06578664  0.41383245  0.66129765  1  1.723906  0.000526  0.302572  0.679307  0.000458  3.967607  0.0
C  C126  1  0.06580639  0.91383494  0.83870237  1  1.723707  0.000526  0.30248  0.679411  0.000458  3.96755  0.0
C  C127  1  0.93419113  0.58616525  0.33870222  1  1.723729  0.000526  0.30247  0.679573  0.000458  3.967242  0.0
C  C128  1  0.18783509  0.11048403  0.10607868  1  1.742975  0.000453  0.303193  0.677487  0.000382  3.960216  0.0
C  C129  1  0.81216416  0.38951484  0.60607831  1  1.742988  0.000454  0.30322  0.677626  0.000383  3.960109  0.0
C  C130  1  0.81217693  0.88951672  0.89392025  1  1.742764  0.000454  0.303182  0.677664  0.000383  3.959769  0.0
C  C131  1  0.18782326  0.61048284  0.39391935  1  1.74293  0.000454  0.30322  0.677832  0.000382  3.95987  0.0
C  C132  1  0.88022610  0.00600850  0.09526628  1  -0.028611  0.009196  -0.018564  0.083083  0.00721  3.947981  0.006
C  C133  1  0.11977360  0.49399161  0.59526644  1  -0.028501  0.009197  -0.018573  0.083094  0.00721  3.947973  0.006
C  C134  1  0.11978203  0.99399288  0.90473358  1  -0.028508  0.009191  -0.018519  0.083108  0.007206  3.948049  0.006
C  C135  1  0.88022004  0.50600792  0.40473311  1  -0.028526  0.00919  -0.018545  0.083132  0.007205  3.948091  0.006
C  C136  1  0.97865957  0.94073255  0.08778631  1  -0.060793  -0.001328  -0.097358  -0.136372  -0.001365  3.988828  -0.001
C  C137  1  0.02133978  0.55926705  0.58778743  1  -0.060769  -0.001328  -0.097345  -0.136408  -0.001365  3.98883  -0.001
C  C138  1  0.02134833  0.05926820  0.91221293  1  -0.053624  -0.001334  -0.097326  -0.136353  -0.001364  3.988696  -0.001
C  C139  1  0.97865386  0.44073248  0.41221306  1  -0.053625  -0.001334  -0.09734  -0.136376  -0.001364  3.988793  -0.001
C  C140  1  0.88472517  0.86425771  0.07390202  1  -0.002377  0.007694  -0.083619  -0.08212  0.005678  3.955262  0.005
C  C141  1  0.11527599  0.63574313  0.57390440  1  -0.002372  0.007695  -0.083578  -0.081958  0.005678  3.955232  0.005
C  C142  1  0.11527997  0.13574305  0.92609659  1  -0.009514  0.007698  -0.083673  -0.082165  0.005675  3.95528  0.005
C  C143  1  0.88472088  0.36425763  0.42609766  1  -0.009503  0.007697  -0.083649  -0.08214  0.005674  3.955256  0.005
C  C144  1  0.69018134  0.85025227  0.06879440  1  0.005297  0.001153  -0.016686  -0.033593  -0.000232  3.972149  0.0
C  C145  1  0.30981819  0.64974795  0.56879650  1  0.005392  0.001154  -0.01679  -0.033754  -0.00023  3.972293  0.0
C  C146  1  0.30982290  0.14974972  0.93120546  1  0.005234  0.001156  -0.016761  -0.033743  -0.000229  3.972126  0.0
C  C147  1  0.69017797  0.35025095  0.43120525  1  0.005302  0.001156  -0.016764  -0.033789  -0.000228  3.972274  0.0
C  C148  1  0.59175086  0.91560092  0.07606511  1  -0.051705  0.008333  -0.081421  -0.080237  0.006178  3.961182  0.005
C  C149  1  0.40824845  0.58439869  0.57606723  1  -0.051703  0.008333  -0.081428  -0.080167  0.006178  3.961092  0.005
C  C150  1  0.40825499  0.08440170  0.92393444  1  -0.051367  0.008328  -0.081372  -0.080111  0.006175  3.961293  0.005
C  C151  1  0.59174585  0.41559898  0.42393483  1  -0.051427  0.008327  -0.081356  -0.080038  0.006174  3.961216  0.005
C  C152  1  0.68611482  0.99282768  0.08854193  1  -0.045509  -0.002236  -0.091179  -0.124219  -0.002243  3.965358  -0.002
C  C153  1  0.31388590  0.50717192  0.58854341  1  -0.045749  -0.002236  -0.091159  -0.124189  -0.002243  3.965326  -0.002
C  C154  1  0.31389516  0.00717493  0.91145762  1  -0.045845  -0.002234  -0.091253  -0.124254  -0.002241  3.965649  -0.002
C  C155  1  0.68610726  0.49282637  0.41145802  1  -0.045757  -0.002234  -0.091237  -0.124294  -0.002241  3.965539  -0.002
C  C156  1  0.59151528  0.76519544  0.05800830  1  1.551199  0.035531  0.223194  0.591752  0.034701  4.178844  0.029
C  C157  1  0.40848331  0.73480603  0.55801040  1  1.551188  0.035535  0.223277  0.591822  0.034704  4.178619  0.029
C  C158  1  0.40848991  0.23480904  0.94199188  1  1.551359  0.035518  0.223301  0.591881  0.034691  4.178597  0.029
C  C159  1  0.59151213  0.26519101  0.44199134  1  1.551297  0.035514  0.223285  0.591797  0.034687  4.178605  0.029
C  C160  1  0.95928434  0.48199146  0.10184533  1  1.530924  0.035874  0.222776  0.574671  0.035674  4.185263  0.029
C  C161  1  0.04071723  0.01800988  0.60184614  1  1.530871  0.035891  0.222801  0.574612  0.035691  4.185373  0.029
C  C162  1  0.04071762  0.51801178  0.89815422  1  1.530337  0.035904  0.222764  0.57456  0.035694  4.185345  0.029
C  C163  1  0.95928558  0.98198839  0.39815466  1  1.530325  0.03589  0.222783  0.574667  0.035679  4.185275  0.029
C  C164  1  0.05979603  0.44518987  0.13575877  1  -0.045879  0.000837  -0.015089  -0.034922  -0.000571  3.985015  -0.001
C  C165  1  0.94020539  0.05481085  0.63575846  1  -0.045937  0.000835  -0.015047  -0.034794  -0.000572  3.984939  -0.001
C  C166  1  0.94020336  0.55481028  0.86424140  1  -0.045959  0.000836  -0.015051  -0.034822  -0.000573  3.98502  -0.001
C  C167  1  0.05979699  0.94518990  0.36424141  1  -0.045928  0.000837  -0.015074  -0.034921  -0.000571  3.98501  -0.001
C  C168  1  0.20337339  0.40074948  0.12620418  1  -0.038705  0.010564  -0.078928  -0.080934  0.007259  3.954503  0.006
C  C169  1  0.79662592  0.09924938  0.62620384  1  -0.038725  0.010569  -0.078935  -0.080921  0.007263  3.954573  0.006
C  C170  1  0.79662343  0.59924756  0.87379631  1  -0.038764  0.010571  -0.078981  -0.081014  0.007264  3.954656  0.006
C  C171  1  0.20337970  0.90075262  0.37379602  1  -0.03873  0.010566  -0.078945  -0.080921  0.00726  3.954584  0.006
C  C172  1  0.30886304  0.37321889  0.15804994  1  -0.027298  -0.001883  -0.094223  -0.127043  -0.002016  3.964262  -0.002
C  C173  1  0.69113749  0.12677934  0.65804958  1  -0.027303  -0.001885  -0.094212  -0.127079  -0.002017  3.964342  -0.002
C  C174  1  0.69113563  0.62677939  0.84195024  1  -0.027284  -0.001885  -0.094155  -0.126977  -0.002018  3.964178  -0.002
C  C175  1  0.30886417  0.87321956  0.34194997  1  -0.027301  -0.001884  -0.094217  -0.127036  -0.002016  3.964296  -0.002
C  C176  1  0.27346730  0.38993435  0.20011402  1  -0.013338  0.0109  -0.015737  0.085129  0.008513  3.945182  0.007
C  C177  1  0.72652922  0.11006389  0.70011367  1  -0.013318  0.010907  -0.015717  0.085183  0.008518  3.945271  0.007
C  C178  1  0.72653000  0.61006393  0.79988615  1  -0.01331  0.010908  -0.01574  0.085077  0.008519  3.945176  0.007
C  C179  1  0.27347131  0.88993563  0.29988588  1  -0.013288  0.010902  -0.015753  0.085045  0.008515  3.945253  0.007
C  C180  1  0.12780739  0.43367978  0.20958737  1  -0.05819  -0.001621  -0.091162  -0.128501  -0.001743  3.962928  -0.002
C  C181  1  0.87219077  0.06631907  0.70958736  1  -0.058204  -0.001622  -0.091217  -0.128609  -0.001745  3.962813  -0.002
C  C182  1  0.87218990  0.56631851  0.79041281  1  -0.05819  -0.001623  -0.091214  -0.128655  -0.001746  3.96283  -0.002
C  C183  1  0.12781138  0.93368106  0.29041251  1  -0.058219  -0.001621  -0.091174  -0.128572  -0.001744  3.962869  -0.002
C  C184  1  0.02099865  0.46039644  0.17777894  1  0.043492  0.009213  -0.081547  -0.074717  0.006759  3.953188  0.006
C  C185  1  0.97900104  0.03960303  0.67777832  1  0.043497  0.009219  -0.081558  -0.074768  0.006764  3.95305  0.006
C  C186  1  0.97899889  0.53960246  0.82222155  1  0.043497  0.00922  -0.081512  -0.074643  0.006764  3.952992  0.006
C  C187  1  0.02100135  0.96039772  0.32222123  1  0.043499  0.009215  -0.081505  -0.074613  0.00676  3.953018  0.006
C  C188  1  0.39279122  0.36621234  0.23661914  1  0.040067  0.000157  -0.009984  -0.270107  0.000159  3.843539  0.0
C  C189  1  0.60721001  0.13378712  0.73661845  1  0.039974  0.000157  -0.009945  -0.27006  0.000159  3.843512  0.0
C  C190  1  0.60720632  0.63378656  0.76338167  1  0.04001  0.000157  -0.009919  -0.269842  0.000159  3.843231  0.0
C  C191  1  0.39279327  0.86621239  0.26338078  1  0.039996  0.000157  -0.009984  -0.269858  0.000159  3.843321  0.0
C  C192  1  0.51516453  0.30009532  0.22387037  1  1.721149  0.000331  0.303479  0.673783  0.000276  3.966923  0.0
C  C193  1  0.48483690  0.19990476  0.72386904  1  1.720899  0.000331  0.303458  0.673935  0.000276  3.966711  0.0
C  C194  1  0.48483486  0.69990482  0.77613074  1  1.720898  0.000331  0.303578  0.674007  0.000276  3.966667  0.0
C  C195  1  0.51516453  0.80009351  0.27613020  1  1.720686  0.000331  0.303466  0.673711  0.000276  3.967061  0.0
C  C196  1  0.52482597  0.44779533  0.24978824  1  1.733614  0.000634  0.302128  0.676368  0.000564  3.969949  0.001
C  C197  1  0.47517325  0.05220600  0.74978786  1  1.733546  0.000634  0.302206  0.676388  0.000564  3.969846  0.001
C  C198  1  0.47516767  0.55220420  0.75021162  1  1.733373  0.000634  0.302175  0.676464  0.000564  3.969786  0.001
C  C199  1  0.52483051  0.94779476  0.25021137  1  1.733576  0.000634  0.302166  0.676314  0.000564  3.970014  0.001
C  C200  1  0.27039572  0.32703402  0.27319858  1  -0.088054  0.004863  -0.013373  0.086606  0.003795  3.939494  0.003
C  C201  1  0.72960495  0.17296730  0.77319822  1  -0.087997  0.004864  -0.013429  0.086529  0.003796  3.93956  0.003
C  C202  1  0.72960229  0.67296612  0.72680223  1  -0.088051  0.004864  -0.013496  0.086374  0.003796  3.939624  0.003
C  C203  1  0.27039905  0.82703408  0.22680133  1  -0.08752  0.004863  -0.013385  0.086552  0.003795  3.939519  0.003
C  C204  1  0.32839327  0.33512993  0.31518582  1  -0.011774  -0.000554  -0.092568  -0.127822  -0.000625  3.960705  -0.001
C  C205  1  0.67160386  0.16487263  0.81518514  1  -0.011961  -0.000554  -0.092577  -0.127841  -0.000625  3.960668  -0.001
C  C206  1  0.67160384  0.66487146  0.68481530  1  -0.011965  -0.000554  -0.092548  -0.127823  -0.000625  3.960613  -0.001
C  C207  1  0.32839486  0.83512937  0.18481410  1  -0.011741  -0.000554  -0.09259  -0.127859  -0.000625  3.960663  -0.001
C  C208  1  0.22032798  0.29150197  0.34662472  1  -0.09094  0.00469  -0.085315  -0.108331  0.003257  3.982107  0.003
C  C209  1  0.77966990  0.20849873  0.84662437  1  -0.090964  0.004691  -0.085284  -0.108285  0.003257  3.982134  0.003
C  C210  1  0.77966980  0.70849756  0.65337609  1  -0.091759  0.004691  -0.0853  -0.108329  0.003258  3.982183  0.003
C  C211  1  0.22032697  0.79150204  0.15337518  1  -0.090962  0.00469  -0.085323  -0.108349  0.003256  3.982215  0.003
C  C212  1  0.05217306  0.23945292  0.33653717  1  -0.000904  -0.000807  -0.016264  -0.044791  -0.002238  3.998003  -0.002
C  C213  1  0.94782683  0.26054591  0.83653715  1  -0.000909  -0.000807  -0.016273  -0.044758  -0.002238  3.998029  -0.002
C  C214  1  0.94782447  0.76054598  0.66346364  1  -9.4e-05  -0.000807  -0.016256  -0.044715  -0.002238  3.998011  -0.002
C  C215  1  0.05217232  0.73945361  0.16346177  1  -0.000903  -0.000807  -0.016194  -0.044663  -0.002238  3.997904  -0.002
C  C216  1  0.99199393  0.23261905  0.29478400  1  -0.022838  0.004607  -0.078656  -0.07388  0.003445  3.947943  0.003
C  C217  1  0.00800608  0.26738041  0.79478385  1  -0.022857  0.004608  -0.078675  -0.073883  0.003445  3.948003  0.003
C  C218  1  0.00800522  0.76738047  0.70521680  1  -0.022855  0.004608  -0.078617  -0.073808  0.003445  3.947984  0.003
C  C219  1  0.99199354  0.73262035  0.20521570  1  -0.022828  0.004607  -0.0787  -0.073984  0.003445  3.947965  0.003
C  C220  1  0.10110072  0.27559461  0.26347928  1  -0.026057  -0.000612  -0.089444  -0.121282  -0.000652  3.960323  -0.001
C  C221  1  0.89890082  0.22440547  0.76347926  1  -0.026077  -0.000611  -0.089437  -0.121307  -0.000651  3.960336  -0.001
C  C222  1  0.89889843  0.72440491  0.73652121  1  -0.026072  -0.000612  -0.089458  -0.121288  -0.000652  3.960333  -0.001
C  C223  1  0.10110156  0.77559529  0.23652029  1  -0.026637  -0.000612  -0.089435  -0.12123  -0.000652  3.960305  -0.001
C  C224  1  0.93915483  0.19023061  0.36947113  1  1.522983  0.016175  0.225562  0.58822  0.015891  4.159861  0.013
C  C225  1  0.06084491  0.30976760  0.86947129  1  1.522983  0.016177  0.225548  0.588116  0.015893  4.159862  0.013
C  C226  1  0.06084660  0.80976767  0.63053030  1  1.522987  0.016179  0.225461  0.588036  0.015896  4.159972  0.013
C  C227  1  0.93915514  0.69023068  0.13052795  1  1.52299  0.016172  0.225587  0.588235  0.015888  4.159905  0.013
O  O228  1  0.79792070  0.38458265  0.99253593  1  -1.236469  0.105359  -0.314052  -0.633819  0.078351  2.459451  0.037
O  O229  1  0.20208704  0.11542111  0.49253661  1  -1.23631  0.105369  -0.314101  -0.633901  0.078369  2.459818  0.037
O  O230  1  0.20208078  0.61541935  0.00746299  1  -1.236238  0.105347  -0.314084  -0.633903  0.078368  2.459773  0.037
O  O231  1  0.79792618  0.88458274  0.50746357  1  -1.236378  0.10533  -0.314061  -0.63382  0.078346  2.459401  0.037
O  O232  1  0.55238283  0.38739522  0.03561240  1  -1.179592  0.082129  -0.282651  -0.528698  0.05743  2.238219  0.047
O  O233  1  0.44762226  0.11260861  0.53561358  1  -1.179434  0.082119  -0.282646  -0.528743  0.057437  2.238222  0.047
O  O234  1  0.44762463  0.61260801  0.96438715  1  -1.17957  0.082137  -0.282656  -0.528808  0.057439  2.238203  0.047
O  O235  1  0.55238084  0.88739401  0.46438785  1  -1.179577  0.082116  -0.282634  -0.528697  0.057422  2.238214  0.047
O  O236  1  0.68952799  0.71352409  0.04402114  1  -1.209723  0.064112  -0.316096  -0.57696  0.042642  2.337123  0.024
O  O237  1  0.31046619  0.78647677  0.54402353  1  -1.209762  0.064115  -0.316095  -0.576848  0.042641  2.336916  0.024
O  O238  1  0.31047055  0.28648102  0.95597747  1  -1.209766  0.064082  -0.316079  -0.576919  0.042628  2.336874  0.024
O  O239  1  0.68953362  0.21352089  0.45597758  1  -1.209802  0.064088  -0.316089  -0.576884  0.042627  2.336876  0.024
O  O240  1  0.41491718  0.74833578  0.06465291  1  -1.210148  0.082165  -0.31317  -0.586505  0.058263  2.307731  0.042
O  O241  1  0.58508120  0.75166507  0.56465535  1  -1.210208  0.082186  -0.313206  -0.586577  0.058266  2.307701  0.042
O  O242  1  0.58508574  0.25166994  0.93534633  1  -1.210303  0.082176  -0.313215  -0.586517  0.058254  2.307733  0.042
O  O243  1  0.41491467  0.24832950  0.43534671  1  -1.210245  0.082159  -0.313216  -0.586508  0.058248  2.307691  0.042
O  O244  1  0.05423581  0.50323062  0.06792643  1  -1.238256  0.099245  -0.303353  -0.627496  0.075503  2.434554  0.038
O  O245  1  0.94576485  0.99676899  0.56792733  1  -1.238272  0.099283  -0.303339  -0.627434  0.075509  2.434647  0.038
O  O246  1  0.94576842  0.49677138  0.93207312  1  -1.237665  0.099267  -0.303333  -0.627442  0.075512  2.434807  0.038
O  O247  1  0.05423473  0.00322805  0.43207379  1  -1.237655  0.099245  -0.303353  -0.627527  0.075517  2.434657  0.038
O  O248  1  0.79510840  0.49601788  0.10762544  1  -1.180352  0.070001  -0.295151  -0.530051  0.047545  2.258455  0.035
O  O249  1  0.20489157  0.00398285  0.60762534  1  -1.180288  0.069998  -0.295155  -0.530044  0.047551  2.258549  0.035
O  O250  1  0.20488871  0.50398351  0.89237442  1  -1.18024  0.069992  -0.295101  -0.529958  0.047557  2.258536  0.035
O  O251  1  0.79511124  0.99601543  0.39237452  1  -1.18013  0.069976  -0.295124  -0.530024  0.047551  2.258508  0.035
O  O252  1  0.02123416  0.16959831  0.40304987  1  -1.220412  0.090916  -0.30195  -0.593856  0.067949  2.373033  0.034
O  O253  1  0.97876268  0.33039928  0.90305017  1  -1.220423  0.09092  -0.301956  -0.593785  0.067946  2.372959  0.034
O  O254  1  0.97876931  0.83039811  0.59695093  1  -1.220292  0.090923  -0.301987  -0.593778  0.067946  2.373015  0.034
O  O255  1  0.02123348  0.66959963  0.09694876  1  -1.220472  0.090906  -0.301998  -0.593912  0.067943  2.372857  0.034
O  O256  1  0.76452131  0.16869404  0.36483779  1  -1.170011  0.051962  -0.29199  -0.547821  0.036389  2.222687  0.027
O  O257  1  0.23547980  0.33130417  0.86483829  1  -1.170009  0.05197  -0.291939  -0.547722  0.03639  2.222658  0.027
O  O258  1  0.23547988  0.83130362  0.63516364  1  -1.17003  0.051973  -0.291869  -0.54769  0.036389  2.22266  0.027
O  O259  1  0.76452097  0.66869598  0.13516126  1  -1.169988  0.051961  -0.291981  -0.547798  0.036386  2.222731  0.027
O  O260  1  0.78223110  0.56723402  0.00731435  1  -1.263511  0.195126  -0.557883  -0.880689  0.14997  2.218306  0.09
O  O261  1  0.21776250  0.93276560  0.50731735  1  -1.263555  0.195129  -0.557886  -0.880794  0.149989  2.218398  0.09
O  O262  1  0.21777655  0.43276611  0.99268488  1  -1.263656  0.195168  -0.557905  -0.880747  0.149994  2.218503  0.09
O  O263  1  0.78221898  0.06723457  0.49268659  1  -1.263464  0.195134  -0.557913  -0.880721  0.14999  2.218501  0.09
O  O264  1  0.46551252  0.54590744  0.06471283  1  -1.288868  0.202855  -0.557613  -0.878079  0.156064  2.217403  0.1
O  O265  1  0.53448257  0.95408845  0.56471619  1  -1.288575  0.202782  -0.557668  -0.877931  0.156049  2.217283  0.1
O  O266  1  0.53447423  0.45409210  0.93528515  1  -1.288613  0.202802  -0.557616  -0.877888  0.156052  2.217396  0.1
O  O267  1  0.46551814  0.04590797  0.43528650  1  -1.28883  0.202834  -0.557617  -0.877989  0.156051  2.217422  0.1
O  O268  1  0.62566442  0.37410377  0.85886653  1  -1.246523  0.053718  -0.553947  -0.749066  0.039612  2.0699  0.025
O  O269  1  0.37433487  0.12589692  0.35886630  1  -1.246546  0.053715  -0.553994  -0.749145  0.039611  2.069957  0.025
O  O270  1  0.37433407  0.62589761  0.14113239  1  -1.246574  0.053715  -0.553866  -0.749025  0.039603  2.069953  0.025
O  O271  1  0.62566542  0.87410198  0.64113357  1  -1.246134  0.053708  -0.553947  -0.749085  0.039605  2.069989  0.025
F  F272  1  0.25548304  0.19147534  0.11410254  1  -0.620461  0.000229  -0.094144  -0.199497  0.000137  1.355904  0.0
F  F273  1  0.74451371  0.30852414  0.61410217  1  -0.620486  0.00023  -0.094172  -0.199536  0.000138  1.355867  0.0
F  F274  1  0.74452760  0.80852540  0.88589764  1  -0.620405  0.00023  -0.094133  -0.199557  0.000138  1.355768  0.0
F  F275  1  0.25547029  0.69147540  0.38589644  1  -0.620416  0.000229  -0.094098  -0.19955  0.000137  1.355815  0.0
F  F276  1  0.23485182  0.09562732  0.06569810  1  -0.619768  6.8e-05  -0.092033  -0.19857  -1.2e-05  1.310132  0.0
F  F277  1  0.76514756  0.40437217  0.56569772  1  -0.619787  6.8e-05  -0.092024  -0.198597  -1.2e-05  1.310105  0.0
F  F278  1  0.76515631  0.90437405  0.93430051  1  -0.619663  6.8e-05  -0.092007  -0.19862  -1.2e-05  1.309967  0.0
F  F279  1  0.23484651  0.59562488  0.43429931  1  -0.619626  6.8e-05  -0.092099  -0.198716  -1.2e-05  1.309985  0.0
F  F280  1  0.28542364  0.06477533  0.13097774  1  -0.62476  0.000111  -0.098493  -0.206062  5.4e-05  1.326556  0.0
F  F281  1  0.71457568  0.43522354  0.63097736  1  -0.624746  0.000111  -0.098501  -0.20611  5.4e-05  1.326627  0.0
F  F282  1  0.71458887  0.93522666  0.86902118  1  -0.624655  0.000111  -0.098535  -0.20612  5.4e-05  1.326506  0.0
F  F283  1  0.28541268  0.56477662  0.36902031  1  -0.624835  0.000111  -0.098505  -0.206135  5.4e-05  1.326553  0.0
F  F284  1  0.99145514  0.01896681  0.17890451  1  -0.608209  8.1e-05  -0.10221  -0.203062  3.1e-05  1.334876  0.0
F  F285  1  0.00854156  0.48103205  0.67890433  1  -0.608206  8.1e-05  -0.102192  -0.203018  3.1e-05  1.334968  0.0
F  F286  1  0.00855898  0.98103579  0.82109473  1  -0.608162  8.1e-05  -0.102132  -0.203034  3e-05  1.3348  0.0
F  F287  1  0.99143735  0.51896502  0.32109522  1  -0.608148  8.1e-05  -0.102155  -0.203081  3e-05  1.33472  0.0
F  F288  1  0.02399042  0.15423018  0.18220274  1  -0.620968  0.000163  -0.095144  -0.206304  9.2e-05  1.354767  0.0
F  F289  1  0.97600054  0.34576807  0.68220241  1  -0.620869  0.000163  -0.095157  -0.206294  9.2e-05  1.354832  0.0
F  F290  1  0.97602437  0.84577056  0.81779712  1  -0.620868  0.000163  -0.095123  -0.206334  9.2e-05  1.354879  0.0
F  F291  1  0.02397172  0.65422963  0.31779683  1  -0.620901  0.000163  -0.095114  -0.206369  9.2e-05  1.354808  0.0
F  F292  1  0.74861064  0.08002222  0.16992736  1  -0.623016  3.8e-05  -0.093902  -0.200554  -1.2e-05  1.354898  0.0
F  F293  1  0.25138232  0.41997417  0.66992880  1  -0.622944  3.8e-05  -0.093852  -0.20044  -1.2e-05  1.35499  0.0
F  F294  1  0.25140048  0.91997977  0.83007219  1  -0.622826  3.8e-05  -0.093814  -0.200453  -1.2e-05  1.35512  0.0
F  F295  1  0.74859611  0.58002166  0.33007326  1  -0.622883  3.7e-05  -0.093783  -0.200461  -1.2e-05  1.355044  0.0
F  F296  1  0.59874082  0.49184776  0.21579727  1  -0.617229  0.000416  -0.09243  -0.197705  0.00013  1.335765  0.0
F  F297  1  0.40126173  0.00815171  0.71579750  1  -0.617168  0.000416  -0.092455  -0.197706  0.00013  1.335724  0.0
F  F298  1  0.40125558  0.50815177  0.78420197  1  -0.616967  0.000416  -0.092391  -0.197686  0.00013  1.335832  0.0
F  F299  1  0.59874179  0.99184843  0.28420236  1  -0.617181  0.000416  -0.092449  -0.197725  0.00013  1.335807  0.0
F  F300  1  0.42984547  0.49806641  0.27217317  1  -0.615615  8.6e-05  -0.094235  -0.195717  3e-05  1.322557  0.0
F  F301  1  0.57015315  0.00193677  0.77217437  1  -0.615593  8.6e-05  -0.094255  -0.19574  3e-05  1.322521  0.0
F  F302  1  0.57014955  0.50193311  0.72782575  1  -0.615587  8.6e-05  -0.094254  -0.195798  3e-05  1.322544  0.0
F  F303  1  0.42984880  0.99806647  0.22782643  1  -0.615591  8.6e-05  -0.094222  -0.195706  3e-05  1.322583  0.0
F  F304  1  0.67214817  0.43364985  0.27375914  1  -0.613809  0.000177  -0.099808  -0.21139  0.000101  1.354533  0.0
F  F305  1  0.32785387  0.06635147  0.77375905  1  -0.61381  0.000177  -0.099809  -0.211367  0.000101  1.35453  0.0
F  F306  1  0.32784960  0.56634968  0.72624010  1  -0.613885  0.000177  -0.099858  -0.21145  0.000101  1.354499  0.0
F  F307  1  0.67215013  0.93364990  0.22624050  1  -0.613871  0.000177  -0.099829  -0.211382  0.000101  1.354548  0.0
F  F308  1  0.40961613  0.23355985  0.20521160  1  -0.611574  8.5e-05  -0.093955  -0.195455  3.5e-05  1.343556  0.0
F  F309  1  0.59038315  0.26643838  0.70520965  1  -0.611177  8.5e-05  -0.093967  -0.195458  3.5e-05  1.343503  0.0
F  F310  1  0.59038506  0.76643781  0.79479045  1  -0.611156  8.5e-05  -0.093957  -0.195475  3.5e-05  1.343492  0.0
F  F311  1  0.40961462  0.73356115  0.29478990  1  -0.611173  8.5e-05  -0.093942  -0.195437  3.5e-05  1.343636  0.0
F  F312  1  0.65617478  0.33017911  0.19675426  1  -0.622576  0.000219  -0.088226  -0.198152  0.00013  1.349811  0.0
F  F313  1  0.34382700  0.16981850  0.69675353  1  -0.622613  0.000219  -0.088275  -0.198269  0.00013  1.349763  0.0
F  F314  1  0.34382779  0.66981855  0.80324749  1  -0.622647  0.000219  -0.088288  -0.198264  0.00013  1.349759  0.0
F  F315  1  0.65617419  0.83017916  0.30324602  1  -0.622591  0.000219  -0.088247  -0.198177  0.00013  1.349851  0.0
F  F316  1  0.59772970  0.27053426  0.25776444  1  -0.621064  0.000268  -0.098527  -0.20635  0.000142  1.342231  0.0
F  F317  1  0.40227392  0.22946768  0.75776309  1  -0.621074  0.000268  -0.098444  -0.206345  0.000142  1.342191  0.0
F  F318  1  0.40227130  0.72946650  0.74223762  1  -0.621064  0.000268  -0.098526  -0.20641  0.000142  1.342252  0.0
F  F319  1  0.59772961  0.77053246  0.24223646  1  -0.620904  0.000268  -0.098483  -0.206316  0.000142  1.342263  0.0
