# generated using pymatgen
data_ZnH12C14(NO2)2
_symmetry_space_group_name_H-M   'P 1'
_cell_length_a   5.13820726
_cell_length_b   9.36578964
_cell_length_c   13.77169176
_cell_angle_alpha   109.83555593
_cell_angle_beta   90.00065109
_cell_angle_gamma   89.99968581
_symmetry_Int_Tables_number   1
_chemical_formula_structural   ZnH12C14(NO2)2
_chemical_formula_sum   'Zn2 H24 C28 N4 O8'
_cell_volume   623.42006965
_cell_formula_units_Z   2
loop_
 _symmetry_equiv_pos_site_id
 _symmetry_equiv_pos_as_xyz
  1  'x, y, z'
loop_
 _atom_site_type_symbol
 _atom_site_label
 _atom_site_symmetry_multiplicity
 _atom_site_fract_x
 _atom_site_fract_y
 _atom_site_fract_z
 _atom_site_occupancy
 _atom_site_hle17_bader_spin_density
 _atom_site_hle17_ddec_charge
 _atom_site_hle17_ddec_spin_density
 _atom_site_hle17_ddec_sum_bond_order
 _atom_site_hle17_magmom
 _atom_site_hse06_10hf_bader_spin_density
 _atom_site_hse06_10hf_ddec_charge
 _atom_site_hse06_10hf_ddec_spin_density
 _atom_site_hse06_10hf_ddec_sum_bond_order
 _atom_site_hse06_10hf_magmom
 _atom_site_hse06_bader_spin_density
 _atom_site_hse06_ddec_charge
 _atom_site_hse06_ddec_spin_density
 _atom_site_hse06_ddec_sum_bond_order
 _atom_site_hse06_magmom
 _atom_site_pbe_bader_spin_density
 _atom_site_pbe_cm5_charge
 _atom_site_pbe_ddec_charge
 _atom_site_pbe_ddec_spin_density
 _atom_site_pbe_ddec_sum_bond_order
 _atom_site_pbe_magmom
Zn  Zn0  1  0.99999686  0.99999768  0.99999941  1  0  1.089731  0  1.761797  0  0  0.918495  0  2.199993  0  0  0.96491  0  2.147765  0  0  0.680691  0.885591  0  2.235715  0
Zn  Zn1  1  0.49999671  0.50000108  0.00000134  1  0  1.089562  0  1.761804  0  0  0.918345  0  2.199968  0  0  0.964747  0  2.147745  0  0  0.680693  0.88544  0  2.235681  0
H  H2  1  0.43469401  0.08509242  0.13085641  1  0  0.319741  0  0.904086  0  0  0.305029  0  0.964603  0  0  0.311518  0  0.960242  0  0  0.295383  0.300467  0  0.967632  0
H  H3  1  0.93469692  0.41490839  0.86914662  1  0  0.319731  0  0.90408  0  0  0.30503  0  0.964565  0  0  0.31152  0  0.960204  0  0  0.295386  0.300464  0  0.967595  0
H  H4  1  0.56529701  0.91490742  0.86913912  1  0  0.319788  0  0.904013  0  0  0.305053  0  0.964552  0  0  0.311548  0  0.960184  0  0  0.295377  0.30049  0  0.967583  0
H  H5  1  0.06530383  0.58509395  0.13085890  1  0  0.319739  0  0.904063  0  0  0.305033  0  0.964566  0  0  0.311521  0  0.96021  0  0  0.295384  0.300472  0  0.967596  0
H  H6  1  0.31064345  0.20514417  0.07538269  1  0  0.316051  0  0.930166  0  0  0.298001  0  0.993939  0  0  0.305785  0  0.987914  0  0  0.292619  0.292545  0  0.998112  0
H  H7  1  0.81064927  0.29486131  0.92462157  1  0  0.316185  0  0.930068  0  0  0.29808  0  0.993876  0  0  0.305865  0  0.98786  0  0  0.292661  0.292622  0  0.99805  0
H  H8  1  0.68935147  0.79485908  0.92461359  1  0  0.316154  0  0.930154  0  0  0.298141  0  0.993859  0  0  0.305926  0  0.987835  0  0  0.292679  0.292683  0  0.998035  0
H  H9  1  0.18935148  0.70514101  0.07538323  1  0  0.316154  0  0.930137  0  0  0.298133  0  0.993856  0  0  0.305918  0  0.987831  0  0  0.292666  0.292674  0  0.998032  0
H  H10  1  0.37500635  0.12946069  0.30656515  1  0  0.104545  0  0.960612  0  0  0.11482  0  1.022204  0  0  0.117226  0  1.022978  0  0  0.101669  0.113075  0  1.021885  0
H  H11  1  0.87499857  0.37053792  0.69343787  1  0  0.10455  0  0.96052  0  0  0.114818  0  1.022134  0  0  0.117228  0  1.022905  0  0  0.101654  0.113074  0  1.021818  0
H  H12  1  0.62497883  0.87053227  0.69342596  1  0  0.104689  0  0.960229  0  0  0.114962  0  1.021836  0  0  0.117386  0  1.02259  0  0  0.101722  0.113214  0  1.02152  0
H  H13  1  0.12500412  0.62946905  0.30657231  1  0  0.104644  0  0.960492  0  0  0.114876  0  1.022129  0  0  0.117316  0  1.022866  0  0  0.101711  0.113136  0  1.021812  0
H  H14  1  0.13250328  0.26372550  0.46788377  1  0  0.08169  0  0.965925  0  0  0.093858  0  1.026841  0  0  0.096056  0  1.026082  0  0  0.098469  0.092201  0  1.027533  0
H  H15  1  0.63249396  0.23627789  0.53212072  1  0  0.081592  0  0.965801  0  0  0.093764  0  1.026727  0  0  0.095932  0  1.026003  0  0  0.09843  0.092109  0  1.02742  0
H  H16  1  0.86749357  0.73625622  0.53210921  1  0  0.081782  0  0.966007  0  0  0.093942  0  1.026925  0  0  0.096141  0  1.026166  0  0  0.098447  0.092292  0  1.0276  0
H  H17  1  0.36751652  0.76373461  0.46788487  1  0  0.081653  0  0.965939  0  0  0.093878  0  1.026772  0  0  0.096064  0  1.026042  0  0  0.098468  0.09223  0  1.027446  0
H  H18  1  0.75567498  0.43050279  0.46449586  1  0  0.085065  0  0.965564  0  0  0.098014  0  1.023807  0  0  0.100522  0  1.023703  0  0  0.096512  0.096193  0  1.024089  0
H  H19  1  0.25566305  0.06949933  0.53550742  1  0  0.085188  0  0.965633  0  0  0.098116  0  1.023877  0  0  0.100625  0  1.023774  0  0  0.096537  0.096289  0  1.024161  0
H  H20  1  0.24432578  0.56948806  0.53550131  1  0  0.085091  0  0.965604  0  0  0.098024  0  1.023854  0  0  0.100532  0  1.023752  0  0  0.096521  0.096202  0  1.02414  0
H  H21  1  0.74435132  0.93050635  0.46449593  1  0  0.085174  0  0.965466  0  0  0.098096  0  1.023734  0  0  0.100606  0  1.023629  0  0  0.096561  0.096273  0  1.024021  0
H  H22  1  0.62667011  0.46140224  0.29812586  1  0  0.093422  0  0.966168  0  0  0.101285  0  1.032163  0  0  0.103619  0  1.032054  0  0  0.098958  0.099527  0  1.032432  0
H  H23  1  0.12667132  0.03860462  0.70188155  1  0  0.093566  0  0.96614  0  0  0.101439  0  1.032117  0  0  0.103738  0  1.032044  0  0  0.099002  0.099682  0  1.032385  0
H  H24  1  0.37333843  0.53859438  0.70187622  1  0  0.093419  0  0.965937  0  0  0.101277  0  1.031992  0  0  0.103576  0  1.031925  0  0  0.09897  0.099521  0  1.03226  0
H  H25  1  0.87333527  0.96139648  0.29811934  1  0  0.09346  0  0.966143  0  0  0.101319  0  1.03214  0  0  0.103617  0  1.032071  0  0  0.098957  0.099574  0  1.032394  0
C  C26  1  0.82014792  0.32547950  0.11138942  1  0  0.685928  0  3.834785  0  0  0.628596  0  4.132145  0  0  0.665057  0  4.121394  0  0  0.219536  0.603749  0  4.138949  0
C  C27  1  0.32015337  0.17455205  0.88861992  1  0  0.685893  0  3.834792  0  0  0.628619  0  4.132069  0  0  0.665101  0  4.121298  0  0  0.219596  0.603769  0  4.138878  0
C  C28  1  0.17984115  0.67452265  0.88860808  1  0  0.685909  0  3.83505  0  0  0.628755  0  4.132104  0  0  0.665214  0  4.121355  0  0  0.2196  0.603904  0  4.138914  0
C  C29  1  0.67984738  0.82546047  0.11138640  1  0  0.686012  0  3.834567  0  0  0.628757  0  4.13181  0  0  0.665218  0  4.121057  0  0  0.21967  0.60391  0  4.138615  0
C  C30  1  0.92123727  0.31071561  0.20932289  1  0  -0.17838  0  3.718882  0  0  -0.161876  0  3.961386  0  0  -0.1719  0  3.980811  0  0  -0.029853  -0.155561  0  3.948332  0
C  C31  1  0.42123182  0.18928862  0.79068083  1  0  -0.17848  0  3.719125  0  0  -0.161995  0  3.961581  0  0  -0.172026  0  3.981001  0  0  -0.029926  -0.155683  0  3.948532  0
C  C32  1  0.07876932  0.68927416  0.79067622  1  0  -0.178687  0  3.718519  0  0  -0.16217  0  3.961023  0  0  -0.172191  0  3.98043  0  0  -0.02994  -0.155856  0  3.947976  0
C  C33  1  0.57877477  0.81071481  0.20932275  1  0  -0.17832  0  3.718692  0  0  -0.161887  0  3.961275  0  0  -0.171903  0  3.980671  0  0  -0.029884  -0.155576  0  3.948226  0
C  C34  1  0.13399239  0.21623007  0.21119102  1  0  0.298227  0  3.759041  0  0  0.285443  0  4.006558  0  0  0.295794  0  4.026584  0  0  0.095786  0.278595  0  3.992848  0
C  C35  1  0.63399617  0.28377340  0.78881640  1  0  0.29822  0  3.758936  0  0  0.285519  0  4.00632  0  0  0.29588  0  4.026351  0  0  0.095784  0.278668  0  3.992608  0
C  C36  1  0.86597917  0.78376841  0.78879477  1  0  0.298576  0  3.75904  0  0  0.285693  0  4.006646  0  0  0.296046  0  4.026673  0  0  0.095814  0.278842  0  3.992939  0
C  C37  1  0.36600458  0.71623355  0.21119305  1  0  0.298186  0  3.759106  0  0  0.285399  0  4.006624  0  0  0.295748  0  4.026659  0  0  0.095755  0.27855  0  3.992916  0
C  C38  1  0.20778811  0.20050216  0.30502187  1  0  -0.178078  0  3.723723  0  0  -0.193425  0  3.973126  0  0  -0.199904  0  3.993793  0  0  -0.099815  -0.18921  0  3.959181  0
C  C39  1  0.70777916  0.29949880  0.69497804  1  0  -0.178046  0  3.723593  0  0  -0.193423  0  3.973001  0  0  -0.199902  0  3.993656  0  0  -0.099787  -0.189211  0  3.95906  0
C  C40  1  0.79221848  0.79948551  0.69498404  1  0  -0.178433  0  3.724123  0  0  -0.193763  0  3.973606  0  0  -0.200254  0  3.994263  0  0  -0.099932  -0.189543  0  3.959661  0
C  C41  1  0.29222354  0.70050679  0.30502166  1  0  -0.178204  0  3.723629  0  0  -0.193528  0  3.973082  0  0  -0.200033  0  3.993733  0  0  -0.099877  -0.189323  0  3.959149  0
C  C42  1  0.07140883  0.27633124  0.39535511  1  0  -0.052082  0  3.798287  0  0  -0.065341  0  4.046247  0  0  -0.063742  0  4.06645  0  0  -0.090901  -0.06602  0  4.032324  0
C  C43  1  0.57139599  0.22367004  0.60465301  1  0  -0.051985  0  3.798356  0  0  -0.065235  0  4.046316  0  0  -0.063615  0  4.066531  0  0  -0.090895  -0.065917  0  4.032391  0
C  C44  1  0.92858024  0.72366273  0.60463114  1  0  -0.052152  0  3.797429  0  0  -0.065398  0  4.045362  0  0  -0.063799  0  4.06556  0  0  -0.090789  -0.066079  0  4.031453  0
C  C45  1  0.42861644  0.77634033  0.39535791  1  0  -0.052057  0  3.797925  0  0  -0.065331  0  4.045851  0  0  -0.063738  0  4.066063  0  0  -0.090855  -0.066011  0  4.031939  0
C  C46  1  0.86108453  0.37030764  0.39381750  1  0  -0.112157  0  3.817553  0  0  -0.127628  0  4.072684  0  0  -0.133281  0  4.095617  0  0  -0.107053  -0.123932  0  4.057158  0
C  C47  1  0.36107606  0.12968974  0.60618083  1  0  -0.112249  0  3.817546  0  0  -0.127694  0  4.072672  0  0  -0.133345  0  4.095586  0  0  -0.107008  -0.123991  0  4.057139  0
C  C48  1  0.13894737  0.62967783  0.60619084  1  0  -0.112193  0  3.818336  0  0  -0.12764  0  4.073445  0  0  -0.133291  0  4.096373  0  0  -0.107119  -0.123946  0  4.057921  0
C  C49  1  0.63893637  0.87031468  0.39381716  1  0  -0.11225  0  3.817542  0  0  -0.12771  0  4.072693  0  0  -0.133361  0  4.095616  0  0  -0.107098  -0.124019  0  4.057174  0
C  C50  1  0.78927978  0.38831134  0.30120837  1  0  -0.054327  0  3.767068  0  0  -0.077321  0  4.018053  0  0  -0.07466  0  4.037374  0  0  -0.086904  -0.078767  0  4.004916  0
C  C51  1  0.28927430  0.11169196  0.69879822  1  0  -0.054445  0  3.767091  0  0  -0.077476  0  4.018118  0  0  -0.074779  0  4.037451  0  0  -0.086946  -0.078925  0  4.004982  0
C  C52  1  0.21069957  0.61168941  0.69877792  1  0  -0.054109  0  3.768083  0  0  -0.077135  0  4.019082  0  0  -0.074448  0  4.038427  0  0  -0.086833  -0.078581  0  4.00594  0
C  C53  1  0.71073229  0.88831045  0.30121022  1  0  -0.054288  0  3.767068  0  0  -0.077261  0  4.018093  0  0  -0.07457  0  4.037422  0  0  -0.086865  -0.078719  0  4.004951  0
N  N54  1  0.26785716  0.13716404  0.11895677  1  0  -0.676264  0  3.13844  0  0  -0.622548  0  3.382379  0  0  -0.642824  0  3.377166  0  0  -0.6054  -0.608306  0  3.385646  0
N  N55  1  0.76786681  0.36283578  0.88104533  1  0  -0.676387  0  3.138524  0  0  -0.622624  0  3.382451  0  0  -0.642917  0  3.377256  0  0  -0.605443  -0.608373  0  3.385712  0
N  N56  1  0.73214943  0.86282793  0.88103993  1  0  -0.676508  0  3.138483  0  0  -0.622745  0  3.382422  0  0  -0.643028  0  3.377213  0  0  -0.605396  -0.608496  0  3.385685  0
N  N57  1  0.23213784  0.63717106  0.11895973  1  0  -0.676454  0  3.138631  0  0  -0.622715  0  3.382463  0  0  -0.643004  0  3.377265  0  0  -0.605441  -0.608472  0  3.385728  0
O  O58  1  0.81337643  0.20934397  0.02887026  1  0  -0.639418  0  2.107287  0  0  -0.566345  0  2.361832  0  0  -0.594687  0  2.350449  0  0  -0.310217  -0.546627  0  2.369098  0
O  O59  1  0.31338318  0.29065909  0.97112767  1  0  -0.639106  0  2.107692  0  0  -0.566199  0  2.362415  0  0  -0.594529  0  2.35101  0  0  -0.310154  -0.546484  0  2.369682  0
O  O60  1  0.18660875  0.79065018  0.97112329  1  0  -0.63937  0  2.10746  0  0  -0.566477  0  2.36212  0  0  -0.594814  0  2.35073  0  0  -0.310265  -0.546759  0  2.369387  0
O  O61  1  0.68661174  0.70934428  0.02887372  1  0  -0.639248  0  2.10738  0  0  -0.566301  0  2.362049  0  0  -0.594639  0  2.350666  0  0  -0.31018  -0.546584  0  2.369313  0
O  O62  1  0.73673301  0.45577437  0.11581896  1  0  -0.63881  0  2.040346  0  0  -0.569746  0  2.293957  0  0  -0.596952  0  2.282936  0  0  -0.309139  -0.550661  0  2.300818  0
O  O63  1  0.23672799  0.04422897  0.88418742  1  0  -0.638976  0  2.039771  0  0  -0.569913  0  2.293337  0  0  -0.597186  0  2.282357  0  0  -0.309248  -0.55082  0  2.300195  0
O  O64  1  0.26325801  0.54422103  0.88417995  1  0  -0.638794  0  2.040147  0  0  -0.569787  0  2.293672  0  0  -0.596991  0  2.282647  0  0  -0.30921  -0.550694  0  2.300518  0
O  O65  1  0.76327081  0.95577442  0.11581471  1  0  -0.639061  0  2.039957  0  0  -0.569973  0  2.293502  0  0  -0.597188  0  2.282481  0  0  -0.309293  -0.55088  0  2.300353  0
