# generated using pymatgen
data_ZnH8C17S4N(O8F)2
_symmetry_space_group_name_H-M   'P 1'
_cell_length_a   14.52771003
_cell_length_b   15.70789507
_cell_length_c   15.96772955
_cell_angle_alpha   92.60990099
_cell_angle_beta   90.70516421
_cell_angle_gamma   87.63763261
_symmetry_Int_Tables_number   1
_chemical_formula_structural   ZnH8C17S4N(O8F)2
_chemical_formula_sum   'Zn2 H16 C34 S8 N2 O32 F4'
_cell_volume   3636.75992648
_cell_formula_units_Z   2
loop_
 _symmetry_equiv_pos_site_id
 _symmetry_equiv_pos_as_xyz
  1  'x, y, z'
loop_
 _atom_site_type_symbol
 _atom_site_label
 _atom_site_symmetry_multiplicity
 _atom_site_fract_x
 _atom_site_fract_y
 _atom_site_fract_z
 _atom_site_occupancy
 _atom_site_pbe_bader_charge
 _atom_site_pbe_bader_spin_density
 _atom_site_pbe_cm5_charge
 _atom_site_pbe_ddec_charge
 _atom_site_pbe_ddec_spin_density
 _atom_site_pbe_ddec_sum_bond_order
 _atom_site_pbe_magmom
Zn  Zn0  1  0.58935555  0.47296022  0.50866618  1  1.332133  0  0.709744  0.90058  0  2.429655  0
Zn  Zn1  1  0.39543045  0.51117427  0.50979921  1  1.325017  0  0.701756  0.896247  0  2.416333  0
H  H2  1  0.93069899  0.37107192  0.54713734  1  0.120633  0  0.142076  0.147631  0  0.941262  0
H  H3  1  0.27022334  0.93609393  0.59668092  1  0.658204  0  0.352293  0.415001  0  0.828946  0
H  H4  1  0.70811154  0.80411048  0.37391645  1  0.682676  0  0.352277  0.42442  0  0.82702  0
H  H5  1  0.38013771  0.91257348  0.28636298  1  0.656023  0  0.369718  0.426548  0  0.80042  0
H  H6  1  0.57661985  0.40281713  0.23311596  1  0.638976  0  0.33775  0.397973  0  0.86471  0
H  H7  1  0.44040938  0.69081143  0.20366087  1  0.632629  0  0.328213  0.379291  0  0.892879  0
H  H8  1  0.20538866  0.62267219  0.36579587  1  0.65093  0  0.357374  0.41695  0  0.826542  0
H  H9  1  0.70886554  0.63379134  0.52602970  1  0.661254  0  0.303988  0.382447  0  0.961762  0
H  H10  1  0.10068521  0.39484412  0.54954540  1  0.148062  0  0.143011  0.150801  0  0.938827  0
H  H11  1  0.39166419  0.88389274  0.46280840  1  0.136982  0  0.112188  0.079827  0  0.987318  0
H  H12  1  0.66539091  0.95003311  0.55083907  1  0.148692  0  0.119518  0.089295  0  0.98068  0
H  H13  1  0.36451485  0.02373542  0.43479710  1  0.138105  0  0.124663  0.141057  0  0.97949  0
H  H14  1  0.62602480  0.08652007  0.52832568  1  0.155388  0  0.129867  0.153779  0  0.964141  0
H  H15  1  0.59461349  0.41426979  0.94051366  1  0.143942  0  0.131229  0.151982  0  0.96042  0
H  H16  1  0.38182388  0.61509405  0.92759281  1  0.148221  0  0.129104  0.144943  0  0.966728  0
H  H17  1  0.43737080  0.07745335  0.69811106  1  0.660027  0  0.318917  0.397004  0  0.925029  0
C  C18  1  0.48728971  0.48899717  0.66835837  1  1.708308  0  0.230788  0.677755  0  4.222027  0
C  C19  1  0.42837986  0.57454674  0.96378901  1  0.002719  0  -0.052493  -0.104167  0  3.878021  0
C  C20  1  0.54829130  0.46189936  0.97113672  1  0.014003  0  -0.050399  -0.106994  0  3.871559  0
C  C21  1  0.48726079  0.51256110  0.92312135  1  0.077309  0  0.023844  0.158853  0  4.069522  0
C  C22  1  0.48805076  0.54009320  0.18812712  1  -0.489036  0  -0.0223  -0.053823  0  4.139399  0
C  C23  1  0.54418445  0.65547936  0.52209444  1  1.666867  0  0.240706  0.686593  0  4.184217  0
C  C24  1  0.48655842  0.50227142  0.83479000  1  -0.301392  0  -0.013017  -0.033062  0  4.053134  0
C  C25  1  0.48735607  0.49392045  0.75868124  1  0.053807  0  -0.020866  -0.145086  0  3.914551  0
C  C26  1  0.48393979  0.54138495  0.26430187  1  0.165772  0  -0.025489  -0.156749  0  3.909879  0
C  C27  1  0.92684393  0.57576179  0.47700169  1  -0.02531  0  0.02473  -0.081456  0  3.790485  0
C  C28  1  0.02155250  0.58296644  0.46567890  1  -0.069058  0  0.023017  -0.084599  0  3.813384  0
C  C29  1  0.52832130  0.04352339  0.40219903  1  1.141673  0  0.211075  0.452286  0  3.831378  0
C  C30  1  0.89650665  0.49693529  0.50346107  1  0.089203  0  0.033379  0.05887  0  4.040689  0
C  C31  1  0.08250494  0.51854544  0.49565407  1  0.189158  0  0.031568  0.056871  0  4.05402  0
C  C32  1  0.95767845  0.43049075  0.52718517  1  0.082291  0  -0.037616  -0.065744  0  3.888653  0
C  C33  1  0.05135443  0.44293093  0.52712684  1  -0.039034  0  -0.038422  -0.066366  0  3.885729  0
C  C34  1  0.80173060  0.47864632  0.50451528  1  0.926591  0  0.254709  0.322808  0  3.919777  0
C  C35  1  0.17892619  0.52917393  0.49989315  1  0.889451  0  0.25101  0.306137  0  3.947238  0
C  C36  1  0.47938360  0.52800145  0.35288538  1  1.687898  0  0.224093  0.664629  0  4.250234  0
C  C37  1  0.46595421  0.33304354  0.48272820  1  1.684967  0  0.232983  0.679517  0  4.212083  0
C  C38  1  0.59132781  0.96104879  0.55964694  1  0.521183  0  0.028732  0.166812  0  3.794013  0
C  C39  1  0.43026230  0.92580911  0.50551540  1  0.484494  0  0.02736  0.165031  0  3.787018  0
C  C40  1  0.56382447  0.94760621  0.40258006  1  -0.176877  0  -0.005963  -0.346997  0  3.506933  0
C  C41  1  0.40061155  0.01940423  0.49532273  1  -0.14171  0  -0.085469  -0.293458  0  3.80872  0
C  C42  1  0.56597646  0.05728533  0.55494558  1  -0.140161  0  -0.083323  -0.289844  0  3.709207  0
C  C43  1  0.45625644  0.24175812  0.47789654  1  0.125838  0  -0.019315  -0.112033  0  3.879901  0
C  C44  1  0.53670121  0.91053220  0.48914364  1  0.114119  0  0.002742  0.055977  0  3.834524  0
C  C45  1  0.48591932  0.07516070  0.49040950  1  0.106827  0  0.005875  0.072211  0  3.875078  0
C  C46  1  0.46346984  0.16529686  0.48450145  1  -0.287357  0  -0.043406  -0.063242  0  4.062628  0
C  C47  1  0.55439894  0.81986604  0.49693391  1  -0.42438  0  -0.030104  -0.024762  0  4.054043  0
C  C48  1  0.55349563  0.74516040  0.51248031  1  0.220618  0  -0.02939  -0.156357  0  3.90636  0
C  C49  1  0.55016045  0.47301588  0.05777963  1  -0.09537  0  0.004579  -0.100102  0  3.891853  0
C  C50  1  0.42978891  0.58396216  0.05052966  1  -0.133345  0  0.001905  -0.109698  0  3.911393  0
C  C51  1  0.48989680  0.53326424  0.09993448  1  0.207297  0  0.016823  0.114254  0  4.081119  0
S  S52  1  0.56975879  0.11400467  0.65917781  1  3.150244  0  0.534795  1.169917  0  6.011644  0
S  S53  1  0.30631380  0.06015128  0.56293189  1  3.09796  0  0.555927  1.188507  0  5.923055  0
S  S54  1  0.69633260  0.94153868  0.38535749  1  3.112323  0  0.549889  1.124282  0  5.950213  0
S  S55  1  0.52231761  0.88371252  0.30702194  1  3.07154  0  0.54162  1.136003  0  5.914717  0
S  S56  1  0.63751998  0.41354929  0.11360221  1  3.088039  0  0.541988  1.147391  0  6.025367  0
S  S57  1  0.35100426  0.66117776  0.09953444  1  3.089379  0  0.5402  1.151139  0  6.016785  0
S  S58  1  0.07088256  0.66865705  0.40926658  1  3.133184  0  0.554463  1.142496  0  5.993679  0
S  S59  1  0.84534710  0.66839113  0.47321547  1  3.214822  0  0.541364  1.149466  0  6.08481  0
N  N60  1  0.25758267  0.53522220  0.51005433  1  -1.177609  0  -0.276383  -0.285805  0  3.109797  0
N  N61  1  0.72714117  0.45486774  0.50267443  1  -1.178169  0  -0.281152  -0.291079  0  3.086002  0
O  O62  1  0.56548252  0.48186990  0.63307454  1  -1.13254  0  -0.303364  -0.533542  0  2.268633  0
O  O63  1  0.53722326  0.20042755  0.64848640  1  -1.288312  0  -0.308822  -0.522983  0  2.158648  0
O  O64  1  0.50259984  0.06787625  0.71734892  1  -1.226658  0  -0.353978  -0.518964  0  2.215124  0
O  O65  1  0.33709964  0.07663180  0.64831581  1  -1.300136  0  -0.293377  -0.533744  0  2.212949  0
O  O66  1  0.25590079  0.12447508  0.51921613  1  -1.269132  0  -0.290111  -0.485117  0  2.098286  0
O  O67  1  0.24289473  0.97928307  0.55995513  1  -1.197864  0  -0.343596  -0.508222  0  2.126067  0
O  O68  1  0.70988468  0.94637734  0.29726891  1  -1.216516  0  -0.27147  -0.458421  0  2.149651  0
O  O69  1  0.73758270  0.99895715  0.44548669  1  -1.261945  0  -0.274196  -0.455299  0  2.158774  0
O  O70  1  0.72294038  0.84939606  0.41629226  1  -1.210731  0  -0.326952  -0.504256  0  2.278109  0
O  O71  1  0.52993391  0.93027939  0.23289691  1  -1.235121  0  -0.272776  -0.459382  0  2.144279  0
O  O72  1  0.56310940  0.79960679  0.31534115  1  -1.279253  0  -0.284404  -0.492775  0  2.164708  0
O  O73  1  0.40844294  0.49383270  0.63259133  1  -1.123629  0  -0.308072  -0.533376  0  2.267975  0
O  O74  1  0.41376897  0.87612023  0.32576426  1  -1.191802  0  -0.346288  -0.518614  0  2.158457  0
O  O75  1  0.67376315  0.34784485  0.05682044  1  -1.273596  0  -0.296646  -0.493158  0  2.101588  0
O  O76  1  0.69493084  0.47404070  0.15690093  1  -1.272448  0  -0.311139  -0.522842  0  2.092383  0
O  O77  1  0.58039533  0.36577151  0.18182493  1  -1.188692  0  -0.355124  -0.519694  0  2.127084  0
O  O78  1  0.31290246  0.71404709  0.03606331  1  -1.278843  0  -0.299699  -0.494398  0  2.094912  0
O  O79  1  0.29403073  0.61804063  0.15570518  1  -1.285536  0  -0.312715  -0.525731  0  2.10849  0
O  O80  1  0.41919079  0.72113006  0.15386722  1  -1.188028  0  -0.36017  -0.526743  0  2.165535  0
O  O81  1  0.00174925  0.70103384  0.35381979  1  -1.244796  0  -0.26649  -0.451012  0  2.147539  0
O  O82  1  0.12358998  0.72043317  0.46699239  1  -1.271025  0  -0.299671  -0.506621  0  2.095664  0
O  O83  1  0.14120675  0.61039675  0.35147819  1  -1.187612  0  -0.344159  -0.519758  0  2.147674  0
O  O84  1  0.61792695  0.60647306  0.51738240  1  -1.147998  0  -0.291581  -0.535883  0  2.361749  0
O  O85  1  0.89871145  0.73839951  0.50321502  1  -1.25893  0  -0.292022  -0.486743  0  2.133163  0
O  O86  1  0.79791026  0.66792491  0.39347177  1  -1.28079  0  -0.305213  -0.511257  0  2.106858  0
O  O87  1  0.77929557  0.64564270  0.54378890  1  -1.265048  0  -0.343754  -0.539058  0  2.267935  0
O  O88  1  0.46440433  0.62990070  0.53191217  1  -1.125276  0  -0.28685  -0.521899  0  2.238599  0
O  O89  1  0.55316964  0.49761594  0.38579004  1  -1.145025  0  -0.302266  -0.544342  0  2.271059  0
O  O90  1  0.40255052  0.54521357  0.38845508  1  -1.13691  0  -0.307822  -0.530934  0  2.25006  0
O  O91  1  0.54946486  0.35383210  0.49122360  1  -1.123323  0  -0.30206  -0.523191  0  2.279358  0
O  O92  1  0.39470835  0.38257839  0.47947557  1  -1.150157  0  -0.311183  -0.549103  0  2.242044  0
O  O93  1  0.66119487  0.09423876  0.68898061  1  -1.280218  0  -0.310266  -0.501781  0  2.080234  0
F  F94  1  0.57200803  0.92766964  0.63634927  1  -0.604923  0  -0.117832  -0.148758  0  1.345857  0
F  F95  1  0.41066855  0.90047225  0.58687688  1  -0.607538  0  -0.113201  -0.172433  0  1.322038  0
F  F96  1  0.59647500  0.09537248  0.38123971  1  -0.613323  0  -0.075232  -0.14141  0  1.360952  0
F  F97  1  0.46029895  0.05427880  0.34154505  1  -0.6133  0  -0.096246  -0.180712  0  1.345198  0
