# generated using pymatgen
data_CdH22C30(N2O)4
_symmetry_space_group_name_H-M   'P 1'
_cell_length_a   9.25163151
_cell_length_b   11.41525598
_cell_length_c   13.45770000
_cell_angle_alpha   75.83180580
_cell_angle_beta   83.32803252
_cell_angle_gamma   80.29311791
_symmetry_Int_Tables_number   1
_chemical_formula_structural   CdH22C30(N2O)4
_chemical_formula_sum   'Cd2 H44 C60 N16 O8'
_cell_volume   1354.12282606
_cell_formula_units_Z   2
loop_
 _symmetry_equiv_pos_site_id
 _symmetry_equiv_pos_as_xyz
  1  'x, y, z'
loop_
 _atom_site_type_symbol
 _atom_site_label
 _atom_site_symmetry_multiplicity
 _atom_site_fract_x
 _atom_site_fract_y
 _atom_site_fract_z
 _atom_site_occupancy
 _atom_site_hle17_bader_spin_density
 _atom_site_hle17_ddec_charge
 _atom_site_hle17_ddec_spin_density
 _atom_site_hle17_ddec_sum_bond_order
 _atom_site_hle17_magmom
 _atom_site_hse06_10hf_bader_spin_density
 _atom_site_hse06_10hf_ddec_charge
 _atom_site_hse06_10hf_ddec_spin_density
 _atom_site_hse06_10hf_ddec_sum_bond_order
 _atom_site_hse06_10hf_magmom
 _atom_site_hse06_bader_spin_density
 _atom_site_hse06_ddec_charge
 _atom_site_hse06_ddec_spin_density
 _atom_site_hse06_ddec_sum_bond_order
 _atom_site_hse06_magmom
 _atom_site_pbe_bader_charge
 _atom_site_pbe_bader_spin_density
 _atom_site_pbe_cm5_charge
 _atom_site_pbe_ddec_charge
 _atom_site_pbe_ddec_spin_density
 _atom_site_pbe_ddec_sum_bond_order
 _atom_site_pbe_magmom
Cd  Cd0  1  0.27550461  0.65051432  0.81205231  1  0  1.054935  0  1.744149  0  0  0.847815  0  2.202518  0  0  0.907571  0  2.151835  0  1.245225  0  0.771747  0.805771  0  2.236784  0
Cd  Cd1  1  0.72449474  0.34948651  0.18794742  1  0  1.054906  0  1.744144  0  0  0.847792  0  2.202483  0  0  0.90755  0  2.151802  0  1.245178  0  0.771729  0.805749  0  2.236749  0
H  H2  1  0.59393102  0.76775198  0.98991849  1  0  0.088331  0  0.984038  0  0  0.097224  0  1.049629  0  0  0.098937  0  1.050164  0  0.066635  0  0.09821  0.095859  0  1.049457  0
H  H3  1  0.40607424  0.23224611  0.01008283  1  0  0.088333  0  0.983983  0  0  0.097237  0  1.049565  0  0  0.098952  0  1.050094  0  0.066674  0  0.098204  0.095871  0  1.049395  0
H  H4  1  0.70442849  0.83120498  0.12523672  1  0  0.085501  0  0.947313  0  0  0.099113  0  1.003863  0  0  0.101635  0  1.00363  0  0.030119  0  0.097482  0.097715  0  1.003365  0
H  H5  1  0.29557396  0.16879676  0.87476480  1  0  0.085475  0  0.947288  0  0  0.099071  0  1.003858  0  0  0.101594  0  1.003626  0  0.030206  0  0.09747  0.097674  0  1.00336  0
H  H6  1  0.27314377  0.98726219  0.22817909  1  0  0.085243  0  0.988005  0  0  0.092317  0  1.058479  0  0  0.094286  0  1.059423  0  0.061425  0  0.097146  0.090875  0  1.057982  0
H  H7  1  0.72685356  0.01273772  0.77182396  1  0  0.085239  0  0.988045  0  0  0.092333  0  1.058496  0  0  0.094285  0  1.059459  0  0.06145  0  0.097159  0.090889  0  1.058005  0
H  H8  1  0.16403147  0.91845949  0.09431718  1  0  0.089215  0  0.951551  0  0  0.100452  0  1.010829  0  0  0.10398  0  1.00798  0  0.087944  0  0.099064  0.098347  0  1.012025  0
H  H9  1  0.83597271  0.08153860  0.90568199  1  0  0.089241  0  0.951442  0  0  0.100454  0  1.010748  0  0  0.103982  0  1.007901  0  0.087911  0  0.099079  0.098351  0  1.011942  0
H  H10  1  0.62295973  0.86640998  0.31913198  1  0  0.098381  0  0.899463  0  0  0.117491  0  0.955088  0  0  0.118588  0  0.954218  0  0.095207  0  0.122728  0.116626  0  0.95594  0
H  H11  1  0.37704087  0.13358994  0.68086858  1  0  0.098394  0  0.899431  0  0  0.117501  0  0.955056  0  0  0.118596  0  0.954188  0  0.095216  0  0.122737  0.116637  0  0.955909  0
H  H12  1  0.64608606  0.00867842  0.23291902  1  0  0.0928  0  0.921443  0  0  0.108568  0  0.984021  0  0  0.108383  0  0.985663  0  0.074831  0  0.11742  0.108476  0  0.983266  0
H  H13  1  0.35391469  0.99132058  0.76708172  1  0  0.092815  0  0.921439  0  0  0.108593  0  0.984003  0  0  0.108403  0  0.985652  0  0.074845  0  0.11743  0.108501  0  0.983249  0
H  H14  1  0.44797006  0.19148229  0.24402061  1  0  0.122249  0  0.981148  0  0  0.12836  0  1.050242  0  0  0.131709  0  1.047332  0  0.177758  0  0.122532  0.125976  0  1.052206  0
H  H15  1  0.55203069  0.80851671  0.75597864  1  0  0.122222  0  0.981138  0  0  0.128343  0  1.050224  0  0  0.131692  0  1.047316  0  0.177772  0  0.122523  0.125959  0  1.052188  0
H  H16  1  0.22875258  0.23237305  0.39756346  1  0  0.117812  0  0.983991  0  0  0.126686  0  1.048753  0  0  0.129764  0  1.04792  0  0.084792  0  0.103702  0.124538  0  1.049534  0
H  H17  1  0.77124725  0.76762504  0.60243605  1  0  0.117809  0  0.983898  0  0  0.126706  0  1.048641  0  0  0.129785  0  1.047807  0  0.084965  0  0.103745  0.124558  0  1.049422  0
H  H18  1  0.93386494  0.10603963  0.69548540  1  0  0.078439  0  0.944039  0  0  0.08797  0  1.004561  0  0  0.090491  0  1.003842  0  0.059858  0  0.11402  0.086002  0  1.005725  0
H  H19  1  0.06613053  0.89395846  0.30451298  1  0  0.078589  0  0.943918  0  0  0.08808  0  1.004472  0  0  0.090605  0  1.003749  0  0.059907  0  0.114032  0.086066  0  1.005686  0
H  H20  1  0.99438150  0.89469361  0.80841260  1  0  0.09827  0  0.942511  0  0  0.106454  0  1.006117  0  0  0.109602  0  1.003333  0  0.160695  0  0.120372  0.104209  0  1.008016  0
H  H21  1  0.00561583  0.10530631  0.19158748  1  0  0.098273  0  0.942453  0  0  0.106446  0  1.006076  0  0  0.109594  0  1.00329  0  0.160704  0  0.120371  0.104201  0  1.007976  0
H  H22  1  0.32729379  0.81057878  0.59094805  1  0  0.120437  0  0.96488  0  0  0.122372  0  1.035219  0  0  0.12724  0  1.030649  0  0.197181  0  0.124179  0.118784  0  1.038683  0
H  H23  1  0.67270494  0.18941931  0.40905304  1  0  0.120432  0  0.964877  0  0  0.122371  0  1.035217  0  0  0.127238  0  1.030644  0  0.19718  0  0.124163  0.118783  0  1.038679  0
H  H24  1  0.60096634  0.67585918  0.51882132  1  0  0.105244  0  0.952288  0  0  0.112335  0  1.018689  0  0  0.116169  0  1.015843  0  0.123575  0  0.10369  0.109798  0  1.020576  0
H  H25  1  0.39903192  0.32414165  0.48117701  1  0  0.105218  0  0.952252  0  0  0.112302  0  1.018662  0  0  0.116135  0  1.015816  0  0.123589  0  0.103681  0.109765  0  1.020549  0
H  H26  1  0.79713739  0.61878143  0.38855813  1  0  0.091269  0  0.95838  0  0  0.101815  0  1.018589  0  0  0.105023  0  1.017432  0  0.059542  0  0.099077  0.099532  0  1.019633  0
H  H27  1  0.20286212  0.38121849  0.61144103  1  0  0.091248  0  0.958383  0  0  0.101825  0  1.018554  0  0  0.105033  0  1.017397  0  0.059542  0  0.099086  0.09954  0  1.0196  0
H  H28  1  0.82201163  0.24142772  0.55151226  1  0  0.091816  0  0.969326  0  0  0.099951  0  1.036977  0  0  0.102519  0  1.03633  0  0.073199  0  0.098078  0.098117  0  1.037698  0
H  H29  1  0.17798803  0.75857128  0.44848856  1  0  0.091778  0  0.969402  0  0  0.099927  0  1.037036  0  0  0.102496  0  1.03639  0  0.073179  0  0.098058  0.098095  0  1.037754  0
H  H30  1  0.63130583  0.30159676  0.68478251  1  0  0.100809  0  0.96111  0  0  0.10816  0  1.026226  0  0  0.111191  0  1.025076  0  0.101835  0  0.101762  0.105999  0  1.027062  0
H  H31  1  0.36869461  0.69840407  0.31521788  1  0  0.100822  0  0.96115  0  0  0.108173  0  1.026264  0  0  0.111202  0  1.025115  0  0.101825  0  0.101779  0.106012  0  1.027099  0
H  H32  1  0.05777744  0.38108790  0.42623377  1  0  0.087924  0  0.937679  0  0  0.103814  0  1.003035  0  0  0.104155  0  1.003654  0  0.07014  0  0.115916  0.103109  0  1.003148  0
H  H33  1  0.94222191  0.61891293  0.57376447  1  0  0.087925  0  0.937666  0  0  0.103818  0  1.003037  0  0  0.10416  0  1.003656  0  0.06996  0  0.115903  0.103114  0  1.003148  0
H  H34  1  0.94693445  0.30071914  0.37570393  1  0  0.101152  0  0.931934  0  0  0.113426  0  0.999205  0  0  0.11427  0  0.998921  0  0.112665  0  0.121052  0.112848  0  0.999468  0
H  H35  1  0.05306723  0.69928077  0.62429506  1  0  0.101154  0  0.931915  0  0  0.113423  0  0.999219  0  0  0.114266  0  0.998936  0  0.11268  0  0.121039  0.112845  0  0.999482  0
H  H36  1  0.10915263  0.59046036  0.32065694  1  0  0.106576  0  0.995217  0  0  0.117158  0  1.058302  0  0  0.118464  0  1.059214  0  0.174227  0  0.120273  0.116182  0  1.0576  0
H  H37  1  0.89084704  0.40953865  0.67934389  1  0  0.10655  0  0.995243  0  0  0.117168  0  1.058286  0  0  0.118473  0  1.059206  0  0.174226  0  0.120279  0.11619  0  1.05759  0
H  H38  1  0.05855430  0.71353263  0.12019114  1  0  0.147681  0  0.966558  0  0  0.154231  0  1.027971  0  0  0.158267  0  1.026246  0  0.143862  0  0.11228  0.151462  0  1.02896  0
H  H39  1  0.94144488  0.28646911  0.87980841  1  0  0.147699  0  0.966578  0  0  0.154252  0  1.027983  0  0  0.158287  0  1.026258  0  0.143849  0  0.112282  0.151484  0  1.028971  0
H  H40  1  0.95714642  0.73991948  0.95850725  1  0  0.107483  0  0.958825  0  0  0.11534  0  1.021687  0  0  0.119105  0  1.018645  0  0.130965  0  0.118635  0.112602  0  1.023781  0
H  H41  1  0.04285292  0.26008135  0.04149322  1  0  0.107489  0  0.958845  0  0  0.115346  0  1.021705  0  0  0.119111  0  1.018663  0  0.130976  0  0.118639  0.112608  0  1.023798  0
H  H42  1  0.68608685  0.62161244  0.78876604  1  0  0.086439  0  0.939603  0  0  0.096263  0  0.998825  0  0  0.098779  0  0.997512  0  0.108681  0  0.118543  0.094374  0  1.000006  0
H  H43  1  0.31391451  0.37838931  0.21123260  1  0  0.086446  0  0.939495  0  0  0.096268  0  0.99874  0  0  0.098785  0  0.997424  0  0.108696  0  0.118541  0.094379  0  0.999921  0
H  H44  1  0.63129672  0.45364946  0.94019606  1  0  0.104335  0  0.926067  0  0  0.111351  0  0.987809  0  0  0.114153  0  0.98634  0  0.138594  0  0.125333  0.109527  0  0.988327  0
H  H45  1  0.36870480  0.54635137  0.05980201  1  0  0.10434  0  0.926063  0  0  0.111348  0  0.987804  0  0  0.11415  0  0.986336  0  0.138574  0  0.125334  0.109524  0  0.988322  0
C  C46  1  0.30948987  0.79119914  0.95703633  1  0  0.624347  0  3.947335  0  0  0.5771  0  4.237945  0  0  0.611747  0  4.231423  0  1.523655  0  0.189485  0.553636  0  4.241666  0
C  C47  1  0.69051431  0.20879895  0.04296508  1  0  0.62435  0  3.947313  0  0  0.577116  0  4.237881  0  0  0.611765  0  4.231352  0  1.524195  0  0.189498  0.553653  0  4.241601  0
C  C48  1  0.37282033  0.83737476  0.03504941  1  0  -0.066154  0  3.762954  0  0  -0.043149  0  3.993158  0  0  -0.05254  0  4.016956  0  -0.083955  0  -0.021547  -0.037191  0  3.977476  0
C  C49  1  0.62718119  0.16262607  0.96495015  1  0  -0.066229  0  3.763057  0  0  -0.043208  0  3.993232  0  0  -0.052601  0  4.017029  0  -0.083946  0  -0.021585  -0.037252  0  3.97755  0
C  C50  1  0.52507238  0.81492850  0.04332360  1  0  -0.035724  0  3.718553  0  0  -0.061064  0  3.966838  0  0  -0.058686  0  3.986697  0  0.082433  0  -0.079843  -0.062439  0  3.953606  0
C  C51  1  0.47493039  0.18507142  0.95667456  1  0  -0.035709  0  3.718584  0  0  -0.061062  0  3.966851  0  0  -0.058684  0  3.986713  0  0.082413  0  -0.079823  -0.062437  0  3.95362  0
C  C52  1  0.58572835  0.85079101  0.11874343  1  0  -0.11263  0  3.735076  0  0  -0.130655  0  3.980888  0  0  -0.135093  0  4.001734  0  -0.046788  0  -0.088911  -0.127869  0  3.966603  0
C  C53  1  0.41427474  0.14920708  0.88125731  1  0  -0.112604  0  3.735175  0  0  -0.130631  0  3.980979  0  0  -0.135071  0  4.001831  0  -0.046573  0  -0.08892  -0.127846  0  3.966695  0
C  C54  1  0.49517556  0.91131164  0.18693147  1  0  0.09165  0  3.724997  0  0  0.110362  0  3.966481  0  0  0.112079  0  3.989266  0  -0.059529  0  -0.004003  0.109401  0  3.950973  0
C  C55  1  0.50481883  0.08868645  0.81306625  1  0  0.091673  0  3.724959  0  0  0.110419  0  3.966388  0  0  0.112136  0  3.989171  0  -0.06032  0  -0.003992  0.109459  0  3.950881  0
C  C56  1  0.34341940  0.93691951  0.17714091  1  0  -0.136688  0  3.763405  0  0  -0.156775  0  4.013497  0  0  -0.161667  0  4.036531  0  -0.049599  0  -0.098595  -0.153435  0  3.997852  0
C  C57  1  0.65658152  0.06307858  0.82286001  1  0  -0.136677  0  3.763332  0  0  -0.156797  0  4.013416  0  0  -0.161677  0  4.036459  0  -0.049342  0  -0.098592  -0.153457  0  3.997776  0
C  C58  1  0.28231963  0.89942322  0.10224212  1  0  -0.070226  0  3.76523  0  0  -0.089856  0  4.007526  0  0  -0.089341  0  4.028823  0  -0.014621  0  -0.088067  -0.0901  0  3.992995  0
C  C59  1  0.71768020  0.10057487  0.89775665  1  0  -0.070216  0  3.765149  0  0  -0.089836  0  4.007456  0  0  -0.089319  0  4.028747  0  -0.014583  0  -0.088078  -0.090079  0  3.992924  0
C  C60  1  0.56522429  0.94745361  0.26902428  1  0  -0.059043  0  3.66261  0  0  -0.140417  0  3.913445  0  0  -0.137117  0  3.924048  0  0.315648  0  -0.037807  -0.142739  0  3.906777  0
C  C61  1  0.43477864  0.05254539  0.73097406  1  0  -0.059123  0  3.662804  0  0  -0.140507  0  3.913613  0  0  -0.137208  0  3.924222  0  0.315856  0  -0.037845  -0.142834  0  3.906951  0
C  C62  1  0.40450621  0.13074797  0.31196664  1  0  0.000498  0  3.653609  0  0  -0.059703  0  3.917506  0  0  -0.053958  0  3.9332  0  0.302761  0  0.018965  -0.062787  0  3.906497  0
C  C63  1  0.59549672  0.86925103  0.68803319  1  0  0.000447  0  3.653669  0  0  -0.059767  0  3.917562  0  0  -0.054024  0  3.93326  0  0.302621  0  0.018907  -0.062849  0  3.906552  0
C  C64  1  0.29562557  0.14773860  0.38866712  1  0  -0.211416  0  3.745332  0  0  -0.238454  0  4.018271  0  0  -0.246774  0  4.039231  0  0.016642  0  -0.111015  -0.233327  0  4.00433  0
C  C65  1  0.70437426  0.85225949  0.61133240  1  0  -0.211334  0  3.745165  0  0  -0.238389  0  4.018118  0  0  -0.24671  0  4.03908  0  0.016546  0  -0.111015  -0.233261  0  4.004177  0
C  C66  1  0.29368825  0.03045711  0.45473926  1  0  0.09907  0  3.847058  0  0  0.088748  0  4.117871  0  0  0.092177  0  4.140187  0  0.492821  0  0.081296  0.087272  0  4.103054  0
C  C67  1  0.70631017  0.96954280  0.54526000  1  0  0.099035  0  3.847015  0  0  0.088686  0  4.117872  0  0  0.092115  0  4.14019  0  0.493002  0  0.081286  0.087209  0  4.103059  0
C  C68  1  0.20590354  0.99492145  0.55121243  1  0  0.161111  0  3.772679  0  0  0.166914  0  4.016485  0  0  0.170769  0  4.033842  0  0.489897  0  0.128137  0.163259  0  4.005923  0
C  C69  1  0.79410016  0.00507938  0.44878919  1  0  0.161262  0  3.772556  0  0  0.167065  0  4.016371  0  0  0.170919  0  4.033717  0  0.489551  0  0.128236  0.163411  0  4.005811  0
C  C70  1  0.02245677  0.03999762  0.67138395  1  0  0.061777  0  3.748356  0  0  0.042169  0  4.007326  0  0  0.042977  0  4.024518  0  0.517394  0  0.042599  0.040396  0  3.997769  0
C  C71  1  0.97754088  0.96000047  0.32861426  1  0  0.06171  0  3.748319  0  0  0.042146  0  4.007244  0  0  0.042949  0  4.024437  0  0.51724  0  0.042616  0.040407  0  3.997693  0
C  C72  1  0.05403844  0.92348956  0.73411647  1  0  0.06168  0  3.691555  0  0  0.026835  0  3.95083  0  0  0.031121  0  3.967285  0  0.436436  0  0.042569  0.024492  0  3.939993  0
C  C73  1  0.94595841  0.07651310  0.26588383  1  0  0.0617  0  3.691521  0  0  0.026872  0  3.950778  0  0  0.031159  0  3.967236  0  0.43653  0  0.042607  0.024533  0  3.939926  0
C  C74  1  0.23812519  0.87665550  0.61381987  1  0  0.044867  0  3.615456  0  0  0.00689  0  3.867438  0  0  0.010675  0  3.881738  0  0.475466  0  0.054243  0.004425  0  3.858581  0
C  C75  1  0.76187432  0.12334442  0.38618003  1  0  0.044786  0  3.615517  0  0  0.006811  0  3.867498  0  0  0.010595  0  3.881807  0  0.475531  0  0.054197  0.004344  0  3.858645  0
C  C76  1  0.49969322  0.52995799  0.69399846  1  0  0.61317  0  3.972713  0  0  0.566321  0  4.264139  0  0  0.600236  0  4.258788  0  1.563215  0  0.18157  0.543458  0  4.266237  0
C  C77  1  0.50030536  0.47004101  0.30600394  1  0  0.613022  0  3.972752  0  0  0.566198  0  4.264159  0  0  0.600112  0  4.258811  0  1.563216  0  0.181534  0.543335  0  4.266255  0
C  C78  1  0.60847874  0.49285166  0.61144018  1  0  -0.0624  0  3.759568  0  0  -0.040525  0  3.990554  0  0  -0.04926  0  4.014391  0  -0.050177  0  -0.019586  -0.034383  0  3.974655  0
C  C79  1  0.39152061  0.50714918  0.38855955  1  0  -0.062358  0  3.759611  0  0  -0.040491  0  3.990585  0  0  -0.04923  0  4.014424  0  -0.050182  0  -0.019584  -0.034351  0  3.974688  0
C  C80  1  0.65295289  0.58136185  0.52649462  1  0  -0.06809  0  3.743353  0  0  -0.089517  0  3.991644  0  0  -0.088445  0  4.011449  0  -0.073579  0  -0.084407  -0.090801  0  3.979681  0
C  C81  1  0.34704645  0.41863898  0.47350362  1  0  -0.068065  0  3.743339  0  0  -0.089484  0  3.991637  0  0  -0.088409  0  4.011438  0  -0.073575  0  -0.084397  -0.090769  0  3.979676  0
C  C82  1  0.76223978  0.54866458  0.45365433  1  0  -0.131314  0  3.756441  0  0  -0.150412  0  4.006154  0  0  -0.15476  0  4.027273  0  -0.057424  0  -0.099352  -0.147586  0  3.992167  0
C  C83  1  0.23775988  0.45133442  0.54634576  1  0  -0.131263  0  3.756464  0  0  -0.150376  0  4.006153  0  0  -0.154721  0  4.027274  0  -0.057408  0  -0.09933  -0.14755  0  3.992168  0
C  C84  1  0.82632526  0.42668910  0.46344847  1  0  0.083349  0  3.732227  0  0  0.10037  0  3.977653  0  0  0.101595  0  4.001581  0  -0.019421  0  -0.010691  0.09998  0  3.960264  0
C  C85  1  0.17367392  0.57331265  0.53654960  1  0  0.083241  0  3.732413  0  0  0.100294  0  3.977846  0  0  0.10152  0  4.001774  0  -0.019389  0  -0.010739  0.099905  0  3.960455  0
C  C86  1  0.77595069  0.33717252  0.54540350  1  0  -0.124504  0  3.735338  0  0  -0.142141  0  3.983543  0  0  -0.146389  0  4.004091  0  -0.011938  0  -0.091421  -0.139026  0  3.969083  0
C  C87  1  0.22404881  0.66282739  0.45459716  1  0  -0.124403  0  3.735532  0  0  -0.142045  0  3.983699  0  0  -0.146292  0  4.004246  0  -0.011988  0  -0.091389  -0.13893  0  3.969237  0
C  C88  1  0.66872195  0.37006705  0.61935145  1  0  -0.064579  0  3.734953  0  0  -0.08432  0  3.978046  0  0  -0.083012  0  3.996712  0  -0.074768  0  -0.081871  -0.08498  0  3.965183  0
C  C89  1  0.33127615  0.62993470  0.38064819  1  0  -0.064618  0  3.734968  0  0  -0.084362  0  3.978062  0  0  -0.083051  0  3.996725  0  -0.074738  0  -0.081882  -0.085021  0  3.9652  0
C  C90  1  0.95385847  0.38956906  0.39094365  1  0  -0.0632  0  3.646494  0  0  -0.144235  0  3.895893  0  0  -0.140732  0  3.905475  0  0.309647  0  -0.0399  -0.146206  0  3.889131  0
C  C91  1  0.04614228  0.61042994  0.60905486  1  0  -0.063212  0  3.646459  0  0  -0.144308  0  3.896009  0  0  -0.14081  0  3.905603  0  0.309749  0  -0.03988  -0.14628  0  3.889247  0
C  C92  1  0.04018595  0.57393821  0.26705913  1  0  -0.00069  0  3.665859  0  0  -0.060089  0  3.92132  0  0  -0.052973  0  3.93715  0  0.286537  0  0.024018  -0.064407  0  3.91041  0
C  C93  1  0.95981324  0.42606353  0.73294042  1  0  -0.000594  0  3.665822  0  0  -0.060002  0  3.921284  0  0  -0.05289  0  3.937115  0  0.286552  0  0.02409  -0.064322  0  3.910373  0
C  C94  1  0.01163835  0.63510175  0.16723810  1  0  -0.224863  0  3.71455  0  0  -0.244052  0  3.976759  0  0  -0.253778  0  3.997106  0  0.015159  0  -0.10475  -0.237665  0  3.962821  0
C  C95  1  0.98835990  0.36489908  0.83276246  1  0  -0.224927  0  3.714477  0  0  -0.244139  0  3.976689  0  0  -0.253863  0  3.997037  0  0.015058  0  -0.104783  -0.237747  0  3.962754  0
C  C96  1  0.91584771  0.56756021  0.13764718  1  0  0.131319  0  3.818178  0  0  0.116232  0  4.081501  0  0  0.122649  0  4.103497  0  0.427637  0  0.096244  0.112319  0  4.066558  0
C  C97  1  0.08415039  0.43244153  0.86235320  1  0  0.131298  0  3.818114  0  0  0.116274  0  4.081379  0  0  0.12269  0  4.103373  0  0.427795  0  0.096224  0.112347  0  4.066454  0
C  C98  1  0.85137040  0.58425222  0.04034210  1  0  0.149598  0  3.774995  0  0  0.150945  0  4.013396  0  0  0.155081  0  4.033702  0  0.519664  0  0.125787  0.147706  0  3.999973  0
C  C99  1  0.14862879  0.41574952  0.95965819  1  0  0.149631  0  3.774997  0  0  0.150906  0  4.013454  0  0  0.155042  0  4.03376  0  0.519703  0  0.125767  0.14767  0  4.000035  0
C  C100  1  0.88160160  0.67749751  0.95454569  1  0  0.027951  0  3.659125  0  0  -0.003178  0  3.923439  0  0  -0.0029  0  3.938574  0  0.514927  0  0.049476  -0.003197  0  3.913249  0
C  C101  1  0.11839758  0.32250423  0.04545387  1  0  0.027872  0  3.659294  0  0  -0.003245  0  3.923628  0  0  -0.002967  0  3.938764  0  0.51488  0  0.049417  -0.003263  0  3.913437  0
C  C102  1  0.73459245  0.61185641  0.86089209  1  0  0.080518  0  3.683279  0  0  0.054015  0  3.952168  0  0  0.057256  0  3.965411  0  0.506647  0  0.054004  0.051536  0  3.943837  0
C  C103  1  0.26540875  0.38814625  0.13910637  1  0  0.080532  0  3.683219  0  0  0.053968  0  3.952169  0  0  0.057207  0  3.965412  0  0.506632  0  0.05397  0.051489  0  3.943838  0
C  C104  1  0.70354369  0.51796090  0.94527932  1  0  0.10584  0  3.652304  0  0  0.074926  0  3.909268  0  0  0.079687  0  3.924612  0  0.520252  0  0.065679  0.07172  0  3.898623  0
C  C105  1  0.29645675  0.48203993  0.05471958  1  0  0.105808  0  3.652375  0  0  0.074936  0  3.909304  0  0  0.079699  0  3.924647  0  0.520225  0  0.065668  0.071731  0  3.898659  0
N  N106  1  0.46042419  0.00974142  0.33441242  1  0  0.069355  0  3.629876  0  0  0.192271  0  3.809742  0  0  0.18394  0  3.833369  0  -0.795604  0  -0.14344  0.197642  0  3.79429  0
N  N107  1  0.53957656  0.99025759  0.66558832  1  0  0.069425  0  3.629963  0  0  0.192353  0  3.809812  0  0  0.184038  0  3.833405  0  -0.795209  0  -0.143369  0.197725  0  3.794358  0
N  N108  1  0.39460600  0.94601801  0.42006782  1  0  -0.286007  0  2.851916  0  0  -0.292234  0  3.116507  0  0  -0.29992  0  3.133173  0  -0.634209  0  -0.223161  -0.286528  0  3.105025  0
N  N109  1  0.60539475  0.05398099  0.57993367  1  0  -0.28603  0  2.85199  0  0  -0.292251  0  3.116576  0  0  -0.299938  0  3.133241  0  -0.634619  0  -0.223209  -0.286544  0  3.105093  0
N  N110  1  0.09714320  0.07717885  0.58065756  1  0  -0.301348  0  3.005323  0  0  -0.274424  0  3.264922  0  0  -0.279947  0  3.277703  0  -1.168664  0  -0.305047  -0.270499  0  3.257565  0
N  N111  1  0.90285570  0.92281833  0.41934148  1  0  -0.301456  0  3.00529  0  0  -0.274534  0  3.264881  0  0  -0.280056  0  3.277662  0  -1.168481  0  -0.305082  -0.270605  0  3.257505  0
N  N112  1  0.16318777  0.84187424  0.70457926  1  0  -0.283575  0  3.238692  0  0  -0.210844  0  3.504749  0  0  -0.225513  0  3.521139  0  -1.224209  0  -0.310583  -0.200671  0  3.493421  0
N  N113  1  0.83681065  0.15812567  0.29542148  1  0  -0.28358  0  3.238741  0  0  -0.210854  0  3.5048  0  0  -0.225528  0  3.521191  0  -1.224261  0  -0.310611  -0.200681  0  3.493474  0
N  N114  1  0.96523016  0.47659435  0.29250922  1  0  0.094456  0  3.590578  0  0  0.209164  0  3.773107  0  0  0.202234  0  3.796289  0  -0.791754  0  -0.132629  0.213426  0  3.757617  0
N  N115  1  0.03476794  0.52340740  0.70748967  1  0  0.09446  0  3.590585  0  0  0.209145  0  3.7732  0  0  0.202219  0  3.796383  0  -0.791773  0  -0.132672  0.21341  0  3.757707  0
N  N116  1  0.88872257  0.47195514  0.21510375  1  0  -0.306412  0  3.092029  0  0  -0.271951  0  3.362525  0  0  -0.288395  0  3.38089  0  -0.67097  0  -0.234485  -0.260851  0  3.349885  0
N  N117  1  0.11127677  0.52804569  0.78489598  1  0  -0.306403  0  3.091951  0  0  -0.271936  0  3.362438  0  0  -0.288379  0  3.380797  0  -0.670975  0  -0.23447  -0.260833  0  3.349802  0
N  N118  1  0.76259957  0.50402958  0.03410107  1  0  -0.31064  0  3.212804  0  0  -0.244555  0  3.469783  0  0  -0.259999  0  3.486741  0  -1.208115  0  -0.302846  -0.233963  0  3.458032  0
N  N119  1  0.23740164  0.49597307  0.96589814  1  0  -0.310658  0  3.212876  0  0  -0.244542  0  3.46983  0  0  -0.259987  0  3.486789  0  -1.20822  0  -0.302808  -0.23395  0  3.458077  0
N  N120  1  0.82422820  0.69108728  0.86474352  1  0  -0.254862  0  3.054064  0  0  -0.228872  0  3.336652  0  0  -0.234213  0  3.350118  0  -1.170347  0  -0.305336  -0.225337  0  3.327797  0
N  N121  1  0.17577316  0.30891446  0.13525586  1  0  -0.254801  0  3.054178  0  0  -0.228785  0  3.336755  0  0  -0.234126  0  3.350223  0  -1.170265  0  -0.305266  -0.225251  0  3.3279  0
O  O122  1  0.40366806  0.74385459  0.89361639  1  0  -0.65642  0  2.020132  0  0  -0.584456  0  2.275039  0  0  -0.615259  0  2.265617  0  -1.171965  0  -0.341653  -0.563055  0  2.280812  0
O  O123  1  0.59633379  0.25614442  0.10638427  1  0  -0.656414  0  2.020134  0  0  -0.584432  0  2.274993  0  0  -0.615237  0  2.265571  0  -1.172522  0  -0.341635  -0.56303  0  2.280766  0
O  O124  1  0.17203121  0.79640364  0.95716653  1  0  -0.653181  0  1.936267  0  0  -0.604609  0  2.168557  0  0  -0.629886  0  2.158911  0  -1.166809  0  -0.33664  -0.586791  0  2.174139  0
O  O125  1  0.82797124  0.20359811  0.04283350  1  0  -0.653185  0  1.936296  0  0  -0.604622  0  2.168571  0  0  -0.629902  0  2.158914  0  -1.166788  0  -0.336659  -0.586809  0  2.174156  0
O  O126  1  0.48049433  0.45602659  0.77899283  1  0  -0.621054  0  1.895191  0  0  -0.575265  0  2.119591  0  0  -0.600271  0  2.113963  0  -1.179243  0  -0.336757  -0.557639  0  2.122254  0
O  O127  1  0.51950409  0.54397333  0.22100642  1  0  -0.620988  0  1.895056  0  0  -0.575205  0  2.119438  0  0  -0.600212  0  2.113811  0  -1.179184  0  -0.336752  -0.557579  0  2.122098  0
O  O128  1  0.43309576  0.64105966  0.67212073  1  0  -0.657858  0  2.036352  0  0  -0.586174  0  2.290661  0  0  -0.617677  0  2.282921  0  -1.172063  0  -0.342946  -0.563921  0  2.294761  0
O  O129  1  0.56690250  0.35894117  0.32787984  1  0  -0.657825  0  2.03643  0  0  -0.586155  0  2.290728  0  0  -0.617652  0  2.28299  0  -1.172102  0  -0.342937  -0.563899  0  2.294827  0
