# generated using pymatgen
data_MnH11C11NO7F4
_symmetry_space_group_name_H-M   'P 1'
_cell_length_a   6.16576421
_cell_length_b   7.40759932
_cell_length_c   15.64130628
_cell_angle_alpha   82.84669351
_cell_angle_beta   89.75198555
_cell_angle_gamma   82.14589293
_symmetry_Int_Tables_number   1
_chemical_formula_structural   MnH11C11NO7F4
_chemical_formula_sum   'Mn2 H22 C22 N2 O14 F8'
_cell_volume   702.12500121
_cell_formula_units_Z   2
loop_
 _symmetry_equiv_pos_site_id
 _symmetry_equiv_pos_as_xyz
  1  'x, y, z'
loop_
 _atom_site_type_symbol
 _atom_site_label
 _atom_site_symmetry_multiplicity
 _atom_site_fract_x
 _atom_site_fract_y
 _atom_site_fract_z
 _atom_site_occupancy
 _atom_site_hle17_ddec_charge
 _atom_site_hle17_ddec_spin_density
 _atom_site_hle17_ddec_sum_bond_order
 _atom_site_hle17_magmom
 _atom_site_hse06_10hf_ddec_charge
 _atom_site_hse06_10hf_ddec_spin_density
 _atom_site_hse06_10hf_ddec_sum_bond_order
 _atom_site_hse06_10hf_magmom
 _atom_site_hse06_ddec_charge
 _atom_site_hse06_ddec_spin_density
 _atom_site_hse06_ddec_sum_bond_order
 _atom_site_hse06_magmom
 _atom_site_pbe_cm5_charge
 _atom_site_pbe_ddec_charge
 _atom_site_pbe_ddec_spin_density
 _atom_site_pbe_ddec_sum_bond_order
 _atom_site_pbe_magmom
Mn  Mn0  1  0.07987786  0.72890237  0.10282772  1  1.309418  4.802765  1.640762  4.703  1.154643  4.72957  2.138978  4.569  1.211821  4.76815  2.062768  4.624  0.602243  1.110197  4.689175  2.19479  4.513
Mn  Mn1  1  0.92011186  0.27111160  0.89717044  1  1.309401  4.802774  1.640692  4.703  1.154624  4.729581  2.138916  4.569  1.211805  4.768159  2.062704  4.624  0.602261  1.110176  4.689183  2.19472  4.513
H  H2  1  0.65178205  0.78030211  0.21508396  1  0.046615  -0.000223  0.981534  0.0  0.056483  -5e-05  1.051484  0.0  0.058366  -0.000246  1.047052  0.0  0.124896  0.054961  0.000155  1.05467  0.0
H  H3  1  0.34821937  0.21969128  0.78491719  1  0.046553  -0.000234  0.981528  0.0  0.056446  -4.9e-05  1.051442  0.0  0.05832  -0.000246  1.047031  0.0  0.124884  0.054923  0.000155  1.054621  0.0
H  H4  1  0.02115835  0.61428081  0.39455193  1  0.1136  -0.000106  0.94764  0.0  0.131125  -4.9e-05  1.012303  0.0  0.132913  -9.5e-05  1.011024  0.0  0.107173  0.129722  3e-06  1.013348  0.0
H  H5  1  0.97884855  0.38571820  0.60544571  1  0.113645  -0.000106  0.947632  0.0  0.131159  -4.9e-05  1.012306  0.0  0.132945  -9.5e-05  1.011027  0.0  0.107202  0.129752  3e-06  1.013356  0.0
H  H6  1  0.79664064  0.59613551  0.46753898  1  0.096744  2.2e-05  0.945302  0.0  0.11383  6.6e-05  1.013767  0.0  0.114917  5.1e-05  1.012813  0.0  0.098322  0.113029  8.5e-05  1.01444  0.0
H  H7  1  0.20336742  0.40386622  0.53245978  1  0.096805  2.3e-05  0.945299  0.0  0.113893  6.6e-05  1.013744  0.0  0.114979  5.1e-05  1.012795  0.0  0.098354  0.113092  8.5e-05  1.01442  0.0
H  H8  1  0.90373486  0.80803976  0.44494038  1  0.097273  3.2e-05  0.945377  0.0  0.111841  8.8e-05  1.016589  0.0  0.112758  6.1e-05  1.015433  0.0  0.093442  0.111138  0.000123  1.017449  0.0
H  H9  1  0.09627481  0.19196199  0.55505774  1  0.0973  3.1e-05  0.945326  0.0  0.111882  8.8e-05  1.016523  0.0  0.1128  6.1e-05  1.015366  0.0  0.093435  0.11118  0.000123  1.017381  0.0
H  H10  1  0.39252788  0.81912006  0.30198668  1  0.121328  -0.000277  0.952412  0.0  0.137556  -0.000316  1.020613  0.0  0.139431  -0.000329  1.018978  0.0  0.110593  0.136027  -0.000294  1.021975  0.0
H  H11  1  0.60747827  0.18089265  0.69801151  1  0.121231  -0.000277  0.952489  0.0  0.137476  -0.000317  1.020694  0.0  0.139348  -0.000329  1.019068  0.0  0.110566  0.135946  -0.000294  1.022053  0.0
H  H12  1  0.46713657  0.91663675  0.39488272  1  0.091351  4.9e-05  0.934687  0.0  0.106057  0.000142  1.005745  0.0  0.106916  0.000104  1.005168  0.0  0.091134  0.105429  0.000191  1.006167  0.0
H  H13  1  0.53287835  0.08338154  0.60511450  1  0.091302  5.4e-05  0.934673  0.0  0.106013  0.000142  1.005747  0.0  0.106872  0.000104  1.005169  0.0  0.091128  0.105387  0.000191  1.006168  0.0
H  H14  1  0.42159419  0.68248822  0.40467066  1  0.096888  3.6e-05  0.950062  0.0  0.110623  9.7e-05  1.021575  0.0  0.112045  6.9e-05  1.020275  0.0  0.094029  0.1095  0.000131  1.022667  0.0
H  H15  1  0.57840458  0.31752985  0.59533109  1  0.096729  3.5e-05  0.950118  0.0  0.110491  9.7e-05  1.021619  0.0  0.11192  6.9e-05  1.0203  0.0  0.094004  0.109366  0.000131  1.022718  0.0
H  H16  1  0.72933595  0.70197279  0.00555910  1  0.42056  -0.000316  0.890863  0.0  0.38594  0.000209  0.960343  0.001  0.398202  2.3e-05  0.94272  0.001  0.295085  0.377244  0.000378  0.972811  0.001
H  H17  1  0.27065018  0.29802459  0.99444252  1  0.420594  -0.000316  0.890803  0.0  0.385994  0.000209  0.960264  0.001  0.398257  2.4e-05  0.942638  0.001  0.295106  0.3773  0.000378  0.972724  0.001
H  H18  1  0.78720903  0.50463557  0.06032558  1  0.4223  -0.000569  0.882934  0.001  0.388206  0.000141  0.952191  0.001  0.39916  -0.00014  0.936498  0.001  0.292877  0.38052  0.000404  0.963144  0.002
H  H19  1  0.21278772  0.49535650  0.93967182  1  0.422247  -0.000567  0.883023  0.001  0.388248  0.000141  0.952122  0.001  0.3992  -0.000141  0.936432  0.001  0.29293  0.380559  0.000404  0.963081  0.002
H  H20  1  0.39458487  0.96789377  0.10294290  1  0.439933  9.6e-05  0.854363  0.001  0.405841  0.000747  0.922442  0.002  0.416735  0.000485  0.906774  0.002  0.299362  0.398116  0.000982  0.93349  0.002
H  H21  1  0.60541179  0.03211753  0.89705411  1  0.439883  9.7e-05  0.854444  0.001  0.405817  0.000747  0.922472  0.002  0.416708  0.000484  0.906811  0.002  0.299396  0.398109  0.000982  0.933511  0.002
H  H22  1  0.51404862  0.76202796  0.09769157  1  0.429839  -0.000431  0.863692  0.001  0.40184  0.000297  0.926073  0.002  0.41208  -1.5e-05  0.911263  0.002  0.300251  0.394452  0.000583  0.936715  0.002
H  H23  1  0.48594204  0.23798054  0.90230625  1  0.429904  -0.000434  0.863708  0.001  0.401862  0.000297  0.92607  0.002  0.412102  -1.6e-05  0.911261  0.002  0.300274  0.394474  0.000583  0.93671  0.002
C  C24  1  0.38485897  0.31893866  0.13584642  1  0.702324  0.006562  3.878229  0.008  0.641073  0.010313  4.188585  0.011  0.677027  0.007922  4.177752  0.009  0.226005  0.616262  0.013096  4.195388  0.013
C  C25  1  0.61513730  0.68107521  0.86415748  1  0.702217  0.006564  3.878549  0.008  0.641039  0.010313  4.18877  0.011  0.676995  0.007925  4.177938  0.009  0.22597  0.61622  0.013097  4.195579  0.013
C  C26  1  0.56063818  0.27863147  0.20544076  1  -0.13455  0.001401  3.708205  0.001  -0.141475  0.00213  3.974857  0.002  -0.14588  0.001442  3.990149  0.001  -0.016114  -0.139121  0.00311  3.965638  0.002
C  C27  1  0.43936225  0.72137701  0.79456023  1  -0.134377  0.001407  3.708367  0.001  -0.141329  0.00213  3.974996  0.002  -0.145734  0.001439  3.99029  0.001  -0.016199  -0.138976  0.003108  3.965778  0.002
C  C28  1  0.51490543  0.31512378  0.28962164  1  0.205999  -0.000445  3.783214  0.0  0.169818  0.000298  4.089147  0.0  0.180402  -7.2e-05  4.096362  0.0  0.094015  0.162248  0.000657  4.085037  0.0
C  C29  1  0.48510200  0.68488192  0.71038266  1  0.205975  -0.000445  3.78309  0.0  0.169839  0.000296  4.088898  0.0  0.180428  -6.9e-05  4.096116  0.0  0.094112  0.162268  0.000657  4.084789  0.0
C  C30  1  0.67283823  0.26928082  0.35513885  1  0.107505  0.000893  3.817991  0.001  0.071802  0.00142  4.12778  0.001  0.078974  0.000989  4.134598  0.001  0.079066  0.066397  0.002191  4.12399  0.002
C  C31  1  0.32717524  0.73070852  0.64486248  1  0.107465  0.000907  3.817973  0.001  0.071829  0.001419  4.127646  0.001  0.078991  0.000988  4.134474  0.001  0.079048  0.06642  0.00219  4.123859  0.002
C  C32  1  0.88175546  0.18838986  0.33663236  1  0.13105  -0.000249  3.808424  0.0  0.092348  0.000483  4.123725  0.0  0.100975  8.2e-05  4.129603  0.0  0.086028  0.086056  0.00097  4.120734  0.0
C  C33  1  0.11824853  0.81158849  0.66336639  1  0.131114  -0.000274  3.808344  0.0  0.092339  0.000482  4.123656  0.0  0.10097  8.3e-05  4.129534  0.0  0.085891  0.086046  0.00097  4.120659  0.0
C  C34  1  0.92979439  0.15452914  0.25252200  1  0.207426  0.000952  3.782776  0.001  0.164139  0.00155  4.091765  0.001  0.173668  0.001024  4.099586  0.001  0.094753  0.157066  0.002318  4.087485  0.002
C  C35  1  0.07019872  0.84545596  0.74747834  1  0.20741  0.000961  3.782702  0.001  0.164191  0.001549  4.091663  0.001  0.173719  0.001023  4.099482  0.001  0.094766  0.157126  0.002317  4.087371  0.002
C  C36  1  0.77316950  0.19711968  0.18674874  1  -0.125085  0.000819  3.701665  0.001  -0.130792  0.002029  3.969539  0.002  -0.133559  0.001025  3.983924  0.001  -0.009556  -0.129409  0.003293  3.960929  0.003
C  C37  1  0.22682681  0.80287506  0.81325172  1  -0.125292  0.000817  3.701832  0.001  -0.131092  0.002028  3.969767  0.002  -0.133857  0.001027  3.984148  0.001  -0.009606  -0.129711  0.003292  3.961154  0.003
C  C38  1  0.83449649  0.15320272  0.09656425  1  0.727521  0.008651  3.856584  0.01  0.664203  0.014453  4.169088  0.014  0.701701  0.01086  4.156945  0.011  0.23777  0.637871  0.018733  4.176972  0.018
C  C39  1  0.16549032  0.84679061  0.90343503  1  0.72747  0.008629  3.856416  0.01  0.664255  0.014446  4.168823  0.014  0.701752  0.010853  4.156675  0.011  0.237773  0.637922  0.018723  4.176717  0.018
C  C40  1  0.78503759  0.73919641  0.26309959  1  0.374678  0.001079  3.818938  0.001  0.303514  0.003489  4.102491  0.003  0.329944  0.002404  4.106554  0.003  0.169133  0.285732  0.004543  4.09884  0.004
C  C41  1  0.21495657  0.26080117  0.73689688  1  0.374764  0.00113  3.819041  0.001  0.303613  0.003487  4.102564  0.003  0.330038  0.002406  4.106629  0.003  0.169203  0.285834  0.004542  4.098904  0.004
C  C42  1  0.86840025  0.68574396  0.41715123  1  -0.176343  -2.5e-05  3.656893  0.0  -0.276635  0.000174  3.907109  0.0  -0.273222  6e-05  3.917197  0.0  -0.139913  -0.278681  0.000282  3.900094  0.0
C  C43  1  0.13160272  0.31425909  0.58284812  1  -0.17648  -2.2e-05  3.65685  0.0  -0.276764  0.000173  3.907042  0.0  -0.273355  5.9e-05  3.91713  0.0  -0.139943  -0.278819  0.000282  3.900054  0.0
C  C44  1  0.48669363  0.79176682  0.36251697  1  -0.181548  0.000339  3.662667  0.0  -0.285223  0.000508  3.922677  0.0  -0.282371  0.000351  3.933419  0.0  -0.138457  -0.286835  0.000669  3.91523  0.0
C  C45  1  0.51331717  0.20824727  0.63748240  1  -0.181219  0.000334  3.662445  0.0  -0.284955  0.000509  3.922493  0.0  -0.282091  0.000351  3.93321  0.0  -0.138398  -0.286564  0.000669  3.915057  0.0
N  N46  1  0.71612096  0.73556424  0.34478016  1  -0.097561  0.001555  3.518248  0.002  0.005347  0.002816  3.751549  0.003  -0.016499  0.002143  3.780322  0.002  -0.290668  0.020232  0.00352  3.731426  0.004
N  N47  1  0.28388367  0.26443874  0.65522239  1  -0.097577  0.001542  3.518189  0.002  0.005315  0.002815  3.751479  0.003  -0.016528  0.002143  3.78025  0.002  -0.290713  0.020192  0.00352  3.731366  0.004
O  O48  1  0.25400816  0.46558718  0.13413130  1  -0.642835  0.030753  2.067443  0.016  -0.582702  0.0382  2.347728  0.02  -0.611706  0.03402  2.330801  0.016  -0.308681  -0.561219  0.042334  2.358849  0.023
O  O49  1  0.74599257  0.53442933  0.86587820  1  -0.642692  0.030755  2.067629  0.016  -0.582664  0.038202  2.347975  0.02  -0.61167  0.034022  2.331052  0.016  -0.308582  -0.561183  0.042338  2.359101  0.023
O  O50  1  0.38308501  0.20079535  0.08349141  1  -0.621347  0.003121  2.026023  0.005  -0.555788  0.005998  2.242995  0.008  -0.582273  0.004363  2.23257  0.006  -0.294345  -0.537481  0.007864  2.250027  0.01
O  O51  1  0.61690313  0.79922806  0.91651329  1  -0.621439  0.003114  2.026085  0.005  -0.55583  0.006  2.242931  0.008  -0.582314  0.004363  2.232508  0.006  -0.29438  -0.537519  0.007864  2.249982  0.01
O  O52  1  0.83573875  0.28898693  0.03818599  1  -0.647674  0.028153  2.064401  0.018  -0.578754  0.037568  2.318113  0.025  -0.608726  0.033442  2.303298  0.022  -0.281925  -0.557205  0.041676  2.328152  0.029
O  O53  1  0.16425644  0.71099547  0.96181321  1  -0.647702  0.028154  2.064144  0.018  -0.578874  0.037567  2.317817  0.025  -0.608846  0.033438  2.303002  0.022  -0.281994  -0.557312  0.041672  2.327846  0.029
O  O54  1  0.88041533  0.98669141  0.08673602  1  -0.640427  0.029351  2.069038  0.014  -0.58128  0.037871  2.351622  0.019  -0.611075  0.033557  2.334887  0.015  -0.297568  -0.559184  0.041983  2.362635  0.022
O  O55  1  0.11957272  0.01329495  0.91326747  1  -0.640292  0.029351  2.069021  0.014  -0.581185  0.037861  2.351556  0.019  -0.610978  0.033552  2.33482  0.015  -0.297492  -0.559078  0.041972  2.362536  0.022
O  O56  1  0.98060665  0.69995444  0.24228547  1  -0.541392  0.025657  2.0867  0.017  -0.488787  0.032336  2.357674  0.02  -0.514398  0.029189  2.34886  0.017  -0.290229  -0.470058  0.035433  2.363022  0.023
O  O57  1  0.01939383  0.30003486  0.75771398  1  -0.541437  0.025634  2.086699  0.017  -0.488833  0.032334  2.357677  0.02  -0.514444  0.029185  2.348866  0.017  -0.290251  -0.4701  0.035432  2.363014  0.023
O  O58  1  0.76781440  0.63945740  0.06618549  1  -0.857378  0.028927  1.925541  0.018  -0.78862  0.036804  2.133489  0.023  -0.815129  0.032972  2.097962  0.02  -0.559637  -0.768742  0.0404  2.158037  0.026
O  O59  1  0.23218260  0.36053324  0.93381390  1  -0.857389  0.028927  1.925662  0.018  -0.788643  0.036805  2.133433  0.023  -0.815156  0.032973  2.097916  0.02  -0.55969  -0.768769  0.040401  2.157981  0.026
O  O60  1  0.38306783  0.83519388  0.11952941  1  -0.848908  0.03167  1.897171  0.018  -0.791199  0.040258  2.116702  0.023  -0.815376  0.036203  2.079568  0.02  -0.569796  -0.772671  0.044019  2.142669  0.026
O  O61  1  0.61691812  0.16482292  0.88046478  1  -0.84892  0.03167  1.897266  0.018  -0.791209  0.040259  2.116828  0.023  -0.815383  0.036203  2.079697  0.02  -0.56989  -0.77271  0.04402  2.142731  0.026
F  F62  1  0.31428193  0.39045542  0.31253583  1  -0.149646  -0.000401  1.264464  0.0  -0.108379  -0.000423  1.446065  0.0  -0.116526  -0.000488  1.436062  0.0  -0.077514  -0.102508  -0.000336  1.452993  0.0
F  F63  1  0.68573819  0.60956132  0.68746976  1  -0.149652  -0.000403  1.264425  0.0  -0.108403  -0.000423  1.445998  0.0  -0.116552  -0.000487  1.435995  0.0  -0.077553  -0.102534  -0.000336  1.452928  0.0
F  F64  1  0.62303301  0.30097689  0.43697873  1  -0.158646  8.3e-05  1.250568  0.0  -0.105753  0.000224  1.414315  0.0  -0.113106  0.000139  1.404049  0.0  -0.080002  -0.100525  0.000364  1.421511  0.0
F  F65  1  0.37699069  0.69900970  0.56302528  1  -0.158653  8.1e-05  1.250628  0.0  -0.105802  0.000225  1.414358  0.0  -0.113151  0.000138  1.404095  0.0  -0.080005  -0.100578  0.000364  1.421559  0.0
F  F66  1  0.03469914  0.14133388  0.40016762  1  -0.153553  6.2e-05  1.247576  0.0  -0.103547  0.000205  1.411378  0.0  -0.110771  0.000108  1.400547  0.0  -0.078585  -0.098397  0.000352  1.418989  0.0
F  F67  1  0.96531140  0.85862533  0.59983022  1  -0.153508  6.1e-05  1.247512  0.0  -0.103457  0.000205  1.41129  0.0  -0.110683  0.000108  1.400458  0.0  -0.078419  -0.098312  0.000352  1.418902  0.0
F  F68  1  0.13564455  0.07688173  0.23727272  1  -0.165456  1.7e-05  1.302025  0.0  -0.097309  0.000357  1.466639  0.001  -0.10743  0.000147  1.459114  0.0  -0.063193  -0.090161  0.00062  1.472006  0.001
F  F69  1  0.86434648  0.92308702  0.76272211  1  -0.165384  1.8e-05  1.302045  0.0  -0.097275  0.000357  1.466674  0.001  -0.107395  0.000146  1.459149  0.0  -0.063183  -0.090129  0.00062  1.472038  0.001
