# generated using pymatgen
data_Cu2P2H12C8N2O7
_symmetry_space_group_name_H-M   'P 1'
_cell_length_a   5.41822256
_cell_length_b   9.20582467
_cell_length_c   13.14244172
_cell_angle_alpha   99.28734632
_cell_angle_beta   91.14026957
_cell_angle_gamma   98.82226862
_symmetry_Int_Tables_number   1
_chemical_formula_structural   Cu2P2H12C8N2O7
_chemical_formula_sum   'Cu4 P4 H24 C16 N4 O14'
_cell_volume   638.61689544
_cell_formula_units_Z   2
loop_
 _symmetry_equiv_pos_site_id
 _symmetry_equiv_pos_as_xyz
  1  'x, y, z'
loop_
 _atom_site_type_symbol
 _atom_site_label
 _atom_site_symmetry_multiplicity
 _atom_site_fract_x
 _atom_site_fract_y
 _atom_site_fract_z
 _atom_site_occupancy
 _atom_site_hle17_ddec_charge
 _atom_site_hle17_ddec_spin_density
 _atom_site_hle17_ddec_sum_bond_order
 _atom_site_hle17_magmom
 _atom_site_hse06_10hf_ddec_charge
 _atom_site_hse06_10hf_ddec_spin_density
 _atom_site_hse06_10hf_ddec_sum_bond_order
 _atom_site_hse06_10hf_magmom
 _atom_site_hse06_ddec_charge
 _atom_site_hse06_ddec_spin_density
 _atom_site_hse06_ddec_sum_bond_order
 _atom_site_hse06_magmom
 _atom_site_pbe_cm5_charge
 _atom_site_pbe_ddec_charge
 _atom_site_pbe_ddec_spin_density
 _atom_site_pbe_ddec_sum_bond_order
 _atom_site_pbe_magmom
Cu  Cu0  1  0.28133328  0.03610231  0.54346330  1  0.993362  0.683996  1.779251  0.498  1.0102  0.810116  2.154676  0.646  1.099902  0.889142  2.080359  0.736  0.720239  0.942118  0.728953  2.221891  0.571
Cu  Cu1  1  0.71865590  0.96388821  0.45653648  1  0.993224  -0.683968  1.779314  -0.498  1.009984  -0.810079  2.154856  -0.646  1.0997  -0.889103  2.080518  -0.736  0.720166  0.942006  -0.728917  2.221926  -0.571
Cu  Cu2  1  0.86649769  0.74870270  0.14607199  1  0.562306  -0.005535  1.541278  -0.005  0.420851  9.7e-05  1.973194  -0.001  0.436312  5.1e-05  1.926903  0.0  0.502467  0.413847  0.000478  2.002912  0.0
Cu  Cu3  1  0.13347467  0.25130115  0.85392608  1  0.562226  0.005575  1.541461  0.005  0.420721  -9.5e-05  1.97343  0.001  0.436193  -4.7e-05  1.927118  0.0  0.50246  0.413724  -0.000467  2.003129  0.0
P  P4  1  0.74127071  0.13042163  0.67859460  1  1.339784  6.2e-05  4.909561  0.0  1.204471  0.000471  5.386142  0.0  1.256501  0.000201  5.355736  0.0  0.309018  1.167725  0.000649  5.4054  0.0
P  P5  1  0.25869741  0.86957998  0.32140089  1  1.339836  -3.3e-05  4.90952  0.0  1.204467  -0.00047  5.386103  0.0  1.256509  -0.000192  5.355701  0.0  0.309054  1.16772  -0.000647  5.405361  0.0
P  P6  1  0.52222668  0.80655073  0.63677520  1  1.356299  -3.2e-05  4.947776  0.0  1.206295  -0.000176  5.457083  0.0  1.26022  -0.000208  5.423663  0.0  0.313044  1.168589  -9e-05  5.478105  0.0
P  P7  1  0.47777956  0.19344875  0.36322805  1  1.356294  5.9e-05  4.947779  0.0  1.206312  0.000176  5.457023  0.0  1.260253  0.000211  5.423591  0.0  0.313098  1.168605  8.9e-05  5.478054  0.0
H  H8  1  0.68166470  0.07440391  0.88540701  1  0.069248  1.3e-05  0.97059  0.0  0.083321  -9e-06  1.045744  0.0  0.084349  -2e-06  1.04577  0.0  0.089772  0.082112  -1.7e-05  1.046907  0.0
H  H9  1  0.31833569  0.92560112  0.11458843  1  0.069211  -1.3e-05  0.970736  0.0  0.083278  9e-06  1.045871  0.0  0.084306  2e-06  1.045895  0.0  0.089741  0.082073  1.7e-05  1.047028  0.0
H  H10  1  0.38903438  0.01702124  0.81649815  1  0.09506  -3.5e-05  0.970259  0.0  0.106671  -5e-06  1.044625  0.0  0.109372  -1.7e-05  1.041442  0.0  0.099392  0.104814  9e-06  1.047062  0.0
H  H11  1  0.61096444  0.98299159  0.18348979  1  0.095027  3.5e-05  0.970303  0.0  0.106651  5e-06  1.044689  0.0  0.109357  1.7e-05  1.041494  0.0  0.099374  0.10479  -9e-06  1.047141  0.0
H  H12  1  0.14328082  0.76445647  0.82593954  1  0.123037  -2e-05  0.95147  0.0  0.133381  8e-06  1.007069  0.0  0.137259  1.1e-05  1.003467  0.0  0.115178  0.13079  7e-06  1.009159  0.0
H  H13  1  0.85670821  0.23553962  0.17403956  1  0.123073  2.1e-05  0.951517  0.0  0.133393  -8e-06  1.007189  0.0  0.137268  -1.1e-05  1.003588  0.0  0.115215  0.130806  -7e-06  1.009276  0.0
H  H14  1  0.06045861  0.57822540  0.94474297  1  0.093263  2.6e-05  0.972903  0.0  0.102906  5e-06  1.03919  0.0  0.106509  2e-06  1.036403  0.0  0.102912  0.1008  1.2e-05  1.040303  0.0
H  H15  1  0.93952147  0.42177178  0.05523693  1  0.093428  -2.6e-05  0.972779  0.0  0.10312  -5e-06  1.038996  0.0  0.106725  -2e-06  1.036202  0.0  0.103025  0.101009  -1.2e-05  1.040123  0.0
H  H16  1  0.37905749  0.57849013  0.08614091  1  0.092212  2e-06  0.924213  0.0  0.104879  1.4e-05  0.978812  0.0  0.107724  9e-06  0.976174  0.0  0.121139  0.10238  1.2e-05  0.982614  0.0
H  H17  1  0.62090823  0.42151593  0.91384288  1  0.092032  -9e-06  0.924089  0.0  0.104693  -1.4e-05  0.978727  0.0  0.107535  -9e-06  0.976099  0.0  0.121052  0.102191  -1.2e-05  0.982528  0.0
H  H18  1  0.86736591  0.90923196  0.98062882  1  0.074149  -4e-06  0.95808  0.0  0.084515  3e-06  1.027061  0.0  0.086762  2e-06  1.024475  0.0  0.11296  0.082815  6e-06  1.029353  0.0
H  H19  1  0.13259323  0.09078522  0.01937518  1  0.074137  1e-05  0.958023  0.0  0.084584  -3e-06  1.026985  0.0  0.086817  -2e-06  1.024416  0.0  0.113023  0.082915  -6e-06  1.029247  0.0
H  H20  1  0.04502680  0.89776722  0.69932028  1  0.388357  -0.000102  0.894552  0.0  0.36121  -4.5e-05  0.969844  0.0  0.371943  -6.2e-05  0.957555  0.0  0.295709  0.353852  -2.9e-05  0.978196  0.0
H  H21  1  0.95496239  0.10224447  0.30067580  1  0.388209  0.000103  0.894844  0.0  0.36119  4.5e-05  0.969922  0.0  0.371922  6.2e-05  0.957636  0.0  0.295707  0.353826  2.9e-05  0.978282  0.0
H  H22  1  0.76074217  0.65892988  0.45154876  1  0.349935  0.000132  0.879182  0.0  0.328253  6.9e-05  0.941115  0.0  0.33651  8.4e-05  0.934802  0.0  0.308204  0.322578  5.7e-05  0.945354  0.0
H  H23  1  0.23929268  0.34105965  0.54846889  1  0.350061  -0.000128  0.879013  0.0  0.328448  -6.9e-05  0.940787  0.0  0.336729  -8.4e-05  0.934466  0.0  0.308279  0.322775  -5.8e-05  0.945024  0.0
H  H24  1  0.89510188  0.56346953  0.60338425  1  0.087113  5.7e-05  0.91646  0.0  0.101942  4.3e-05  0.975216  0.0  0.103772  1.7e-05  0.974304  0.0  0.11498  0.100455  6.9e-05  0.976077  0.0
H  H25  1  0.10492494  0.43651107  0.39664677  1  0.087182  -5.6e-05  0.91651  0.0  0.101919  -4.2e-05  0.975349  0.0  0.103746  -1.7e-05  0.974448  0.0  0.114986  0.100431  -6.9e-05  0.976211  0.0
H  H26  1  0.80080186  0.37993195  0.53300106  1  0.086762  4e-06  0.925316  0.0  0.100031  6e-06  0.987187  0.0  0.101367  4e-06  0.986261  0.0  0.115879  0.098847  2e-06  0.9883  0.0
H  H27  1  0.19923477  0.62005090  0.46703107  1  0.086816  -2e-06  0.925262  0.0  0.100273  -5e-06  0.986868  0.0  0.101612  -4e-06  0.985936  0.0  0.115947  0.099089  -2e-06  0.987981  0.0
H  H28  1  0.30566474  0.51221350  0.63051671  1  0.343885  -4.1e-05  0.906705  0.0  0.324065  -3.3e-05  0.96614  0.0  0.333358  -2.1e-05  0.959252  0.0  0.300924  0.317285  -2.7e-05  0.971379  0.0
H  H29  1  0.69436545  0.48777936  0.36950050  1  0.343792  4.2e-05  0.906635  0.0  0.324035  3.3e-05  0.966045  0.0  0.333299  2.1e-05  0.959183  0.0  0.300929  0.317251  2.7e-05  0.971284  0.0
H  H30  1  0.09702802  0.36739462  0.66047125  1  0.328791  1.8e-05  0.873906  0.0  0.311289  -2.7e-05  0.930736  0.0  0.31878  -2.5e-05  0.925027  0.0  0.31135  0.305896  -1.7e-05  0.934945  0.0
H  H31  1  0.90302738  0.63259608  0.33955206  1  0.328959  -1.8e-05  0.873757  0.0  0.311517  2.6e-05  0.930593  0.0  0.318983  2.5e-05  0.924876  0.0  0.311465  0.306123  1.7e-05  0.934804  0.0
C  C32  1  0.70569898  0.95515789  0.73458204  1  -0.201074  -6.9e-05  3.695896  0.0  -0.160223  3e-06  3.9385  0.0  -0.169429  -1.9e-05  3.951081  0.0  0.0461  -0.153632  -3.8e-05  3.92899  0.0
C  C33  1  0.29430596  0.04485050  0.26541459  1  -0.201241  3.5e-05  3.696063  0.0  -0.160277  3e-06  3.938456  0.0  -0.169503  1.6e-05  3.951079  0.0  0.046053  -0.153667  3.9e-05  3.928906  0.0
C  C34  1  0.56600369  0.98053236  0.83464950  1  -0.172111  0.00018  3.731535  0.0  -0.221029  8.9e-05  3.957497  0.0  -0.221762  7.1e-05  3.972649  0.0  -0.158615  -0.220532  0.00011  3.948248  0.0
C  C35  1  0.43398662  0.01946930  0.16534318  1  -0.171962  -0.000175  3.731583  0.0  -0.221089  -9e-05  3.957558  0.0  -0.221817  -7.1e-05  3.972699  0.0  -0.158589  -0.220579  -0.00011  3.948262  0.0
C  C36  1  0.51336784  0.85369365  0.89437209  1  0.089347  -0.000184  3.677206  0.0  0.11468  -7.3e-05  3.909506  0.0  0.109909  -5e-05  3.934542  0.0  0.005792  0.118024  -0.000115  3.893376  0.0
C  C37  1  0.48659409  0.14631240  0.10561927  1  0.089312  0.000202  3.677456  0.0  0.115022  7.5e-05  3.909355  0.0  0.110254  5e-05  3.934379  0.0  0.005897  0.118368  0.000116  3.893246  0.0
C  C38  1  0.28508106  0.75621325  0.88372552  1  -0.026662  0.000105  3.62608  0.0  -0.052118  1.6e-05  3.866427  0.0  -0.046042  2.8e-05  3.880672  0.0  -0.059172  -0.055972  2.4e-05  3.856484  0.0
C  C39  1  0.71489313  0.24379060  0.11627408  1  -0.026578  -0.000123  3.624993  0.0  -0.052182  -1.6e-05  3.865395  0.0  -0.04609  -2.8e-05  3.879618  0.0  -0.05919  -0.05605  -2.5e-05  3.855472  0.0
C  C40  1  0.23751630  0.65388359  0.95103156  1  -0.139545  -0.000274  3.793638  0.0  -0.154023  -0.000107  4.057168  0.0  -0.159671  -6.9e-05  4.073478  0.0  -0.090483  -0.149634  -0.000161  4.046936  0.0
C  C41  1  0.76245072  0.34612692  0.04894057  1  -0.139904  0.000275  3.793723  0.0  -0.154404  0.000107  4.057309  0.0  -0.160053  6.9e-05  4.073613  0.0  -0.090757  -0.150013  0.000161  4.047077  0.0
C  C42  1  0.41448025  0.65051170  0.02828098  1  0.098122  0.000214  3.735202  0.0  0.064873  7.3e-05  3.98525  0.0  0.073212  4.9e-05  4.000587  0.0  0.032361  0.05639  0.000139  3.981667  0.0
C  C43  1  0.58548945  0.34948879  0.97171288  1  0.098348  -0.000201  3.736113  0.0  0.065087  -7.3e-05  3.986084  0.0  0.073415  -4.9e-05  4.001457  0.0  0.03248  0.056615  -0.000139  3.982481  0.0
C  C44  1  0.68572344  0.83806951  0.97019117  1  0.0774  0.000309  3.643432  0.0  0.039738  7.2e-05  3.883104  0.0  0.046581  4.8e-05  3.90129  0.0  0.04043  0.034767  0.000121  3.871904  0.0
C  C45  1  0.31426221  0.16194328  0.02981641  1  0.077124  -0.000347  3.643554  0.0  0.039142  -7.1e-05  3.883332  0.0  0.046002  -4.8e-05  3.901516  0.0  0.040162  0.03414  -0.000121  3.872148  0.0
C  C46  1  0.95631328  0.47317360  0.54949447  1  0.056795  8.6e-05  3.514604  0.0  -0.001382  6.1e-05  3.776801  0.0  0.002264  3.7e-05  3.786116  0.0  -0.05619  -0.003899  6.1e-05  3.770825  0.0
C  C47  1  0.04372590  0.52681148  0.45052805  1  0.056599  -7.9e-05  3.514575  0.0  -0.001477  -6.1e-05  3.776779  0.0  0.002125  -3.6e-05  3.786064  0.0  -0.056275  -0.003994  -6.1e-05  3.77081  0.0
N  N48  1  0.63886446  0.74049191  0.03710382  1  -0.330952  0.000141  3.528998  0.0  -0.238335  -1.6e-05  3.825599  0.0  -0.25497  -3e-05  3.836995  0.0  -0.39678  -0.227579  1e-05  3.819096  0.0
N  N49  1  0.36110177  0.25951637  0.96288555  1  -0.330667  -0.000121  3.528688  0.0  -0.237927  1.6e-05  3.82519  0.0  -0.254568  3e-05  3.836596  0.0  -0.396597  -0.227171  -1e-05  3.818684  0.0
N  N50  1  0.16444692  0.42021613  0.60051806  1  -0.50668  0.000138  3.156422  0.0  -0.450017  -2.7e-05  3.355839  0.0  -0.466585  -9.4e-05  3.353806  0.0  -0.612778  -0.438775  1.3e-05  3.357524  0.0
N  N51  1  0.83559496  0.57977231  0.39950562  1  -0.506487  -0.00016  3.156095  0.0  -0.450142  2.7e-05  3.355961  0.0  -0.466561  9.3e-05  3.353797  0.0  -0.612766  -0.438897  -1.3e-05  3.357652  0.0
O  O52  1  0.89778726  0.26065503  0.75437724  1  -0.780988  -0.002374  2.155657  -0.003  -0.673899  -0.001814  2.452603  -0.003  -0.705079  -0.000963  2.428215  -0.002  -0.40233  -0.651041  -0.002644  2.467987  -0.004
O  O53  1  0.10220625  0.73935889  0.24561609  1  -0.781144  0.002385  2.155822  0.003  -0.674061  0.001818  2.452801  0.003  -0.705242  0.000964  2.428402  0.002  -0.402439  -0.651204  0.00265  2.468201  0.004
O  O54  1  0.88847252  0.10031219  0.57961594  1  -0.818134  -0.063432  2.13084  -0.082  -0.782244  -0.04583  2.457912  -0.064  -0.824279  -0.037067  2.437508  -0.054  -0.384176  -0.750234  -0.048555  2.470716  -0.066
O  O55  1  0.11154448  0.89969957  0.42037282  1  -0.818174  0.06342  2.13151  0.082  -0.782113  0.045824  2.458454  0.064  -0.824153  0.03706  2.438053  0.054  -0.384092  -0.750116  0.048546  2.471276  0.066
O  O56  1  0.48021070  0.16978735  0.65996685  1  -0.786511  0.068685  2.004223  0.09  -0.741513  0.048653  2.29843  0.069  -0.778178  0.039383  2.277534  0.059  -0.382408  -0.716407  0.050493  2.314445  0.069
O  O57  1  0.51981272  0.83018544  0.34002521  1  -0.786455  -0.068765  2.003345  -0.09  -0.741549  -0.048699  2.297604  -0.069  -0.778239  -0.039416  2.276727  -0.059  -0.382447  -0.716439  -0.050542  2.313602  -0.069
O  O58  1  0.94500480  0.92245379  0.76146414  1  -0.537399  -0.000128  2.143899  0.0  -0.492207  -4.7e-05  2.375436  0.0  -0.5067  -0.000146  2.364154  0.0  -0.385867  -0.481708  4.5e-05  2.382101  0.0
O  O59  1  0.05500223  0.07755572  0.23853644  1  -0.537269  0.000126  2.144195  0.0  -0.492179  4.8e-05  2.375588  0.0  -0.506666  0.000146  2.364309  0.0  -0.385843  -0.481678  -4.5e-05  2.382249  0.0
O  O60  1  0.49079955  0.66129832  0.67826375  1  -0.778385  -0.002171  1.884672  -0.003  -0.71717  -0.00083  2.119226  -0.001  -0.748899  -0.0004  2.105567  -0.001  -0.372273  -0.693596  -0.001616  2.127865  -0.002
O  O61  1  0.50923836  0.33870236  0.32174148  1  -0.77835  0.002175  1.884777  0.003  -0.717109  0.000838  2.119277  0.001  -0.748857  0.000402  2.105626  0.001  -0.372302  -0.693534  0.001628  2.127923  0.002
O  O62  1  0.27081659  0.86375171  0.61842466  1  -0.814406  0.065752  2.082694  0.087  -0.758062  0.047736  2.372605  0.068  -0.798672  0.038103  2.355226  0.057  -0.377814  -0.729238  0.050066  2.384269  0.069
O  O63  1  0.72920922  0.13624447  0.38156853  1  -0.814308  -0.065756  2.082471  -0.087  -0.757949  -0.047743  2.372268  -0.068  -0.798569  -0.038109  2.354898  -0.057  -0.377823  -0.729132  -0.050073  2.383919  -0.069
O  O64  1  0.67307440  0.79871138  0.53741179  1  -0.812386  -0.067627  2.115287  -0.089  -0.761312  -0.048479  2.414617  -0.069  -0.802338  -0.038583  2.397953  -0.058  -0.378979  -0.731858  -0.051356  2.425137  -0.071
O  O65  1  0.32692353  0.20127693  0.46258023  1  -0.812345  0.067623  2.115451  0.089  -0.761417  0.048476  2.414853  0.069  -0.802435  0.038578  2.39816  0.058  -0.378978  -0.731965  0.051354  2.425402  0.071
