# generated using pymatgen
data_Mn2H14C14N13O2
_symmetry_space_group_name_H-M   'P 1'
_cell_length_a   13.25789503
_cell_length_b   14.88442308
_cell_length_c   14.92620680
_cell_angle_alpha   71.84301088
_cell_angle_beta   63.95343682
_cell_angle_gamma   63.21166366
_symmetry_Int_Tables_number   1
_chemical_formula_structural   Mn2H14C14N13O2
_chemical_formula_sum   'Mn8 H56 C56 N52 O8'
_cell_volume   2338.45069128
_cell_formula_units_Z   4
loop_
 _symmetry_equiv_pos_site_id
 _symmetry_equiv_pos_as_xyz
  1  'x, y, z'
loop_
 _atom_site_type_symbol
 _atom_site_label
 _atom_site_symmetry_multiplicity
 _atom_site_fract_x
 _atom_site_fract_y
 _atom_site_fract_z
 _atom_site_occupancy
 _atom_site_pbe_bader_charge
 _atom_site_pbe_bader_spin_density
 _atom_site_pbe_cm5_charge
 _atom_site_pbe_ddec_charge
 _atom_site_pbe_ddec_spin_density
 _atom_site_pbe_ddec_sum_bond_order
 _atom_site_pbe_magmom
Mn  Mn0  1  0.00075377  0.59554601  0.40450191  1  1.609545  3.754218  0.770281  0.958187  3.903342  3.004335  3.734
Mn  Mn1  1  0.99628525  0.90518271  0.09834802  1  1.618946  -3.463876  0.797457  0.958214  -3.61001  3.123873  -3.448
Mn  Mn2  1  0.99846451  0.40383133  0.59618901  1  1.611305  3.661507  0.773866  0.957365  3.813836  3.024325  3.642
Mn  Mn3  1  0.00586047  0.09343611  0.90144562  1  1.61643  -3.615761  0.785602  0.957772  -3.763479  3.07124  -3.598
Mn  Mn4  1  0.18390327  0.75006257  0.25017442  1  1.441902  4.333948  0.670162  0.678986  4.476821  2.716538  4.253
Mn  Mn5  1  0.81306759  0.75075135  0.25207658  1  1.445221  4.312494  0.671601  0.678097  4.46028  2.748386  4.235
Mn  Mn6  1  0.81658578  0.24849497  0.74984761  1  1.443885  -4.326154  0.667468  0.675237  -4.475952  2.722956  -4.246
Mn  Mn7  1  0.18679103  0.24925851  0.74842063  1  1.449306  4.294817  0.67584  0.680319  4.441504  2.757411  4.219
H  H8  1  0.59764931  0.75924112  0.95224075  1  0.078251  0.000929  0.108647  0.119792  0.000506  0.985045  0.0
H  H9  1  0.39444835  0.04980308  0.24140907  1  0.060226  0.000972  0.107331  0.116995  0.000523  0.984276  0.0
H  H10  1  0.31326473  0.74178555  0.54776327  1  0.080033  0.000823  0.10869  0.119145  0.00043  0.984713  0.0
H  H11  1  0.69153480  0.45051269  0.25515924  1  0.071422  0.00083  0.108684  0.11964  0.000431  0.984405  0.0
H  H12  1  0.39994586  0.24154041  0.04802406  1  0.069131  -0.00072  0.107942  0.118246  -0.000388  0.983488  0.0
H  H13  1  0.60497765  0.95048417  0.75850852  1  0.06906  0.00091  0.108264  0.118641  0.000511  0.983675  0.0
H  H14  1  0.68702872  0.25943268  0.45269866  1  0.096495  -0.00084  0.10746  0.117828  -0.000492  0.984851  0.0
H  H15  1  0.30984658  0.54976723  0.74345014  1  0.05922  0.000789  0.107936  0.117937  0.000426  0.982987  0.0
H  H16  1  0.68304051  0.57236445  0.94272287  1  0.126775  0.000344  0.107392  0.103622  0.000425  1.027253  0.0
H  H17  1  0.31254534  0.06115197  0.42632601  1  0.146809  0.000177  0.107622  0.103849  0.000159  1.029706  0.0
H  H18  1  0.19942494  0.92864880  0.55738607  1  0.132827  -0.000209  0.108032  0.105014  -0.000149  1.030598  0.0
H  H19  1  0.80347269  0.44190927  0.06996769  1  0.123276  -0.000156  0.106618  0.102353  -0.00022  1.029387  0.0
H  H20  1  0.31573188  0.42829421  0.05761175  1  0.127607  0.000741  0.107533  0.103742  0.000721  1.029161  0.0
H  H21  1  0.68723935  0.93982012  0.57342679  1  0.156456  0.000619  0.107792  0.104062  0.00069  1.029274  0.0
H  H22  1  0.79980060  0.07247719  0.44272210  1  0.132657  0.000183  0.107948  0.105543  0.000132  1.029597  0.0
H  H23  1  0.19713236  0.55939049  0.92841406  1  0.13989  0.000114  0.106895  0.103095  0.000143  1.02839  0.0
H  H24  1  0.56573403  0.46556487  0.06705557  1  0.116356  0.000187  0.104932  0.114431  -0.000134  1.041995  0.0
H  H25  1  0.43317398  0.93616182  0.53227859  1  0.150007  0.000754  0.104869  0.115234  0.000503  1.048455  0.0
H  H26  1  0.09750375  0.03509120  0.43285254  1  0.153028  0.000509  0.104708  0.115452  0.000185  1.04614  0.0
H  H27  1  0.90132475  0.56830599  0.96586712  1  0.123362  0.001244  0.104411  0.115042  0.000946  1.042277  0.0
H  H28  1  0.43395426  0.53446618  0.93332382  1  0.115512  -0.000442  0.104712  0.114096  -0.000164  1.0423  0.0
H  H29  1  0.56650886  0.06498131  0.46756505  1  0.147702  0.000765  0.105583  0.115926  0.000503  1.047521  0.0
H  H30  1  0.90167953  0.96514820  0.56718370  1  0.155105  6.3e-05  0.10446  0.115141  0.00034  1.046497  0.0
H  H31  1  0.09873370  0.43353848  0.03293174  1  0.096955  0.001323  0.104638  0.114357  0.001021  1.043663  0.0
H  H32  1  0.38128419  0.45200805  0.21488147  1  0.106168  0.002044  0.128836  0.123041  0.000996  0.959809  0.0
H  H33  1  0.62027348  0.78779942  0.54634553  1  0.091424  0.002052  0.129058  0.123173  0.000965  0.960004  0.0
H  H34  1  0.04372018  0.04795479  0.28581965  1  0.087533  0.000902  0.130568  0.124067  0.00057  0.957056  0.0
H  H35  1  0.95002110  0.71736193  0.95474662  1  0.128145  0.000864  0.130348  0.123353  0.000555  0.957156  0.0
H  H36  1  0.61957403  0.54710978  0.78598727  1  0.069252  -0.000824  0.130126  0.123108  -0.000505  0.959328  0.0
H  H37  1  0.37887033  0.21310684  0.45397250  1  0.106899  0.001884  0.129991  0.124284  0.000891  0.958964  0.0
H  H38  1  0.95463988  0.95096641  0.71470731  1  0.099775  -0.001863  0.13067  0.124298  -0.000872  0.958217  0.0
H  H39  1  0.04918279  0.28478593  0.04462929  1  0.092548  0.000933  0.129856  0.124108  0.00058  0.959091  0.0
H  H40  1  0.29936388  0.90035274  0.07848670  1  0.065283  0.001075  0.105873  0.153279  0.00086  1.003986  0.0
H  H41  1  0.69225369  0.91963324  0.10251156  1  0.083983  0.001142  0.104412  0.149693  0.000987  1.007787  0.0
H  H42  1  0.28257664  0.60104609  0.42130130  1  0.079752  0.001438  0.105648  0.151657  0.00088  1.001758  0.001
H  H43  1  0.71925226  0.57804692  0.39715091  1  0.072228  0.001525  0.105022  0.150925  0.000989  1.004992  0.001
H  H44  1  0.69820282  0.09975205  0.92212631  1  0.064685  -0.001431  0.104675  0.150379  -0.000924  1.003636  -0.001
H  H45  1  0.30712259  0.07946655  0.89780830  1  0.077516  0.001114  0.105158  0.151762  0.000935  1.005906  0.0
H  H46  1  0.71831686  0.39909875  0.57992543  1  0.074166  -0.001057  0.105731  0.153412  -0.000923  1.003129  0.0
H  H47  1  0.28221765  0.42174320  0.60200100  1  0.0775  0.001458  0.104304  0.14986  0.000928  1.005396  0.001
H  H48  1  0.44714995  0.90086377  0.03456993  1  0.03052  0.000727  0.092558  0.130496  0.000171  1.020347  0.0
H  H49  1  0.54372049  0.96514983  0.10159163  1  0.024915  0.000725  0.092025  0.129579  0.000214  1.020771  0.0
H  H50  1  0.38830628  0.59968260  0.46474638  1  0.036827  0.00082  0.092939  0.131107  0.000223  1.018692  0.0
H  H51  1  0.61584982  0.53348140  0.39673489  1  0.029671  0.000813  0.091754  0.129025  0.000257  1.020478  0.0
H  H52  1  0.55040391  0.09940655  0.96552313  1  0.011696  -0.000723  0.092248  0.130823  -0.000269  1.01946  0.0
H  H53  1  0.45564041  0.03443319  0.89851539  1  0.025381  0.000711  0.091998  0.129719  0.000219  1.021033  0.0
H  H54  1  0.61308526  0.40088971  0.53559257  1  0.028427  -0.000712  0.091204  0.129279  -0.000254  1.018422  0.0
H  H55  1  0.38582648  0.46604546  0.60243931  1  0.017632  0.000751  0.091915  0.12975  0.000236  1.018571  0.0
H  H56  1  0.36984234  0.87237017  0.16624979  1  0.033149  0.000685  0.097338  0.141996  0.000328  1.003427  0.0
H  H57  1  0.62193597  0.83219898  0.13108972  1  0.055325  0.000657  0.096933  0.142049  0.00029  1.003802  0.0
H  H58  1  0.41194775  0.62820951  0.33318653  1  0.051742  0.001148  0.097196  0.141228  0.000577  1.004317  0.001
H  H59  1  0.58872457  0.66645790  0.36899455  1  0.06397  0.001157  0.09754  0.142649  0.000573  1.003419  0.001
H  H60  1  0.62809845  0.12789970  0.83402781  1  0.047928  -0.001105  0.09717  0.143039  -0.000605  1.002419  -0.001
H  H61  1  0.37676448  0.16731510  0.86960256  1  0.060155  0.000582  0.097494  0.142489  0.000315  1.002389  0.0
H  H62  1  0.58865509  0.37200107  0.66730611  1  0.056144  -0.000571  0.096999  0.141837  -0.000332  1.003987  0.0
H  H63  1  0.41243586  0.33314804  0.63068162  1  0.058991  0.001083  0.097366  0.142558  0.00059  1.003199  0.001
C  C64  1  0.43850694  0.75219823  0.08014639  1  0.469305  0.010331  0.129425  0.329994  0.008044  3.946849  0.006
C  C65  1  0.55498419  0.91998350  0.24913204  1  0.491152  0.009485  0.128339  0.327456  0.007531  3.946909  0.006
C  C66  1  0.27484455  0.74878901  0.41902711  1  0.496078  0.011636  0.131484  0.331113  0.00959  3.944363  0.008
C  C67  1  0.72710988  0.58021743  0.24982724  1  0.534648  0.011795  0.130667  0.331512  0.009635  3.943334  0.008
C  C68  1  0.55947265  0.24805233  0.92015940  1  0.476485  -0.011597  0.129522  0.328986  -0.009468  3.948078  -0.008
C  C69  1  0.44422529  0.08002166  0.75107880  1  0.482886  0.009517  0.128551  0.328642  0.007582  3.944016  0.006
C  C70  1  0.72590312  0.25157275  0.58136577  1  0.531154  -0.009464  0.129429  0.330008  -0.007568  3.946597  -0.006
C  C71  1  0.27377428  0.42008574  0.74933808  1  0.528256  0.011629  0.129786  0.329602  0.009558  3.944049  0.008
C  C72  1  0.54912533  0.71025620  0.00514791  1  0.01625  0.011088  -0.085885  -0.187785  0.008611  3.924623  0.006
C  C73  1  0.44450183  0.99650886  0.29010975  1  -0.018219  0.010715  -0.08765  -0.188656  0.00831  3.926495  0.006
C  C74  1  0.26802292  0.79072209  0.49447341  1  0.012013  -0.006012  -0.085581  -0.184577  -0.00506  3.918804  -0.004
C  C75  1  0.73513602  0.50444383  0.20735329  1  -0.000306  -0.005071  -0.086237  -0.186958  -0.004337  3.920388  -0.003
C  C76  1  0.44892549  0.29024210  0.99515796  1  0.006625  0.005954  -0.086581  -0.186018  0.00491  3.921168  0.004
C  C77  1  0.55493452  0.00382057  0.70983978  1  -0.017986  0.010329  -0.087093  -0.189246  0.008055  3.925151  0.006
C  C78  1  0.73233545  0.21008681  0.50583502  1  -0.051112  -0.011002  -0.086408  -0.186588  -0.008606  3.924476  -0.006
C  C79  1  0.26589559  0.49608476  0.79142252  1  -0.097193  -0.005596  -0.085413  -0.183063  -0.004718  3.917885  -0.004
C  C80  1  0.59608361  0.60666102  0.99953012  1  -0.022727  0.007147  -0.065946  -0.010116  0.005532  3.978757  0.004
C  C81  1  0.39948845  0.00323616  0.39252179  1  -0.067398  0.005884  -0.066761  -0.009688  0.004479  3.980976  0.003
C  C82  1  0.20411479  0.89422999  0.50024691  1  -0.025969  0.010999  -0.065576  -0.010329  0.00857  3.971408  0.007
C  C83  1  0.79792960  0.49930050  0.10471363  1  -0.017151  0.011452  -0.066625  -0.011235  0.00895  3.979076  0.007
C  C84  1  0.40261769  0.39377663  0.00081072  1  -0.030702  -0.010166  -0.067046  -0.011853  -0.007889  3.981313  -0.006
C  C85  1  0.60017786  0.99756023  0.60731035  1  -0.087658  0.005646  -0.066302  -0.008733  0.004256  3.977027  0.003
C  C86  1  0.79560000  0.10649721  0.49992584  1  0.013101  -0.004596  -0.067208  -0.012975  -0.003537  3.974087  -0.002
C  C87  1  0.20262658  0.50182995  0.89391463  1  0.063179  0.010945  -0.067113  -0.013334  0.008551  3.977589  0.007
C  C88  1  0.53107145  0.54693199  0.06860175  1  -0.058882  0.010144  -0.086451  -0.176616  0.007714  3.955297  0.006
C  C89  1  0.46635339  0.93365828  0.45188504  1  -0.015121  0.010429  -0.086046  -0.177416  0.008034  3.95588  0.006
C  C90  1  0.14725071  0.95384877  0.43090234  1  -0.12471  -0.00524  -0.084024  -0.174985  -0.004302  3.947724  -0.004
C  C91  1  0.85254279  0.56954600  0.04644338  1  -0.094485  -0.004204  -0.084965  -0.177225  -0.003442  3.952743  -0.003
C  C92  1  0.46818498  0.45313521  0.93180618  1  -0.044099  0.005408  -0.08526  -0.175005  0.004431  3.955645  0.004
C  C93  1  0.53321533  0.06722232  0.54802746  1  0.003616  0.010261  -0.087119  -0.178127  0.00789  3.954298  0.006
C  C94  1  0.85235122  0.04642433  0.56919972  1  -0.125053  -0.010316  -0.08464  -0.175396  -0.007803  3.949609  -0.006
C  C95  1  0.14761798  0.43189036  0.95242410  1  -0.055378  -0.004356  -0.085248  -0.176194  -0.003575  3.951694  -0.003
C  C96  1  0.41969373  0.59319304  0.14044238  1  0.42463  0.004766  0.11187  0.205945  0.003647  4.075113  0.001
C  C97  1  0.57740947  0.86024335  0.40662169  1  0.432454  0.003963  0.111877  0.208293  0.00299  4.073191  0.001
C  C98  1  0.15481420  0.90758123  0.35865831  1  0.497995  0.009482  0.111757  0.204717  0.007567  4.074196  0.007
C  C99  1  0.84410491  0.64195386  0.09329251  1  0.486119  0.00986  0.111386  0.204736  0.007793  4.072708  0.007
C  C100  1  0.57938516  0.40654500  0.86004820  1  0.427978  -0.009013  0.110303  0.203749  -0.007146  4.075496  -0.007
C  C101  1  0.42193498  0.14028357  0.59352660  1  0.454195  0.003321  0.112385  0.207707  0.002547  4.073958  0.001
C  C102  1  0.84535860  0.09218966  0.64160977  1  0.490423  -0.002862  0.111612  0.205217  -0.002288  4.076113  0.0
C  C103  1  0.15605969  0.35919357  0.90596939  1  0.475097  0.008941  0.113083  0.209054  0.007071  4.071935  0.007
C  C104  1  0.34652989  0.53463364  0.21105242  1  0.550844  0.048218  0.039509  -0.079562  0.038932  3.915984  0.027
C  C105  1  0.65268487  0.78969868  0.46484014  1  0.559076  0.044517  0.042138  -0.076426  0.035774  3.913159  0.025
C  C106  1  0.09143991  0.96565800  0.28838952  1  0.54703  -0.005084  0.048224  -0.064616  -0.003445  3.905901  -0.001
C  C107  1  0.90486740  0.71334757  0.03653361  1  0.511235  -0.002503  0.044692  -0.069501  -0.001242  3.909661  0.001
C  C108  1  0.65336053  0.46459941  0.78956077  1  0.597521  0.004583  0.04271  -0.071434  0.003006  3.910538  0.001
C  C109  1  0.34650311  0.21090760  0.53551481  1  0.532065  0.043083  0.042805  -0.076116  0.03428  3.911984  0.024
C  C110  1  0.90849060  0.03341135  0.71179506  1  0.553582  -0.046285  0.044265  -0.07268  -0.037228  3.913436  -0.026
C  C111  1  0.09519326  0.28794283  0.96302081  1  0.554619  -0.004405  0.04097  -0.077699  -0.00288  3.915857  -0.001
C  C112  1  0.38618150  0.86263228  0.09036923  1  -0.024942  0.003147  -0.236095  -0.462515  0.003248  3.944542  0.001
C  C113  1  0.60563774  0.90870306  0.13996230  1  -0.060897  0.003284  -0.236662  -0.460757  0.003455  3.948351  0.001
C  C114  1  0.34365690  0.63821756  0.40908265  1  -0.060905  0.003735  -0.236581  -0.461214  0.003984  3.944474  0.001
C  C115  1  0.65853489  0.58999750  0.35932401  1  -0.072978  0.003757  -0.234945  -0.460445  0.004086  3.945481  0.001
C  C116  1  0.61153864  0.13760224  0.90996898  1  -0.023506  -0.003542  -0.234995  -0.461564  -0.003963  3.943182  -0.001
C  C117  1  0.39347919  0.09082446  0.86037273  1  -0.054611  0.00321  -0.236877  -0.462986  0.003432  3.945978  0.001
C  C118  1  0.65730378  0.36211291  0.59153966  1  -0.080887  -0.003254  -0.234017  -0.461245  -0.00346  3.942286  -0.001
C  C119  1  0.34280303  0.40974187  0.63998035  1  -0.062868  0.003599  -0.234592  -0.460116  0.003945  3.943294  0.001
N  N120  1  0.03181978  0.73136922  0.37882021  1  -0.435808  0.051767  -0.317454  -0.541402  0.045  3.198364  0.003
N  N121  1  0.96854672  0.62000816  0.27086637  1  -0.386039  0.047699  -0.31635  -0.53848  0.041778  3.195285  -0.001
N  N122  1  0.13491851  0.77495317  0.11937003  1  -0.378103  0.017775  -0.320521  -0.532384  0.012435  3.215878  0.012
N  N123  1  0.85594779  0.87874604  0.23470682  1  -0.392131  0.000903  -0.317813  -0.544818  -0.005078  3.213749  -0.009
N  N124  1  0.96839387  0.26850900  0.62127706  1  -0.434812  -0.009737  -0.319604  -0.543242  -0.004117  3.212502  -0.002
N  N125  1  0.03144430  0.37910906  0.72967575  1  -0.388648  0.045659  -0.314212  -0.534058  0.040273  3.190526  -0.002
N  N126  1  0.86349413  0.22475418  0.88067130  1  -0.374206  -0.04225  -0.314958  -0.530893  -0.036195  3.192083  0.006
N  N127  1  0.14344726  0.12158016  0.76528738  1  -0.397598  0.003112  -0.318679  -0.545411  -0.002168  3.218652  -0.005
N  N128  1  0.96557052  0.78874218  0.44153242  1  -0.275437  0.036263  0.107031  0.42993  0.023303  4.415535  0.024
N  N129  1  0.03621064  0.55846747  0.21226128  1  -0.30202  0.036193  0.109005  0.431794  0.023143  4.413048  0.024
N  N130  1  0.18881244  0.71728886  0.05677659  1  -0.317487  0.001797  0.112952  0.434121  0.00048  4.402764  0.0
N  N131  1  0.80313300  0.94137397  0.29192759  1  -0.359659  1.7e-05  0.102971  0.429169  -0.000324  4.433329  0.001
N  N132  1  0.03440767  0.21116750  0.55862222  1  -0.332223  0.000433  0.106226  0.43066  0.000787  4.424498  0.001
N  N133  1  0.96367055  0.44087520  0.78810291  1  -0.280789  0.034391  0.109717  0.431645  0.022279  4.406597  0.024
N  N134  1  0.81029717  0.28274650  0.94299993  1  -0.324427  -0.03153  0.112585  0.433209  -0.020446  4.400239  -0.022
N  N135  1  0.19671740  0.05897940  0.70797866  1  -0.336188  -0.000807  0.10221  0.428669  -0.000817  4.428074  0.0
N  N136  1  0.90189713  0.84237311  0.50240012  1  0.032307  0.109238  -0.145701  -0.320669  0.08504  2.604723  0.075
N  N137  1  0.10077707  0.49937952  0.15673778  1  0.012807  0.099548  -0.147374  -0.322629  0.077452  2.599311  0.068
N  N138  1  0.24129505  0.66199726  0.99749812  1  0.046249  0.018522  -0.135123  -0.304438  0.01447  2.589467  0.014
N  N139  1  0.75306578  0.00226837  0.34567599  1  0.057636  -0.006983  -0.15534  -0.335143  -0.005535  2.611524  -0.004
N  N140  1  0.09756128  0.15711118  0.49808004  1  0.081543  -0.004414  -0.149245  -0.326079  -0.003715  2.60986  -0.004
N  N141  1  0.89908607  0.50008762  0.84342256  1  0.007717  0.088272  -0.14049  -0.313824  0.068786  2.595518  0.061
N  N142  1  0.75883300  0.33803517  0.00220502  1  0.049827  -0.074888  -0.134369  -0.303452  -0.058461  2.588673  -0.052
N  N143  1  0.24721336  0.99818242  0.65409174  1  0.039996  -0.004853  -0.15321  -0.331777  -0.003658  2.609603  -0.002
N  N144  1  0.98185209  0.44771673  0.45025964  1  -0.39811  0.053831  -0.302483  -0.531148  0.050476  3.122669  0.019
N  N145  1  0.01805480  0.55243287  0.55018926  1  -0.393694  0.056021  -0.301797  -0.533913  0.051932  3.118664  0.021
N  N146  1  0.88252158  0.04536248  0.05520097  1  -0.332611  -0.044923  -0.303056  -0.518462  -0.042395  3.132834  -0.011
N  N147  1  0.12258110  0.95206414  0.94257837  1  -0.323892  -0.049237  -0.300735  -0.526788  -0.047393  3.112531  -0.017
N  N148  1  0.93974808  0.41418131  0.41661499  1  -0.323688  0.026804  0.101223  0.429167  0.015671  4.427723  0.015
N  N149  1  0.06079080  0.58526998  0.58382957  1  -0.321951  0.026202  0.101387  0.430491  0.014929  4.432688  0.014
N  N150  1  0.77311442  0.07903761  0.08818447  1  -0.403239  -0.024507  0.104318  0.425336  -0.014155  4.420199  -0.014
N  N151  1  0.23188082  0.91830061  0.91009623  1  -0.439564  -0.025413  0.105957  0.432148  -0.01469  4.423183  -0.014
N  N152  1  0.89968986  0.38222722  0.38352637  1  0.045672  0.110618  -0.179172  -0.357214  0.086772  2.533676  0.077
N  N153  1  0.10145631  0.61700446  0.61660490  1  0.0325  0.111354  -0.18428  -0.36358  0.087201  2.535221  0.078
N  N154  1  0.66813328  0.11391387  0.11800472  1  0.087606  -0.092649  -0.166786  -0.338895  -0.072893  2.532335  -0.065
N  N155  1  0.33700231  0.88376397  0.88023019  1  0.100505  -0.101072  -0.178705  -0.35546  -0.079897  2.532219  -0.071
N  N156  1  0.37512550  0.69422928  0.14650964  1  -1.237474  0.057996  -0.322499  -0.335746  0.039979  3.420469  0.023
N  N157  1  0.62004116  0.85305865  0.30684367  1  -1.265555  0.057642  -0.323847  -0.336829  0.040149  3.420883  0.024
N  N158  1  0.21910793  0.80669505  0.35230646  1  -1.269134  0.051287  -0.323618  -0.339499  0.034979  3.419106  0.019
N  N159  1  0.78090989  0.64770257  0.19330236  1  -1.269453  0.051102  -0.32167  -0.337623  0.03493  3.416051  0.019
N  N160  1  0.62336009  0.30560382  0.85391480  1  -1.237226  -0.049898  -0.320685  -0.338137  -0.034037  3.415436  -0.018
N  N161  1  0.37915123  0.14708486  0.69343138  1  -1.269729  0.055961  -0.324058  -0.335941  0.038766  3.420899  0.022
N  N162  1  0.78145642  0.19310001  0.64819645  1  -1.276264  -0.057741  -0.324333  -0.336353  -0.03996  3.424845  -0.023
N  N163  1  0.21950508  0.35296164  0.80606602  1  -1.263252  0.050725  -0.321555  -0.338781  0.034841  3.414265  0.019
N  N164  1  0.23786447  0.58275724  0.26904714  1  -0.581942  0.02738  -0.213182  -0.000566  0.013648  3.604435  0.0
N  N165  1  0.76101798  0.73024056  0.41753553  1  -0.578225  0.024764  -0.21387  0.001933  0.011791  3.612195  -0.001
N  N166  1  0.09071743  0.91672327  0.23020574  1  -0.595377  0.052023  -0.216474  -0.003169  0.034815  3.588754  0.019
N  N167  1  0.90617691  0.77093429  0.08582734  1  -0.589419  0.052722  -0.21523  -0.004116  0.035687  3.575907  0.02
N  N168  1  0.76156036  0.41580999  0.73167319  1  -0.588699  -0.051542  -0.217053  -0.006289  -0.034409  3.585257  -0.018
N  N169  1  0.23812364  0.27008682  0.58311457  1  -0.583738  0.019218  -0.212103  0.005164  0.007677  3.609114  -0.005
N  N170  1  0.91108069  0.08140081  0.76988178  1  -0.601225  -0.023598  -0.215238  -0.00077  -0.010793  3.604402  0.002
N  N171  1  0.09501426  0.22912512  0.91433583  1  -0.594231  0.050357  -0.215057  -0.000522  0.033774  3.58824  0.018
O  O172  1  0.17424576  0.52706014  0.33464901  1  -0.616244  -0.013117  -0.199074  -0.337637  -0.015855  2.26439  -0.033
O  O173  1  0.82765084  0.66615962  0.47254494  1  -0.613303  -0.016094  -0.197912  -0.33541  -0.018107  2.273732  -0.036
O  O174  1  0.03323474  0.97197259  0.16528367  1  -0.613309  -0.001768  -0.206792  -0.339573  -6.5e-05  2.276486  0.016
O  O175  1  0.96039986  0.83739266  0.03139283  1  -0.622622  0.002849  -0.204484  -0.338653  0.003675  2.275963  0.021
O  O176  1  0.82634713  0.47130049  0.66588828  1  -0.62715  0.006858  -0.205441  -0.343292  0.003321  2.258905  -0.013
O  O177  1  0.17135638  0.33434752  0.52836021  1  -0.610714  -0.030692  -0.194067  -0.329171  -0.029399  2.27701  -0.047
O  O178  1  0.96810557  0.02561037  0.83426614  1  -0.612437  0.021539  -0.198289  -0.331948  0.021837  2.274737  0.039
O  O179  1  0.04051806  0.16298752  0.96879624  1  -0.623214  -0.007933  -0.20677  -0.346366  -0.00439  2.269682  0.013
