# generated using pymatgen
data_ZnH16C20(N3O2)2
_symmetry_space_group_name_H-M   'P 1'
_cell_length_a   12.85273464
_cell_length_b   14.56810805
_cell_length_c   14.56809803
_cell_angle_alpha   89.99995826
_cell_angle_beta   90.00004935
_cell_angle_gamma   90.00006769
_symmetry_Int_Tables_number   1
_chemical_formula_structural   ZnH16C20(N3O2)2
_chemical_formula_sum   'Zn4 H64 C80 N24 O16'
_cell_volume   2727.73106684
_cell_formula_units_Z   4
loop_
 _symmetry_equiv_pos_site_id
 _symmetry_equiv_pos_as_xyz
  1  'x, y, z'
loop_
 _atom_site_type_symbol
 _atom_site_label
 _atom_site_symmetry_multiplicity
 _atom_site_fract_x
 _atom_site_fract_y
 _atom_site_fract_z
 _atom_site_occupancy
 _atom_site_pbe_bader_charge
 _atom_site_pbe_bader_spin_density
 _atom_site_pbe_cm5_charge
 _atom_site_pbe_ddec_charge
 _atom_site_pbe_ddec_spin_density
 _atom_site_pbe_ddec_sum_bond_order
 _atom_site_pbe_magmom
Zn  Zn0  1  0.99928339  0.50000025  0.00000020  1  1.264742  0  0.716626  0.782601  0  2.415298  0
Zn  Zn1  1  0.49928376  0.99999953  0.49999989  1  1.264743  0  0.716575  0.782484  0  2.415429  0
Zn  Zn2  1  0.49928367  0.50000031  0.99999946  1  1.26495  0  0.716596  0.782614  0  2.415343  0
Zn  Zn3  1  0.99928408  0.00000034  0.49999908  1  1.264866  0  0.716587  0.782504  0  2.415431  0
H  H4  1  0.00828322  0.81067395  0.81186959  1  0.132287  0  0.106909  0.113209  0  0.99323  0
H  H5  1  0.50828388  0.68932439  0.31187044  1  0.132276  0  0.106943  0.11331  0  0.993228  0
H  H6  1  0.00828406  0.18932582  0.18813019  1  0.13224  0  0.106915  0.113234  0  0.993227  0
H  H7  1  0.50828381  0.31067454  0.68812972  1  0.132272  0  0.106933  0.11329  0  0.993212  0
H  H8  1  0.50828407  0.68813055  0.68932397  1  0.132276  0  0.106941  0.113312  0  0.9932  0
H  H9  1  0.00828370  0.81186926  0.18932504  1  0.132272  0  0.106949  0.113313  0  0.993215  0
H  H10  1  0.00828436  0.18812983  0.81067336  1  0.132249  0  0.106921  0.113258  0  0.99316  0
H  H11  1  0.50828363  0.31187044  0.31067550  1  0.132274  0  0.106939  0.113294  0  0.993265  0
H  H12  1  0.13330800  0.91042208  0.72318403  1  0.117757  0  0.108845  0.125308  0  1.013078  0
H  H13  1  0.63330775  0.58957715  0.22318427  1  0.11775  0  0.108889  0.125398  0  1.013049  0
H  H14  1  0.13330879  0.08957783  0.27681584  1  0.117764  0  0.108831  0.125316  0  1.013097  0
H  H15  1  0.63330790  0.41042259  0.77681529  1  0.117773  0  0.108874  0.125313  0  1.01317  0
H  H16  1  0.63330883  0.77681616  0.58957795  1  0.11777  0  0.108832  0.125282  0  1.013172  0
H  H17  1  0.13330757  0.72318385  0.08957771  1  0.11775  0  0.108822  0.125279  0  1.013178  0
H  H18  1  0.13330922  0.27681537  0.91042147  1  0.117769  0  0.108837  0.125299  0  1.013206  0
H  H19  1  0.63330760  0.22318359  0.41042230  1  0.117754  0  0.108832  0.125307  0  1.013064  0
H  H20  1  0.38909553  0.74873680  0.82836745  1  0.132455  0  0.106411  0.119303  0  1.027285  0
H  H21  1  0.88909550  0.75126399  0.32836688  1  0.132535  0  0.106397  0.11932  0  1.027309  0
H  H22  1  0.38909644  0.25126338  0.17163193  1  0.13252  0  0.106394  0.119314  0  1.027303  0
H  H23  1  0.88909455  0.24873671  0.67163357  1  0.13246  0  0.106398  0.119263  0  1.027485  0
H  H24  1  0.88909565  0.67163305  0.75126426  1  0.132444  0  0.106405  0.119259  0  1.027447  0
H  H25  1  0.38909453  0.82836643  0.25126394  1  0.132458  0  0.106397  0.119266  0  1.027469  0
H  H26  1  0.38909666  0.17163238  0.74873750  1  0.132441  0  0.106404  0.119268  0  1.027438  0
H  H27  1  0.88909440  0.32836697  0.24873619  1  0.132461  0  0.106397  0.119281  0  1.027342  0
H  H28  1  0.26415789  0.65183668  0.91458185  1  0.108328  0  0.106885  0.111959  0  1.021766  0
H  H29  1  0.76415799  0.84816529  0.41458053  1  0.108328  0  0.106875  0.111967  0  1.021709  0
H  H30  1  0.26415807  0.34816405  0.08541744  1  0.10832  0  0.106883  0.111976  0  1.0217  0
H  H31  1  0.76415605  0.15183528  0.58541914  1  0.108342  0  0.106892  0.111982  0  1.021692  0
H  H32  1  0.76415569  0.58541859  0.84816433  1  0.108346  0  0.106897  0.111973  0  1.021727  0
H  H33  1  0.26415624  0.91458068  0.34816464  1  0.108348  0  0.106896  0.112015  0  1.021657  0
H  H34  1  0.26415894  0.08541799  0.65183602  1  0.108313  0  0.106879  0.11197  0  1.021703  0
H  H35  1  0.76415602  0.41458129  0.15183533  1  0.108345  0  0.106892  0.111984  0  1.021706  0
H  H36  1  0.43833499  0.93999844  0.83393298  1  0.109008  0  0.145487  0.114773  0  0.964622  0
H  H37  1  0.93833548  0.56000102  0.33393324  1  0.109007  0  0.145491  0.114971  0  0.964621  0
H  H38  1  0.43833408  0.06000110  0.16606712  1  0.108994  0  0.145503  0.115  0  0.964629  0
H  H39  1  0.93833400  0.43999904  0.66606724  1  0.109009  0  0.145499  0.114878  0  0.964982  0
H  H40  1  0.93833410  0.66606756  0.56000184  1  0.109029  0  0.145498  0.114892  0  0.964944  0
H  H41  1  0.43833376  0.83393279  0.06000152  1  0.109013  0  0.145498  0.114869  0  0.964984  0
H  H42  1  0.43833608  0.16606881  0.93999996  1  0.109031  0  0.145468  0.114844  0  0.965012  0
H  H43  1  0.93833460  0.33393388  0.43999933  1  0.109  0  0.145489  0.114785  0  0.96461  0
H  H44  1  0.20962319  0.91159049  0.54787703  1  0.117307  0  0.106754  0.173572  0  1.010597  0
H  H45  1  0.70962372  0.58841101  0.04787727  1  0.117404  0  0.106749  0.173585  0  1.010595  0
H  H46  1  0.20962493  0.08841019  0.45212221  1  0.11734  0  0.106757  0.173604  0  1.010599  0
H  H47  1  0.70962404  0.41158882  0.95212235  1  0.117338  0  0.106753  0.173585  0  1.010536  0
H  H48  1  0.70962345  0.95212242  0.58841098  1  0.117394  0  0.106754  0.173577  0  1.010557  0
H  H49  1  0.20962350  0.54787699  0.08840950  1  0.117389  0  0.106736  0.173576  0  1.010537  0
H  H50  1  0.20962384  0.45212163  0.91159043  1  0.117299  0  0.106779  0.173654  0  1.010467  0
H  H51  1  0.70962431  0.04787809  0.41159001  1  0.117328  0  0.106743  0.173529  0  1.010669  0
H  H52  1  0.24478686  0.79938718  0.58384884  1  0.081241  0  0.105897  0.15941  0  0.97678  0
H  H53  1  0.74478753  0.70061364  0.08384900  1  0.081637  0  0.105909  0.159446  0  0.976704  0
H  H54  1  0.24478871  0.20061353  0.41615112  1  0.081239  0  0.105908  0.159461  0  0.976734  0
H  H55  1  0.74478767  0.29938622  0.91615065  1  0.081226  0  0.105913  0.159428  0  0.976714  0
H  H56  1  0.74478798  0.91615067  0.70061440  1  0.081211  0  0.105917  0.159434  0  0.97673  0
H  H57  1  0.24478730  0.58384869  0.20061358  1  0.081639  0  0.105926  0.159448  0  0.976696  0
H  H58  1  0.24478671  0.41615134  0.79938638  1  0.081632  0  0.105934  0.15946  0  0.976702  0
H  H59  1  0.74478723  0.08384919  0.29938662  1  0.081229  0  0.105899  0.159402  0  0.976788  0
H  H60  1  0.31967675  0.85540482  0.49673727  1  0.145009  0  0.106206  0.174872  0  1.020726  0
H  H61  1  0.81967551  0.64459715  0.99673692  1  0.144985  0  0.106209  0.174907  0  1.020647  0
H  H62  1  0.31967784  0.14459529  0.50326275  1  0.144972  0  0.106234  0.174922  0  1.020653  0
H  H63  1  0.81967639  0.35540347  0.00326279  1  0.144976  0  0.106205  0.174892  0  1.020636  0
H  H64  1  0.81967568  0.00326349  0.64459715  1  0.144974  0  0.1062  0.174866  0  1.020638  0
H  H65  1  0.31967556  0.49673723  0.14459603  1  0.144981  0  0.106212  0.174923  0  1.020583  0
H  H66  1  0.31967591  0.50326219  0.85540398  1  0.144993  0  0.106221  0.174928  0  1.020583  0
H  H67  1  0.81967621  0.99673783  0.35540324  1  0.144989  0  0.106213  0.174874  0  1.020711  0
C  C68  1  0.05425705  0.66384018  0.91807364  1  1.589114  0  0.19683  0.554733  0  4.252778  0
C  C69  1  0.55425713  0.83615882  0.41807370  1  1.58916  0  0.196835  0.55474  0  4.252689  0
C  C70  1  0.05425798  0.33615964  0.08192686  1  1.589041  0  0.196816  0.554719  0  4.252723  0
C  C71  1  0.55425443  0.16384084  0.58192718  1  1.588633  0  0.196906  0.554796  0  4.252751  0
C  C72  1  0.55425405  0.58192730  0.83615788  1  1.588702  0  0.196847  0.554739  0  4.252689  0
C  C73  1  0.05425460  0.91807245  0.33615750  1  1.588689  0  0.196868  0.55479  0  4.252603  0
C  C74  1  0.05425498  0.08192669  0.66384094  1  1.5893  0  0.196848  0.554765  0  4.252786  0
C  C75  1  0.55425517  0.41807374  0.16384163  1  1.588631  0  0.196822  0.554708  0  4.252611  0
C  C76  1  0.12915552  0.72611669  0.86893545  1  0.011507  0  -0.016373  -0.034202  0  3.963289  0
C  C77  1  0.62915630  0.77388517  0.36893487  1  0.011251  0  -0.016315  -0.033961  0  3.96302  0
C  C78  1  0.12915564  0.27388390  0.13106510  1  0.011546  0  -0.016352  -0.034069  0  3.963175  0
C  C79  1  0.62915606  0.22611457  0.63106469  1  0.011245  0  -0.016364  -0.034061  0  3.962939  0
C  C80  1  0.62915562  0.63106552  0.77388484  1  0.011218  0  -0.016299  -0.033929  0  3.962846  0
C  C81  1  0.12915611  0.86893435  0.27388518  1  0.01089  0  -0.016331  -0.033957  0  3.962784  0
C  C82  1  0.12915583  0.13106487  0.72611607  1  0.011446  0  -0.016344  -0.034089  0  3.963024  0
C  C83  1  0.62915674  0.36893491  0.22611473  1  0.011222  0  -0.016321  -0.03403  0  3.963103  0
C  C84  1  0.09193234  0.79860860  0.81474989  1  -0.161965  0  -0.079186  -0.076456  0  3.963497  0
C  C85  1  0.59193146  0.70139258  0.31474799  1  -0.161757  0  -0.079283  -0.076613  0  3.963403  0
C  C86  1  0.09193319  0.20139195  0.18525064  1  -0.161894  0  -0.079241  -0.076477  0  3.963447  0
C  C87  1  0.59193059  0.29860781  0.68525223  1  -0.161791  0  -0.079236  -0.076562  0  3.963265  0
C  C88  1  0.59193164  0.68525170  0.70139147  1  -0.161765  0  -0.079309  -0.076695  0  3.963353  0
C  C89  1  0.09193127  0.81474681  0.20139116  1  -0.161425  0  -0.079277  -0.076603  0  3.963309  0
C  C90  1  0.09193348  0.18525031  0.79860799  1  -0.161906  0  -0.07926  -0.076508  0  3.963376  0
C  C91  1  0.59193119  0.31474869  0.29860876  1  -0.161763  0  -0.079297  -0.076716  0  3.963554  0
C  C92  1  0.16085621  0.85398716  0.76595355  1  -0.002213  0  -0.088439  -0.162312  0  3.968348  0
C  C93  1  0.66085603  0.64601344  0.26595169  1  -0.002158  0  -0.088457  -0.162241  0  3.968572  0
C  C94  1  0.16085703  0.14601278  0.23404635  1  -0.002204  0  -0.088402  -0.162182  0  3.968624  0
C  C95  1  0.66085606  0.35398565  0.73404584  1  -0.002172  0  -0.08847  -0.162591  0  3.970347  0
C  C96  1  0.66085705  0.73404670  0.64601431  1  -0.002156  0  -0.088342  -0.162496  0  3.970283  0
C  C97  1  0.16085585  0.76595330  0.14601473  1  -0.002178  0  -0.088385  -0.162561  0  3.970335  0
C  C98  1  0.16085739  0.23404526  0.85398723  1  -0.002186  0  -0.088409  -0.162626  0  3.970268  0
C  C99  1  0.66085660  0.26595445  0.35398597  1  -0.002135  0  -0.088379  -0.162257  0  3.96846  0
C  C100  1  0.26747242  0.83593545  0.77256462  1  0.250303  0  0.088365  0.161982  0  4.036874  0
C  C101  1  0.76747071  0.66406526  0.27256206  1  0.250245  0  0.088349  0.160853  0  4.037867  0
C  C102  1  0.26747326  0.16406529  0.22743536  1  0.250285  0  0.088369  0.160907  0  4.037791  0
C  C103  1  0.76746916  0.33593600  0.72743693  1  0.250244  0  0.088399  0.155785  0  4.036241  0
C  C104  1  0.76747095  0.72743710  0.66406544  1  0.250233  0  0.088339  0.155769  0  4.036174  0
C  C105  1  0.26746975  0.77256162  0.16406310  1  0.250259  0  0.088376  0.155764  0  4.036217  0
C  C106  1  0.26747438  0.22743431  0.83593550  1  0.250243  0  0.08835  0.155811  0  4.036232  0
C  C107  1  0.76746970  0.27256210  0.33593560  1  0.250227  0  0.088379  0.161967  0  4.036923  0
C  C108  1  0.30620268  0.76437091  0.82635205  1  0.000822  0  -0.091855  -0.172816  0  3.988971  0
C  C109  1  0.80620262  0.73563049  0.32635150  1  0.000793  0  -0.091869  -0.172675  0  3.989242  0
C  C110  1  0.30620356  0.23562918  0.17364796  1  0.000724  0  -0.091862  -0.172722  0  3.98923  0
C  C111  1  0.80620325  0.26437013  0.67364752  1  0.000825  0  -0.091886  -0.173157  0  3.99101  0
C  C112  1  0.80620356  0.67364700  0.73563075  1  0.000825  0  -0.091853  -0.173131  0  3.990983  0
C  C113  1  0.30620321  0.82635172  0.23563044  1  0.000883  0  -0.091887  -0.173135  0  3.990992  0
C  C114  1  0.30620303  0.17364700  0.76437094  1  0.000793  0  -0.091871  -0.173188  0  3.991059  0
C  C115  1  0.80620310  0.32635224  0.26436963  1  0.000829  0  -0.091875  -0.172772  0  3.988997  0
C  C116  1  0.23624946  0.70966025  0.87434664  1  -0.021362  0  -0.080602  -0.066666  0  3.951543  0
C  C117  1  0.73624948  0.79034035  0.37434330  1  -0.021419  0  -0.080588  -0.06665  0  3.951393  0
C  C118  1  0.23624959  0.29033977  0.12565400  1  -0.021345  0  -0.080579  -0.066564  0  3.951328  0
C  C119  1  0.73624765  0.20966019  0.62565703  1  -0.021355  0  -0.080591  -0.066638  0  3.951428  0
C  C120  1  0.73624723  0.62565581  0.79033933  1  -0.021362  0  -0.080642  -0.066659  0  3.951524  0
C  C121  1  0.23624850  0.87434210  0.29033966  1  -0.021405  0  -0.080587  -0.066675  0  3.951373  0
C  C122  1  0.23625054  0.12565379  0.70966029  1  -0.021361  0  -0.080544  -0.066516  0  3.951291  0
C  C123  1  0.73624756  0.37434336  0.20966032  1  -0.021366  0  -0.080587  -0.066706  0  3.951623  0
C  C124  1  0.42266591  0.93848557  0.76084176  1  1.008273  0  0.153528  0.075714  0  3.977352  0
C  C125  1  0.92266640  0.56151462  0.26083996  1  1.00831  0  0.153541  0.074589  0  3.978206  0
C  C126  1  0.42266663  0.06151464  0.23915833  1  1.008286  0  0.1535  0.074525  0  3.977968  0
C  C127  1  0.92266500  0.43848611  0.73915914  1  1.008303  0  0.153489  0.069448  0  3.974917  0
C  C128  1  0.92266589  0.73916078  0.56151470  1  1.008324  0  0.153528  0.069471  0  3.974926  0
C  C129  1  0.42266623  0.76084024  0.06151443  1  1.008306  0  0.153519  0.06953  0  3.974944  0
C  C130  1  0.42266709  0.23915859  0.93848429  1  1.007927  0  0.153555  0.06958  0  3.97465  0
C  C131  1  0.92266629  0.26083996  0.43848577  1  1.008318  0  0.153542  0.075695  0  3.977557  0
C  C132  1  0.34630231  0.90500010  0.63043968  1  0.953031  0  0.247632  0.361543  0  3.910696  0
C  C133  1  0.84630285  0.59500079  0.13043923  1  0.953014  0  0.247598  0.360486  0  3.911537  0
C  C134  1  0.34630320  0.09500071  0.36956104  1  0.952966  0  0.24764  0.360582  0  3.911437  0
C  C135  1  0.84630230  0.40499987  0.86956050  1  0.953018  0  0.247603  0.355477  0  3.909971  0
C  C136  1  0.84630248  0.86956063  0.59500081  1  0.952962  0  0.247659  0.355614  0  3.909784  0
C  C137  1  0.34630187  0.63043891  0.09500064  1  0.953  0  0.247643  0.355625  0  3.909826  0
C  C138  1  0.34630209  0.36956054  0.90499940  1  0.953003  0  0.247665  0.355635  0  3.90978  0
C  C139  1  0.84630267  0.13044002  0.40499961  1  0.953031  0  0.247663  0.361568  0  3.910596  0
C  C140  1  0.27583320  0.86560102  0.56063852  1  -0.075929  0  -0.231228  -0.488468  0  3.905289  0
C  C141  1  0.77583301  0.63439985  0.06063941  1  -0.076388  0  -0.231235  -0.488289  0  3.905427  0
C  C142  1  0.27583421  0.13439973  0.43936077  1  -0.075856  0  -0.231266  -0.488375  0  3.905481  0
C  C143  1  0.77583404  0.36560004  0.93936095  1  -0.075905  0  -0.231267  -0.488582  0  3.906533  0
C  C144  1  0.77583350  0.93936100  0.63440054  1  -0.075903  0  -0.231244  -0.48856  0  3.906538  0
C  C145  1  0.27583279  0.56063913  0.13439974  1  -0.076393  0  -0.231244  -0.488626  0  3.906465  0
C  C146  1  0.27583229  0.43936024  0.86560024  1  -0.076299  0  -0.231291  -0.488706  0  3.906445  0
C  C147  1  0.77583356  0.06063958  0.36560050  1  -0.075907  0  -0.231264  -0.488456  0  3.90533  0
N  N148  1  0.47691973  0.97996184  0.69696864  1  -0.68603  0  -0.229045  -0.192642  0  3.201498  0
N  N149  1  0.97691939  0.52003914  0.19696962  1  -0.686077  0  -0.229111  -0.192456  0  3.202003  0
N  N150  1  0.47691968  0.02003843  0.30303081  1  -0.686048  0  -0.229057  -0.192389  0  3.20173  0
N  N151  1  0.97691888  0.47996165  0.80303159  1  -0.686035  0  -0.229049  -0.192887  0  3.203919  0
N  N152  1  0.97691974  0.80303184  0.52003914  1  -0.68606  0  -0.229063  -0.192892  0  3.203931  0
N  N153  1  0.47691999  0.69696858  0.02003961  1  -0.686049  0  -0.229066  -0.192919  0  3.203977  0
N  N154  1  0.47692020  0.30303375  0.97996259  1  -0.685663  0  -0.229062  -0.19293  0  3.203725  0
N  N155  1  0.97691931  0.19696963  0.47996138  1  -0.686086  0  -0.229114  -0.19271  0  3.201761  0
N  N156  1  0.42847551  0.95855618  0.61518994  1  -0.809862  0  -0.244928  -0.247122  0  3.503323  0
N  N157  1  0.92847598  0.54144343  0.11519090  1  -0.809843  0  -0.244834  -0.246884  0  3.503654  0
N  N158  1  0.42847635  0.04144404  0.38480948  1  -0.809851  0  -0.244901  -0.246997  0  3.503609  0
N  N159  1  0.92847552  0.45855731  0.88480958  1  -0.809859  0  -0.244856  -0.247566  0  3.505935  0
N  N160  1  0.92847564  0.88480976  0.54144408  1  -0.809971  0  -0.244906  -0.247662  0  3.505919  0
N  N161  1  0.42847578  0.61518991  0.04144392  1  -0.809969  0  -0.244915  -0.247683  0  3.505939  0
N  N162  1  0.42847530  0.38481100  0.95855618  1  -0.810002  0  -0.244942  -0.247682  0  3.505942  0
N  N163  1  0.92847586  0.11519098  0.45855640  1  -0.809843  0  -0.244862  -0.247034  0  3.503398  0
N  N164  1  0.34027017  0.89140667  0.72337701  1  -1.268833  0  -0.215435  -0.075906  0  3.746101  0
N  N165  1  0.84027072  0.60859414  0.22337723  1  -1.268833  0  -0.215431  -0.074229  0  3.746072  0
N  N166  1  0.34027021  0.10859414  0.27662302  1  -1.268806  0  -0.215435  -0.074249  0  3.746012  0
N  N167  1  0.84027007  0.39140582  0.77662318  1  -1.268829  0  -0.215426  -0.056477  0  3.721994  0
N  N168  1  0.84027102  0.77662268  0.60859493  1  -1.268835  0  -0.215482  -0.056605  0  3.721997  0
N  N169  1  0.34027054  0.72337684  0.10859400  1  -1.268843  0  -0.215445  -0.05659  0  3.722016  0
N  N170  1  0.34026984  0.27662328  0.89140603  1  -1.268782  0  -0.215448  -0.05662  0  3.722003  0
N  N171  1  0.84027055  0.22337796  0.39140617  1  -1.268848  0  -0.215426  -0.075879  0  3.746064  0
O  O172  1  0.09791077  0.59804647  0.96474346  1  -1.177204  0  -0.339019  -0.567065  0  2.344708  0
O  O173  1  0.59791094  0.90195186  0.46474485  1  -1.177196  0  -0.33902  -0.567062  0  2.344602  0
O  O174  1  0.09791097  0.40195271  0.03525638  1  -1.177198  0  -0.339031  -0.567078  0  2.34467  0
O  O175  1  0.59791044  0.09804785  0.53525675  1  -1.17717  0  -0.339035  -0.567084  0  2.344585  0
O  O176  1  0.59791013  0.53525617  0.90195099  1  -1.177196  0  -0.339025  -0.567046  0  2.344452  0
O  O177  1  0.09790997  0.96474357  0.40195126  1  -1.177214  0  -0.339037  -0.567064  0  2.344446  0
O  O178  1  0.09791022  0.03525561  0.59804652  1  -1.17719  0  -0.339054  -0.567152  0  2.344694  0
O  O179  1  0.59791125  0.46474559  0.09804786  1  -1.17718  0  -0.339047  -0.567141  0  2.344463  0
O  O180  1  0.95848797  0.67667898  0.91151993  1  -1.185413  0  -0.321952  -0.553837  0  2.156234  0
O  O181  1  0.45848917  0.82331977  0.41152168  1  -1.185398  0  -0.321945  -0.553834  0  2.156244  0
O  O182  1  0.95848811  0.32332111  0.08848057  1  -1.185393  0  -0.321932  -0.553838  0  2.156197  0
O  O183  1  0.45848805  0.17667980  0.58847913  1  -1.18491  0  -0.321967  -0.553837  0  2.156313  0
O  O184  1  0.45848766  0.58847992  0.82331883  1  -1.184929  0  -0.321955  -0.553852  0  2.156314  0
O  O185  1  0.95848862  0.91152026  0.32331952  1  -1.184907  0  -0.321968  -0.553891  0  2.15632  0
O  O186  1  0.95849057  0.08848120  0.67667892  1  -1.185536  0  -0.321923  -0.553808  0  2.156365  0
O  O187  1  0.45848800  0.41152238  0.17668060  1  -1.18489  0  -0.321936  -0.553775  0  2.156249  0
