# generated using pymatgen
data_LiBH10(C4O5)2
_symmetry_space_group_name_H-M   'P 1'
_cell_length_a   8.72171148
_cell_length_b   8.84131258
_cell_length_c   9.30725420
_cell_angle_alpha   114.25971499
_cell_angle_beta   94.46036697
_cell_angle_gamma   106.87368830
_symmetry_Int_Tables_number   1
_chemical_formula_structural   LiBH10(C4O5)2
_chemical_formula_sum   'Li2 B2 H20 C16 O20'
_cell_volume   609.97026735
_cell_formula_units_Z   2
loop_
 _symmetry_equiv_pos_site_id
 _symmetry_equiv_pos_as_xyz
  1  'x, y, z'
loop_
 _atom_site_type_symbol
 _atom_site_label
 _atom_site_symmetry_multiplicity
 _atom_site_fract_x
 _atom_site_fract_y
 _atom_site_fract_z
 _atom_site_occupancy
 _atom_site_hle17_bader_spin_density
 _atom_site_hle17_ddec_charge
 _atom_site_hle17_ddec_spin_density
 _atom_site_hle17_ddec_sum_bond_order
 _atom_site_hle17_magmom
 _atom_site_hse06_10hf_bader_spin_density
 _atom_site_hse06_10hf_ddec_charge
 _atom_site_hse06_10hf_ddec_spin_density
 _atom_site_hse06_10hf_ddec_sum_bond_order
 _atom_site_hse06_10hf_magmom
 _atom_site_hse06_bader_spin_density
 _atom_site_hse06_ddec_charge
 _atom_site_hse06_ddec_spin_density
 _atom_site_hse06_ddec_sum_bond_order
 _atom_site_hse06_magmom
 _atom_site_pbe_bader_spin_density
 _atom_site_pbe_cm5_charge
 _atom_site_pbe_ddec_charge
 _atom_site_pbe_ddec_spin_density
 _atom_site_pbe_ddec_sum_bond_order
 _atom_site_pbe_magmom
Li  Li0  1  0.99516087  0.46275636  0.66049062  1  0  0.848914  0  0.384507  0  0  0.79342  0  0.508721  0  0  0.805378  0  0.489648  0  0  0.479496  0.784755  0  0.522291  0
Li  Li1  1  0.00483907  0.53724358  0.33951021  1  0  0.848918  0  0.384503  0  0  0.793407  0  0.508752  0  0  0.805363  0  0.489682  0  0  0.479485  0.784733  0  0.52233  0
B  B2  1  0.40259593  0.22396580  0.35660476  1  0  1.020479  0  2.858824  0  0  0.856899  0  3.208544  0  0  0.889355  0  3.185842  0  0  0.065213  0.833645  0  3.226155  0
B  B3  1  0.59740401  0.77603414  0.64339499  1  0  1.020434  0  2.8589  0  0  0.85688  0  3.20856  0  0  0.889328  0  3.185871  0  0  0.06519  0.833626  0  3.226172  0
H  H4  1  0.12686164  0.89095350  0.97239391  1  0  0.070566  0  0.942967  0  0  0.086825  0  1.012978  0  0  0.088087  0  1.012047  0  0  0.092523  0.085706  0  1.013942  0
H  H5  1  0.87313830  0.10904644  0.02760584  1  0  0.070591  0  0.94296  0  0  0.086857  0  1.012962  0  0  0.088119  0  1.01203  0  0  0.092535  0.085737  0  1.013925  0
H  H6  1  0.15589693  0.88881823  0.78220164  1  0  0.084192  0  0.962376  0  0  0.103167  0  1.025243  0  0  0.102477  0  1.027702  0  0  0.103496  0.103539  0  1.023608  0
H  H7  1  0.84410301  0.11118171  0.21779811  1  0  0.084195  0  0.962378  0  0  0.103169  0  1.025249  0  0  0.102479  0  1.027709  0  0  0.103496  0.10354  0  1.023615  0
H  H8  1  0.32989468  0.96434068  0.94258165  1  0  0.074579  0  0.943455  0  0  0.090538  0  1.013411  0  0  0.091817  0  1.012337  0  0  0.091087  0.089475  0  1.014217  0
H  H9  1  0.67010685  0.03566059  0.05741874  1  0  0.074586  0  0.943465  0  0  0.090545  0  1.013422  0  0  0.091827  0  1.012345  0  0  0.091091  0.089482  0  1.014227  0
H  H10  1  0.19918828  0.67692663  0.03450102  1  0  0.075116  0  0.90383  0  0  0.08914  0  0.962994  0  0  0.090298  0  0.96163  0  0  0.112771  0.088163  0  0.964018  0
H  H11  1  0.80081166  0.32307331  0.96549873  1  0  0.075111  0  0.903835  0  0  0.089138  0  0.963005  0  0  0.090297  0  0.96164  0  0  0.11277  0.088161  0  0.964029  0
H  H12  1  0.39880839  0.74114752  0.99352767  1  0  0.061801  0  0.92623  0  0  0.074586  0  0.992467  0  0  0.075081  0  0.991446  0  0  0.101001  0.074052  0  0.993426  0
H  H13  1  0.60119198  0.25885375  0.00647263  1  0  0.061804  0  0.926226  0  0  0.074592  0  0.992466  0  0  0.075088  0  0.991444  0  0  0.101004  0.074059  0  0.993423  0
H  H14  1  0.33261193  0.43821239  0.76862271  1  0  0.067405  0  0.922083  0  0  0.077701  0  0.988801  0  0  0.079263  0  0.98711  0  0  0.103153  0.076731  0  0.98978  0
H  H15  1  0.66738685  0.56178754  0.23137802  1  0  0.067406  0  0.922068  0  0  0.077712  0  0.988784  0  0  0.079274  0  0.987095  0  0  0.103149  0.07674  0  0.989765  0
H  H16  1  0.29981158  0.42897551  0.95357851  1  0  0.073446  0  0.929185  0  0  0.089176  0  0.987363  0  0  0.089748  0  0.986777  0  0  0.107547  0.088903  0  0.987547  0
H  H17  1  0.70018836  0.57102443  0.04642231  1  0  0.073451  0  0.929185  0  0  0.089188  0  0.987362  0  0  0.089761  0  0.986776  0  0  0.107549  0.088915  0  0.987546  0
H  H18  1  0.07636286  0.14679729  0.83538660  1  0  0.066313  0  0.948866  0  0  0.082344  0  1.018845  0  0  0.082988  0  1.018508  0  0  0.0883  0.081938  0  1.019019  0
H  H19  1  0.92363593  0.85320265  0.16461414  1  0  0.066327  0  0.948858  0  0  0.082359  0  1.018833  0  0  0.083003  0  1.018497  0  0  0.08831  0.081954  0  1.019007  0
H  H20  1  0.13372855  0.12499498  0.64859190  1  0  0.084965  0  0.949923  0  0  0.098344  0  1.022055  0  0  0.099865  0  1.020885  0  0  0.096691  0.097256  0  1.022848  0
H  H21  1  0.86627024  0.87500495  0.35140777  1  0  0.084953  0  0.949928  0  0  0.098332  0  1.02206  0  0  0.099853  0  1.02089  0  0  0.096681  0.097243  0  1.022853  0
H  H22  1  0.92517255  0.10245966  0.66626085  1  0  0.096055  0  0.955219  0  0  0.110341  0  1.024209  0  0  0.111731  0  1.023005  0  0  0.104031  0.109273  0  1.025144  0
H  H23  1  0.07482624  0.89754028  0.33373882  1  0  0.096051  0  0.955215  0  0  0.110337  0  1.024207  0  0  0.111726  0  1.023004  0  0  0.104035  0.10927  0  1.025143  0
C  C24  1  0.64385008  0.21198108  0.46011107  1  0  0.557989  0  3.809665  0  0  0.510743  0  4.10599  0  0  0.539077  0  4.097756  0  0  0.271687  0.49145  0  4.110988  0
C  C25  1  0.35615058  0.78801753  0.53988929  1  0  0.557962  0  3.809579  0  0  0.510711  0  4.105916  0  0  0.539045  0  4.097679  0  0  0.271653  0.491418  0  4.110915  0
C  C26  1  0.52403151  0.02206027  0.34486514  1  0  0.511213  0  3.855914  0  0  0.463229  0  4.159777  0  0  0.489865  0  4.153444  0  0  0.252968  0.44511  0  4.163553  0
C  C27  1  0.47596887  0.97794100  0.65513516  1  0  0.511221  0  3.855857  0  0  0.463244  0  4.159712  0  0  0.489883  0  4.153372  0  0  0.252992  0.445125  0  4.163488  0
C  C28  1  0.24969449  0.34138394  0.25024211  1  0  0.514694  0  3.86956  0  0  0.465422  0  4.174308  0  0  0.493287  0  4.164758  0  0  0.258134  0.446267  0  4.180848  0
C  C29  1  0.75030244  0.65861732  0.74975470  1  0  0.514545  0  3.86947  0  0  0.465256  0  4.174303  0  0  0.493117  0  4.164758  0  0  0.258089  0.446101  0  4.18084  0
C  C30  1  0.19244599  0.33133424  0.39892563  1  0  0.559769  0  3.835498  0  0  0.509703  0  4.134825  0  0  0.538945  0  4.124338  0  0  0.274975  0.489757  0  4.141714  0
C  C31  1  0.80755841  0.66866172  0.60106968  1  0  0.55999  0  3.835384  0  0  0.509833  0  4.134883  0  0  0.539074  0  4.124394  0  0  0.27498  0.489887  0  4.141771  0
C  C32  1  0.20372665  0.86839952  0.88246492  1  0  -0.078377  0  3.686952  0  0  -0.172022  0  3.956803  0  0  -0.167224  0  3.962844  0  0  -0.145709  -0.175017  0  3.952689  0
C  C33  1  0.79627400  0.13159909  0.11753437  1  0  -0.078412  0  3.686932  0  0  -0.172073  0  3.956797  0  0  -0.167278  0  3.962835  0  0  -0.145729  -0.175067  0  3.952682  0
C  C34  1  0.26926088  0.65341965  0.93880514  1  0  0.05704  0  3.63851  0  0  -0.000679  0  3.911828  0  0  0.006078  0  3.915904  0  0  -0.069174  -0.005323  0  3.909261  0
C  C35  1  0.73073906  0.34658029  0.06119461  1  0  0.057042  0  3.638528  0  0  -0.0007  0  3.911877  0  0  0.006058  0  3.915954  0  0  -0.069181  -0.005344  0  3.909309  0
C  C36  1  0.25770643  0.46291468  0.86003989  1  0  0.051953  0  3.642661  0  0  -0.005549  0  3.912021  0  0  0.000192  0  3.917401  0  0  -0.070999  -0.009484  0  3.907953  0
C  C37  1  0.74229308  0.53708393  0.13995931  1  0  0.051972  0  3.642619  0  0  -0.005549  0  3.912014  0  0  0.000189  0  3.917397  0  0  -0.070986  -0.009483  0  3.907945  0
C  C38  1  0.05456809  0.17169815  0.73010844  1  0  -0.0743  0  3.647047  0  0  -0.1648  0  3.91079  0  0  -0.159714  0  3.915017  0  0  -0.143848  -0.168039  0  3.907574  0
C  C39  1  0.94543185  0.82830179  0.26989239  1  0  -0.074296  0  3.647039  0  0  -0.164795  0  3.91078  0  0  -0.159709  0  3.915006  0  0  -0.143852  -0.168035  0  3.907565  0
O  O40  1  0.57026151  0.32531309  0.46180244  1  0  -0.529359  0  2.205738  0  0  -0.453192  0  2.443597  0  0  -0.476867  0  2.435956  0  0  -0.13947  -0.436515  0  2.448302  0
O  O41  1  0.42973914  0.67468552  0.53819685  1  0  -0.529307  0  2.205658  0  0  -0.453154  0  2.443533  0  0  -0.476826  0  2.43589  0  0  -0.13945  -0.436477  0  2.448241  0
O  O42  1  0.78137866  0.25035368  0.53505674  1  0  -0.506814  0  2.035345  0  0  -0.477033  0  2.270432  0  0  -0.494246  0  2.262448  0  0  -0.275942  -0.465221  0  2.275412  0
O  O43  1  0.21862128  0.74964626  0.46494408  1  0  -0.506807  0  2.035286  0  0  -0.477034  0  2.270411  0  0  -0.494247  0  2.262427  0  0  -0.275929  -0.465219  0  2.27539  0
O  O44  1  0.38680012  0.03609543  0.28520617  1  0  -0.52956  0  2.199464  0  0  -0.459023  0  2.445613  0  0  -0.481817  0  2.438637  0  0  -0.149652  -0.442956  0  2.449744  0
O  O45  1  0.61320097  0.96390451  0.71479259  1  0  -0.529528  0  2.199487  0  0  -0.459002  0  2.445636  0  0  -0.481796  0  2.438657  0  0  -0.149654  -0.442935  0  2.449766  0
O  O46  1  0.54949735  0.88538667  0.31432674  1  0  -0.442699  0  1.952667  0  0  -0.413949  0  2.163261  0  0  -0.430296  0  2.15796  0  0  -0.248853  -0.402702  0  2.166407  0
O  O47  1  0.45050259  0.11461327  0.68567408  1  0  -0.442725  0  1.952614  0  0  -0.413976  0  2.163209  0  0  -0.430324  0  2.157906  0  0  -0.248875  -0.40273  0  2.166355  0
O  O48  1  0.37340289  0.28003560  0.22992616  1  0  -0.511273  0  2.162072  0  0  -0.438093  0  2.398064  0  0  -0.460086  0  2.388712  0  0  -0.147505  -0.423006  0  2.40452  0
O  O49  1  0.62659634  0.71996566  0.77007190  1  0  -0.511233  0  2.162282  0  0  -0.438022  0  2.398268  0  0  -0.460007  0  2.388915  0  0  -0.147459  -0.422936  0  2.404724  0
O  O50  1  0.18882836  0.39460137  0.16725669  1  0  -0.455773  0  1.977034  0  0  -0.423941  0  2.190279  0  0  -0.440239  0  2.182989  0  0  -0.229054  -0.412849  0  2.194855  0
O  O51  1  0.81117359  0.60540123  0.83274747  1  0  -0.455703  0  1.97681  0  0  -0.423871  0  2.190075  0  0  -0.44017  0  2.182788  0  0  -0.229033  -0.412778  0  2.194649  0
O  O52  1  0.27717759  0.25781251  0.45477793  1  0  -0.495794  0  2.189128  0  0  -0.419837  0  2.424336  0  0  -0.442834  0  2.416544  0  0  -0.129565  -0.403876  0  2.428895  0
O  O53  1  0.72282235  0.74218743  0.54521967  1  0  -0.495921  0  2.189  0  0  -0.419938  0  2.424242  0  0  -0.442937  0  2.416449  0  0  -0.129606  -0.403977  0  2.4288  0
O  O54  1  0.08407705  0.38383028  0.45283273  1  0  -0.562416  0  2.098763  0  0  -0.532058  0  2.350753  0  0  -0.54906  0  2.340164  0  0  -0.295903  -0.520627  0  2.357909  0
O  O55  1  0.91592101  0.61617098  0.54717170  1  0  -0.562433  0  2.098981  0  0  -0.532048  0  2.351046  0  0  -0.549044  0  2.340448  0  0  -0.295865  -0.520619  0  2.358205  0
O  O56  1  0.20143064  0.69060224  0.81602782  1  0  -0.34267  0  2.325957  0  0  -0.268583  0  2.585768  0  0  -0.283913  0  2.58746  0  0  -0.268533  -0.258006  0  2.58417  0
O  O57  1  0.79856930  0.30939770  0.18397301  1  0  -0.342683  0  2.325927  0  0  -0.268569  0  2.585737  0  0  -0.283899  0  2.587429  0  0  -0.26853  -0.257989  0  2.584135  0
O  O58  1  0.08734144  0.35685754  0.78369642  1  0  -0.347469  0  2.321699  0  0  -0.272814  0  2.58093  0  0  -0.287233  0  2.579869  0  0  -0.288858  -0.262393  0  2.580797  0
O  O59  1  0.91265850  0.64314240  0.21630440  1  0  -0.347497  0  2.321674  0  0  -0.272834  0  2.580915  0  0  -0.287251  0  2.579856  0  0  -0.288866  -0.26241  0  2.58078  0
