# generated using pymatgen
data_CuH11C7BrN2
_symmetry_space_group_name_H-M   'P 1'
_cell_length_a   4.13233131
_cell_length_b   8.26786365
_cell_length_c   24.37840940
_cell_angle_alpha   89.99970429
_cell_angle_beta   92.38499540
_cell_angle_gamma   89.99982939
_symmetry_Int_Tables_number   1
_chemical_formula_structural   CuH11C7BrN2
_chemical_formula_sum   'Cu4 H44 C28 Br4 N8'
_cell_volume   832.18031844
_cell_formula_units_Z   4
loop_
 _symmetry_equiv_pos_site_id
 _symmetry_equiv_pos_as_xyz
  1  'x, y, z'
loop_
 _atom_site_type_symbol
 _atom_site_label
 _atom_site_symmetry_multiplicity
 _atom_site_fract_x
 _atom_site_fract_y
 _atom_site_fract_z
 _atom_site_occupancy
 _atom_site_hle17_bader_spin_density
 _atom_site_hle17_ddec_charge
 _atom_site_hle17_ddec_spin_density
 _atom_site_hle17_ddec_sum_bond_order
 _atom_site_hle17_magmom
 _atom_site_hse06_10hf_bader_spin_density
 _atom_site_hse06_10hf_ddec_charge
 _atom_site_hse06_10hf_ddec_spin_density
 _atom_site_hse06_10hf_ddec_sum_bond_order
 _atom_site_hse06_10hf_magmom
 _atom_site_hse06_bader_spin_density
 _atom_site_hse06_ddec_charge
 _atom_site_hse06_ddec_spin_density
 _atom_site_hse06_ddec_sum_bond_order
 _atom_site_hse06_magmom
 _atom_site_pbe_bader_spin_density
 _atom_site_pbe_cm5_charge
 _atom_site_pbe_ddec_charge
 _atom_site_pbe_ddec_spin_density
 _atom_site_pbe_ddec_sum_bond_order
 _atom_site_pbe_magmom
Cu  Cu0  1  0.24755070  0.45928611  0.05731868  1  0  0.387515  0  1.869897  0  0  0.285378  0  2.350797  0  0  0.298566  0  2.297784  0  0  0.310809  0.277694  0  2.386915  0
Cu  Cu1  1  0.25242255  0.95928779  0.44267646  1  0  0.387602  0  1.869888  0  0  0.285483  0  2.350778  0  0  0.298627  0  2.297764  0  0  0.310851  0.277806  0  2.386879  0
Cu  Cu2  1  0.75240415  0.54071358  0.94267860  1  0  0.387577  0  1.869873  0  0  0.285475  0  2.350764  0  0  0.298647  0  2.297788  0  0  0.310839  0.277795  0  2.386825  0
Cu  Cu3  1  0.74757103  0.04071553  0.55732316  1  0  0.387588  0  1.869858  0  0  0.28546  0  2.35076  0  0  0.298615  0  2.297737  0  0  0.310856  0.277781  0  2.386857  0
H  H4  1  0.70230612  0.52822913  0.14898695  1  0  0.121804  0  0.991027  0  0  0.136001  0  1.062432  0  0  0.139244  0  1.059877  0  0  0.080981  0.133596  0  1.0643  0
H  H5  1  0.79768460  0.02822895  0.35101344  1  0  0.121856  0  0.991034  0  0  0.136067  0  1.062416  0  0  0.13931  0  1.059859  0  0  0.081008  0.133662  0  1.064283  0
H  H6  1  0.29771167  0.47177177  0.85101326  1  0  0.121775  0  0.991084  0  0  0.135981  0  1.062475  0  0  0.139223  0  1.059914  0  0  0.080974  0.133581  0  1.064331  0
H  H7  1  0.20230170  0.97177437  0.64898695  1  0  0.121822  0  0.991029  0  0  0.136007  0  1.062447  0  0  0.139247  0  1.05989  0  0  0.080975  0.133605  0  1.06431  0
H  H8  1  0.83631744  0.42437828  0.20976418  1  0  0.109456  0  0.95563  0  0  0.132117  0  1.013477  0  0  0.133033  0  1.014231  0  0  0.090741  0.131468  0  1.012954  0
H  H9  1  0.66367313  0.92438362  0.29023510  1  0  0.109462  0  0.955578  0  0  0.132133  0  1.013414  0  0  0.133048  0  1.014178  0  0  0.090741  0.131485  0  1.012886  0
H  H10  1  0.16368101  0.57561536  0.79023384  1  0  0.109454  0  0.955657  0  0  0.132122  0  1.013491  0  0  0.133038  0  1.014246  0  0  0.090728  0.131473  0  1.012966  0
H  H11  1  0.33631316  0.07561848  0.70976570  1  0  0.109455  0  0.955621  0  0  0.13212  0  1.013459  0  0  0.133038  0  1.014214  0  0  0.090729  0.13147  0  1.012937  0
H  H12  1  0.47028747  0.53780931  0.20878576  1  0  0.105725  0  0.950675  0  0  0.127517  0  1.012873  0  0  0.128874  0  1.012801  0  0  0.088764  0.126549  0  1.012942  0
H  H13  1  0.02970787  0.03780559  0.29121356  1  0  0.105708  0  0.950679  0  0  0.127501  0  1.012878  0  0  0.128858  0  1.012805  0  0  0.088745  0.126531  0  1.012949  0
H  H14  1  0.52973034  0.46218917  0.79121363  1  0  0.105759  0  0.950627  0  0  0.127562  0  1.012819  0  0  0.128918  0  1.012748  0  0  0.088797  0.126594  0  1.012886  0
H  H15  1  0.97028327  0.96218805  0.70878686  1  0  0.105716  0  0.950638  0  0  0.127505  0  1.012861  0  0  0.128861  0  1.012789  0  0  0.088742  0.126537  0  1.012929  0
H  H16  1  0.53203228  0.13029752  0.23308074  1  0  0.126812  0  0.985431  0  0  0.14161  0  1.041934  0  0  0.144197  0  1.04214  0  0  0.102919  0.139762  0  1.041949  0
H  H17  1  0.96794324  0.63029310  0.26691976  1  0  0.126858  0  0.985559  0  0  0.141704  0  1.041992  0  0  0.144292  0  1.042195  0  0  0.102972  0.139847  0  1.042018  0
H  H18  1  0.46796374  0.86971063  0.76691767  1  0  0.126808  0  0.985406  0  0  0.14162  0  1.041895  0  0  0.144207  0  1.042101  0  0  0.102928  0.139772  0  1.041911  0
H  H19  1  0.03203820  0.36970054  0.73308141  1  0  0.126788  0  0.985469  0  0  0.141563  0  1.041995  0  0  0.144147  0  1.042206  0  0  0.102913  0.139714  0  1.042011  0
H  H20  1  0.17239399  0.81515501  0.13462682  1  0  0.125983  0  0.950827  0  0  0.140305  0  1.021714  0  0  0.143761  0  1.019146  0  0  0.090979  0.137617  0  1.023829  0
H  H21  1  0.32759950  0.31515457  0.36537406  1  0  0.12605  0  0.950752  0  0  0.140335  0  1.021686  0  0  0.143788  0  1.019122  0  0  0.090986  0.137651  0  1.023797  0
H  H22  1  0.82760442  0.18484589  0.86537366  1  0  0.126038  0  0.950734  0  0  0.140331  0  1.021655  0  0  0.143788  0  1.019087  0  0  0.091001  0.137646  0  1.023764  0
H  H23  1  0.67241100  0.68484753  0.63462774  1  0  0.126003  0  0.950844  0  0  0.140328  0  1.021737  0  0  0.143783  0  1.019173  0  0  0.090991  0.13764  0  1.023852  0
H  H24  1  0.83934985  0.88851903  0.17047114  1  0  0.118681  0  0.949179  0  0  0.140903  0  1.00829  0  0  0.142609  0  1.008414  0  0  0.094967  0.139657  0  1.00821  0
H  H25  1  0.66064335  0.38851697  0.32952987  1  0  0.11867  0  0.949206  0  0  0.140917  0  1.008281  0  0  0.142619  0  1.00841  0  0  0.094975  0.139672  0  1.008202  0
H  H26  1  0.16064613  0.11148307  0.82952932  1  0  0.118647  0  0.949177  0  0  0.1409  0  1.008252  0  0  0.142605  0  1.008376  0  0  0.094971  0.139655  0  1.008172  0
H  H27  1  0.33935505  0.61148756  0.67047143  1  0  0.11865  0  0.949286  0  0  0.140912  0  1.008353  0  0  0.142614  0  1.00848  0  0  0.094937  0.139666  0  1.008273  0
H  H28  1  0.21074503  0.84646482  0.20694075  1  0  0.113598  0  0.957618  0  0  0.137478  0  1.01455  0  0  0.138548  0  1.014901  0  0  0.09437  0.136672  0  1.014337  0
H  H29  1  0.28924826  0.34646312  0.29306007  1  0  0.11356  0  0.957651  0  0  0.137432  0  1.014588  0  0  0.138504  0  1.014937  0  0  0.094342  0.136628  0  1.014376  0
H  H30  1  0.78925338  0.15353487  0.79305973  1  0  0.113566  0  0.957625  0  0  0.137443  0  1.01456  0  0  0.138514  0  1.014909  0  0  0.094349  0.136638  0  1.014347  0
H  H31  1  0.71075740  0.65353778  0.70694169  1  0  0.1135  0  0.9577  0  0  0.137414  0  1.014597  0  0  0.138483  0  1.014951  0  0  0.094332  0.136609  0  1.014384  0
H  H32  1  0.81413135  0.21780860  0.05197722  1  0  0.078279  0  0.943687  0  0  0.08312  0  1.029719  0  0  0.08724  0  1.023224  0  0  0.10211  0.079764  0  1.034807  0
H  H33  1  0.68586547  0.71781272  0.44801795  1  0  0.078329  0  0.943668  0  0  0.083148  0  1.029682  0  0  0.087278  0  1.02319  0  0  0.102122  0.079799  0  1.034763  0
H  H34  1  0.18587678  0.78218746  0.94802128  1  0  0.078385  0  0.94366  0  0  0.083225  0  1.029724  0  0  0.087347  0  1.023229  0  0  0.10215  0.079876  0  1.034796  0
H  H35  1  0.31413539  0.28220027  0.55198008  1  0  0.078235  0  0.943724  0  0  0.083123  0  1.029696  0  0  0.087246  0  1.02321  0  0  0.102147  0.079782  0  1.034768  0
H  H36  1  0.72968699  0.03052425  0.08428004  1  0  0.078968  0  0.932685  0  0  0.093885  0  0.996079  0  0  0.093992  0  0.997395  0  0  0.1096  0.093732  0  0.995235  0
H  H37  1  0.77032074  0.53052389  0.41571595  1  0  0.078981  0  0.93263  0  0  0.093832  0  0.996083  0  0  0.09394  0  0.997412  0  0  0.109596  0.093678  0  0.995239  0
H  H38  1  0.27031630  0.96946939  0.91571801  1  0  0.078948  0  0.932686  0  0  0.093866  0  0.996125  0  0  0.093973  0  0.99744  0  0  0.109607  0.093712  0  0.995282  0
H  H39  1  0.22969710  0.46948789  0.58428098  1  0  0.07896  0  0.932615  0  0  0.093874  0  0.996027  0  0  0.093982  0  0.997352  0  0  0.109582  0.093719  0  0.995184  0
H  H40  1  0.31196712  0.09339381  0.01375853  1  0  0.070513  0  0.981538  0  0  0.088309  0  1.046877  0  0  0.088937  0  1.047683  0  0  0.082434  0.087771  0  1.046377  0
H  H41  1  0.18804964  0.59339613  0.48624168  1  0  0.070576  0  0.981484  0  0  0.088327  0  1.046876  0  0  0.088957  0  1.047687  0  0  0.082432  0.087788  0  1.046378  0
H  H42  1  0.68805550  0.90660588  0.98624295  1  0  0.070487  0  0.98163  0  0  0.08828  0  1.046968  0  0  0.088913  0  1.047775  0  0  0.082419  0.087742  0  1.04647  0
H  H43  1  0.81196573  0.40660719  0.51375851  1  0  0.070418  0  0.981611  0  0  0.088272  0  1.046939  0  0  0.088893  0  1.047755  0  0  0.08243  0.087735  0  1.04644  0
H  H44  1  0.20633541  0.90284582  0.04210748  1  0  0.06969  0  0.958414  0  0  0.085762  0  1.024708  0  0  0.086204  0  1.02592  0  0  0.07954  0.08519  0  1.024253  0
H  H45  1  0.29368416  0.40284281  0.45789385  1  0  0.069603  0  0.958397  0  0  0.085673  0  1.02471  0  0  0.08611  0  1.025936  0  0  0.079516  0.085122  0  1.024233  0
H  H46  1  0.79368480  0.09715629  0.95789316  1  0  0.069624  0  0.958375  0  0  0.085691  0  1.024692  0  0  0.086132  0  1.025907  0  0  0.07953  0.085133  0  1.024222  0
H  H47  1  0.70634094  0.59715809  0.54210395  1  0  0.06968  0  0.958338  0  0  0.085745  0  1.02469  0  0  0.086179  0  1.025915  0  0  0.079529  0.085193  0  1.024215  0
C  C48  1  0.62236014  0.45855191  0.18423559  1  0  -0.353536  0  3.716907  0  0  -0.430241  0  3.949646  0  0  -0.433277  0  3.955446  0  0  -0.242953  -0.427959  0  3.945644  0
C  C49  1  0.87763505  0.95855171  0.31576366  1  0  -0.353587  0  3.716969  0  0  -0.430305  0  3.9497  0  0  -0.433348  0  3.955501  0  0  -0.242978  -0.428022  0  3.945698  0
C  C50  1  0.37764315  0.54144536  0.81576246  1  0  -0.353625  0  3.716889  0  0  -0.430346  0  3.949665  0  0  -0.433377  0  3.955458  0  0  -0.242993  -0.428066  0  3.945657  0
C  C51  1  0.12235367  0.04144677  0.68423716  1  0  -0.353557  0  3.716871  0  0  -0.430257  0  3.949647  0  0  -0.433294  0  3.955451  0  0  -0.242917  -0.427978  0  3.945641  0
C  C52  1  0.44325419  0.31061674  0.16598982  1  0  0.26768  0  3.7727  0  0  0.265447  0  4.040747  0  0  0.275793  0  4.058672  0  0  0.088664  0.258615  0  4.028535  0
C  C53  1  0.05672481  0.81061553  0.33401014  1  0  0.267564  0  3.772551  0  0  0.265358  0  4.040591  0  0  0.275704  0  4.058521  0  0  0.088659  0.258525  0  4.028373  0
C  C54  1  0.55673694  0.68938899  0.83401143  1  0  0.267769  0  3.772584  0  0  0.265543  0  4.040647  0  0  0.27589  0  4.058569  0  0  0.088679  0.258709  0  4.028428  0
C  C55  1  0.94325906  0.18938537  0.66599023  1  0  0.267637  0  3.772543  0  0  0.265405  0  4.04061  0  0  0.275748  0  4.058544  0  0  0.088636  0.258574  0  4.028393  0
C  C56  1  0.41564253  0.16267023  0.19398224  1  0  -0.357651  0  3.763474  0  0  -0.386148  0  4.024679  0  0  -0.397648  0  4.044458  0  0  -0.132214  -0.378646  0  4.011435  0
C  C57  1  0.08434715  0.66266335  0.30601641  1  0  -0.357619  0  3.763448  0  0  -0.386185  0  4.0246  0  0  -0.397689  0  4.044381  0  0  -0.132243  -0.378674  0  4.011366  0
C  C58  1  0.58434620  0.83733308  0.80601775  1  0  -0.357662  0  3.76342  0  0  -0.38617  0  4.024641  0  0  -0.397671  0  4.044422  0  0  -0.13223  -0.37867  0  4.011394  0
C  C59  1  0.91563430  0.33733150  0.69398394  1  0  -0.357557  0  3.763471  0  0  -0.386045  0  4.024662  0  0  -0.397545  0  4.044449  0  0  -0.132189  -0.378545  0  4.011413  0
C  C60  1  0.21558274  0.06441187  0.16086194  1  0  0.214805  0  3.759696  0  0  0.203219  0  4.029822  0  0  0.214231  0  4.047895  0  0  0.094223  0.195994  0  4.017445  0
C  C61  1  0.28440755  0.56441387  0.33913935  1  0  0.214825  0  3.759701  0  0  0.203304  0  4.029715  0  0  0.214319  0  4.047789  0  0  0.094254  0.196069  0  4.01735  0
C  C62  1  0.78441082  0.93558902  0.83913891  1  0  0.214796  0  3.759571  0  0  0.203208  0  4.029679  0  0  0.214219  0  4.047755  0  0  0.094213  0.195984  0  4.017297  0
C  C63  1  0.71559326  0.43559428  0.66086279  1  0  0.214829  0  3.759754  0  0  0.203291  0  4.029796  0  0  0.214302  0  4.047874  0  0  0.094201  0.196069  0  4.017409  0
C  C64  1  0.10446770  0.89495293  0.16840980  1  0  -0.356162  0  3.728856  0  0  -0.433072  0  3.963389  0  0  -0.436464  0  3.969314  0  0  -0.236478  -0.430456  0  3.959303  0
C  C65  1  0.39552286  0.39495048  0.33159050  1  0  -0.356175  0  3.728734  0  0  -0.433099  0  3.963251  0  0  -0.436493  0  3.96919  0  0  -0.236471  -0.430479  0  3.959158  0
C  C66  1  0.89552829  0.10504676  0.83159066  1  0  -0.356154  0  3.728682  0  0  -0.433052  0  3.963223  0  0  -0.436444  0  3.969148  0  0  -0.236492  -0.430436  0  3.959125  0
C  C67  1  0.60447311  0.60505404  0.66841119  1  0  -0.356089  0  3.729029  0  0  -0.433098  0  3.963558  0  0  -0.436491  0  3.96949  0  0  -0.236442  -0.430479  0  3.95946  0
C  C68  1  0.92429153  0.10630075  0.06890524  1  0  -0.008046  0  3.630818  0  0  -0.068687  0  3.886932  0  0  -0.064624  0  3.897098  0  0  -0.056122  -0.071206  0  3.880185  0
C  C69  1  0.57571810  0.60630045  0.43109268  1  0  -0.008038  0  3.630738  0  0  -0.068554  0  3.886719  0  0  -0.064481  0  3.896847  0  0  -0.056059  -0.071081  0  3.879969  0
C  C70  1  0.07571902  0.89369410  0.93109369  1  0  -0.008079  0  3.630798  0  0  -0.068834  0  3.887129  0  0  -0.064773  0  3.897298  0  0  -0.056181  -0.071357  0  3.880383  0
C  C71  1  0.42429484  0.39370529  0.56890790  1  0  -0.007888  0  3.630632  0  0  -0.068563  0  3.886847  0  0  -0.064465  0  3.896914  0  0  -0.056122  -0.071099  0  3.880108  0
C  C72  1  0.10849161  0.01729077  0.02530776  1  0  -0.133855  0  3.691299  0  0  -0.171526  0  3.936352  0  0  -0.173995  0  3.951618  0  0  -0.176961  -0.16963  0  3.925811  0
C  C73  1  0.39152565  0.51729176  0.47469258  1  0  -0.13376  0  3.691047  0  0  -0.17147  0  3.936225  0  0  -0.173916  0  3.951465  0  0  -0.17691  -0.16959  0  3.925683  0
C  C74  1  0.89152620  0.98270529  0.97469122  1  0  -0.133718  0  3.691175  0  0  -0.171399  0  3.936309  0  0  -0.173862  0  3.95156  0  0  -0.176892  -0.169514  0  3.925765  0
C  C75  1  0.60848970  0.48270671  0.52530884  1  0  -0.133743  0  3.691148  0  0  -0.171505  0  3.936308  0  0  -0.173976  0  3.95161  0  0  -0.176928  -0.169622  0  3.925764  0
Br  Br76  1  0.74501191  0.62715870  0.04622784  1  0  -0.495597  0  1.566283  0  0  -0.414742  0  2.010537  0  0  -0.430973  0  1.963067  0  0  -0.225174  -0.403229  0  2.043517  0
Br  Br77  1  0.75497575  0.12714493  0.45377194  1  0  -0.495652  0  1.566372  0  0  -0.414801  0  2.010644  0  0  -0.431012  0  1.96315  0  0  -0.225176  -0.403301  0  2.043652  0
Br  Br78  1  0.25497922  0.37285429  0.95377341  1  0  -0.495622  0  1.566431  0  0  -0.414775  0  2.010716  0  0  -0.431001  0  1.96324  0  0  -0.22516  -0.40327  0  2.043692  0
Br  Br79  1  0.24502024  0.87285597  0.54622811  1  0  -0.495653  0  1.566337  0  0  -0.414801  0  2.010625  0  0  -0.431015  0  1.963132  0  0  -0.225182  -0.40329  0  2.043609  0
N  N80  1  0.26987741  0.30412100  0.11779071  1  0  -0.295314  0  3.207006  0  0  -0.251373  0  3.523065  0  0  -0.261153  0  3.528134  0  0  -0.287378  -0.245234  0  3.519553  0
N  N81  1  0.23010890  0.80411880  0.38220931  1  0  -0.295335  0  3.207049  0  0  -0.251403  0  3.523084  0  0  -0.261179  0  3.52814  0  0  -0.287453  -0.245265  0  3.519559  0
N  N82  1  0.73013070  0.69587869  0.88220902  1  0  -0.295327  0  3.206971  0  0  -0.251423  0  3.523053  0  0  -0.261204  0  3.528125  0  0  -0.287414  -0.245279  0  3.519506  0
N  N83  1  0.76987982  0.19588573  0.61779068  1  0  -0.295217  0  3.206905  0  0  -0.251296  0  3.522979  0  0  -0.261072  0  3.52804  0  0  -0.287366  -0.245158  0  3.519454  0
N  N84  1  0.13015158  0.15425532  0.11581557  1  0  0.010618  0  3.518298  0  0  0.094726  0  3.731101  0  0  0.082892  0  3.758621  0  0  -0.153848  0.102266  0  3.712726  0
N  N85  1  0.36984055  0.65425409  0.38418475  1  0  0.010525  0  3.518391  0  0  0.094603  0  3.731126  0  0  0.082771  0  3.758665  0  0  -0.15392  0.102146  0  3.712753  0
N  N86  1  0.86985410  0.84574316  0.88418414  1  0  0.010587  0  3.518279  0  0  0.094764  0  3.731078  0  0  0.082933  0  3.758599  0  0  -0.153803  0.102298  0  3.712705  0
N  N87  1  0.63015784  0.34575165  0.61581654  1  0  0.010418  0  3.518409  0  0  0.094546  0  3.731171  0  0  0.082711  0  3.758709  0  0  -0.153837  0.102082  0  3.712797  0
