# generated using pymatgen
data_NaSmH12(CO)12
_symmetry_space_group_name_H-M   'P 1'
_cell_length_a   6.88348367
_cell_length_b   7.56805017
_cell_length_c   15.70260780
_cell_angle_alpha   89.99973715
_cell_angle_beta   102.64338182
_cell_angle_gamma   90.00039570
_symmetry_Int_Tables_number   1
_chemical_formula_structural   NaSmH12(CO)12
_chemical_formula_sum   'Na2 Sm2 H24 C24 O24'
_cell_volume   798.18436689
_cell_formula_units_Z   2
loop_
 _symmetry_equiv_pos_site_id
 _symmetry_equiv_pos_as_xyz
  1  'x, y, z'
loop_
 _atom_site_type_symbol
 _atom_site_label
 _atom_site_symmetry_multiplicity
 _atom_site_fract_x
 _atom_site_fract_y
 _atom_site_fract_z
 _atom_site_occupancy
 _atom_site_hle17_bader_spin_density
 _atom_site_hle17_ddec_charge
 _atom_site_hle17_ddec_spin_density
 _atom_site_hle17_ddec_sum_bond_order
 _atom_site_hle17_magmom
 _atom_site_hse06_10hf_bader_spin_density
 _atom_site_hse06_10hf_ddec_charge
 _atom_site_hse06_10hf_ddec_spin_density
 _atom_site_hse06_10hf_ddec_sum_bond_order
 _atom_site_hse06_10hf_magmom
 _atom_site_hse06_bader_spin_density
 _atom_site_hse06_ddec_charge
 _atom_site_hse06_ddec_spin_density
 _atom_site_hse06_ddec_sum_bond_order
 _atom_site_hse06_magmom
 _atom_site_pbe_bader_spin_density
 _atom_site_pbe_cm5_charge
 _atom_site_pbe_ddec_charge
 _atom_site_pbe_ddec_spin_density
 _atom_site_pbe_ddec_sum_bond_order
 _atom_site_pbe_magmom
Na  Na0  1  0.63936978  0.74993362  0.27801777  1  0  0.927643  0  0.349121  0  0  0.899198  0  0.481627  0  0  0.90787  0  0.461791  0  0  0.68927  0.892592  0  0.496959  0
Na  Na1  1  0.36063244  0.24993531  0.72198370  1  0  0.927639  0  0.349119  0  0  0.899202  0  0.481603  0  0  0.907875  0  0.461771  0  0  0.689272  0.892591  0  0.496955  0
Sm  Sm2  1  0.80508386  0.24999404  0.61047093  1  0  2.233745  0  1.740937  0  0  2.075898  0  2.22755  0  0  2.183371  0  2.063215  0  0  1.534928  2.041971  0  2.262162  0
Sm  Sm3  1  0.19491242  0.74999249  0.38952741  1  0  2.233777  0  1.740968  0  0  2.076096  0  2.227298  0  0  2.183403  0  2.063235  0  0  1.534951  2.042083  0  2.26207  0
H  H4  1  0.36248479  0.74130522  0.09906568  1  0  0.105562  0  0.951617  0  0  0.11564  0  1.012787  0  0  0.11917  0  1.010261  0  0  0.112686  0.113128  0  1.014569  0
H  H5  1  0.63751590  0.24130960  0.90093184  1  0  0.105565  0  0.951605  0  0  0.115659  0  1.012774  0  0  0.119191  0  1.010243  0  0  0.112686  0.113148  0  1.01456  0
H  H6  1  0.73779686  0.75875606  0.09924016  1  0  0.107033  0  0.95257  0  0  0.117095  0  1.013632  0  0  0.120586  0  1.011176  0  0  0.113287  0.114556  0  1.015458  0
H  H7  1  0.26220692  0.25875149  0.90075889  1  0  0.107102  0  0.952415  0  0  0.117099  0  1.013543  0  0  0.120582  0  1.011099  0  0  0.113305  0.114564  0  1.015367  0
H  H8  1  0.28115765  0.73705160  0.93629661  1  0  0.090309  0  0.963776  0  0  0.100562  0  1.025488  0  0  0.103948  0  1.023204  0  0  0.103599  0.098013  0  1.027407  0
H  H9  1  0.71884449  0.23705773  0.06370297  1  0  0.090299  0  0.963804  0  0  0.100553  0  1.025508  0  0  0.103938  0  1.023226  0  0  0.103588  0.098009  0  1.027429  0
H  H10  1  0.65618388  0.76306211  0.93644590  1  0  0.092006  0  0.96392  0  0  0.101582  0  1.026128  0  0  0.104944  0  1.023888  0  0  0.104652  0.099067  0  1.027981  0
H  H11  1  0.34381993  0.26306193  0.06355442  1  0  0.091993  0  0.963937  0  0  0.101578  0  1.026145  0  0  0.104941  0  1.023902  0  0  0.104654  0.099065  0  1.028  0
H  H12  1  0.56838154  0.73086103  0.57920686  1  0  0.100103  0  0.92398  0  0  0.107487  0  0.982988  0  0  0.110713  0  0.980263  0  0  0.131375  0.10512  0  0.985105  0
H  H13  1  0.43162054  0.23086466  0.42079591  1  0  0.100079  0  0.924004  0  0  0.107466  0  0.983002  0  0  0.1107  0  0.980269  0  0  0.131358  0.105095  0  0.985134  0
H  H14  1  0.01063763  0.76910956  0.57913893  1  0  0.09948  0  0.923844  0  0  0.10613  0  0.983988  0  0  0.10932  0  0.981165  0  0  0.131519  0.103856  0  0.986083  0
H  H15  1  0.98936028  0.26910478  0.42085826  1  0  0.099469  0  0.92377  0  0  0.106115  0  0.983911  0  0  0.109304  0  0.981092  0  0  0.131518  0.10384  0  0.986008  0
H  H16  1  0.73916826  0.87715629  0.69761254  1  0  0.399433  0  0.896264  0  0  0.369475  0  0.972382  0  0  0.381671  0  0.958696  0  0  0.305053  0.360968  0  0.981649  0
H  H17  1  0.26083037  0.37715731  0.30238702  1  0  0.399467  0  0.896202  0  0  0.369517  0  0.972307  0  0  0.381713  0  0.958634  0  0  0.305059  0.361016  0  0.981556  0
H  H18  1  0.95842006  0.62282594  0.69754413  1  0  0.400328  0  0.894263  0  0  0.370716  0  0.969583  0  0  0.38289  0  0.956468  0  0  0.305652  0.362234  0  0.978791  0
H  H19  1  0.04158428  0.12282427  0.30245528  1  0  0.400268  0  0.894338  0  0  0.370679  0  0.969645  0  0  0.382848  0  0.956539  0  0  0.305643  0.362198  0  0.978849  0
H  H20  1  0.48372976  0.41225604  0.19820387  1  0  0.417666  0  0.885243  0  0  0.387022  0  0.949488  0  0  0.397061  0  0.93447  0  0  0.288745  0.379887  0  0.960144  0
H  H21  1  0.51626910  0.91225793  0.80179627  1  0  0.417664  0  0.885248  0  0  0.387025  0  0.949485  0  0  0.397063  0  0.934468  0  0  0.288756  0.379889  0  0.960145  0
H  H22  1  0.71480887  0.08776896  0.19824756  1  0  0.417615  0  0.885219  0  0  0.386881  0  0.949664  0  0  0.396925  0  0.934644  0  0  0.288778  0.379741  0  0.960324  0
H  H23  1  0.28519075  0.58776808  0.80175402  1  0  0.417606  0  0.885231  0  0  0.386868  0  0.949677  0  0  0.39691  0  0.934661  0  0  0.288771  0.379728  0  0.960336  0
H  H24  1  0.71658381  0.40140981  0.20897757  1  0  0.417671  0  0.871434  0  0  0.391118  0  0.928397  0  0  0.399971  0  0.915206  0  0  0.297184  0.384827  0  0.937765  0
H  H25  1  0.28341647  0.90141034  0.79102210  1  0  0.417712  0  0.871376  0  0  0.391153  0  0.928347  0  0  0.400007  0  0.915155  0  0  0.297196  0.384868  0  0.937706  0
H  H26  1  0.49260858  0.09819627  0.20890610  1  0  0.417813  0  0.869863  0  0  0.391673  0  0.926966  0  0  0.400494  0  0.913821  0  0  0.298396  0.385412  0  0.936287  0
H  H27  1  0.50739259  0.59819556  0.79109688  1  0  0.417826  0  0.869879  0  0  0.39169  0  0.926949  0  0  0.400511  0  0.913803  0  0  0.298408  0.38543  0  0.936269  0
C  C28  1  0.20837506  0.74473115  0.06282336  1  0  -0.054084  0  3.698406  0  0  -0.077079  0  3.943637  0  0  -0.077663  0  3.96397  0  0  -0.072242  -0.076438  0  3.929475  0
C  C29  1  0.79163012  0.24473219  0.93717586  1  0  -0.054019  0  3.698382  0  0  -0.07703  0  3.943608  0  0  -0.077616  0  3.963942  0  0  -0.072233  -0.076393  0  3.929454  0
C  C30  1  0.85557837  0.75536868  0.06291047  1  0  -0.055161  0  3.701121  0  0  -0.078242  0  3.946247  0  0  -0.078818  0  3.966571  0  0  -0.072456  -0.077572  0  3.932061  0
C  C31  1  0.14442538  0.25536435  0.93708923  1  0  -0.055208  0  3.701015  0  0  -0.078218  0  3.94613  0  0  -0.078793  0  3.966459  0  0  -0.072462  -0.077549  0  3.931947  0
C  C32  1  0.63672060  0.91281740  0.48496310  1  0  0.704785  0  3.835779  0  0  0.653418  0  4.14094  0  0  0.687146  0  4.135951  0  0  0.236535  0.630121  0  4.147623  0
C  C33  1  0.36326634  0.41282765  0.51503843  1  0  0.704767  0  3.835862  0  0  0.653359  0  4.141067  0  0  0.687083  0  4.136085  0  0  0.236541  0.63007  0  4.147741  0
C  C34  1  0.84816603  0.58714369  0.48491432  1  0  0.703986  0  3.838136  0  0  0.655153  0  4.139389  0  0  0.688755  0  4.134408  0  0  0.237499  0.631952  0  4.146077  0
C  C35  1  0.15181271  0.08716715  0.51509097  1  0  0.704036  0  3.837818  0  0  0.655176  0  4.139068  0  0  0.688813  0  4.134033  0  0  0.237537  0.63195  0  4.145782  0
C  C36  1  0.69557499  0.81208846  0.57086354  1  0  0.054647  0  3.607833  0  0  0.029707  0  3.858076  0  0  0.030495  0  3.866087  0  0  0.005209  0.029048  0  3.854119  0
C  C37  1  0.30442319  0.31208461  0.42913739  1  0  0.054782  0  3.607707  0  0  0.029826  0  3.857983  0  0  0.030612  0  3.865993  0  0  0.005257  0.029154  0  3.854044  0
C  C38  1  0.87514596  0.68786813  0.57082722  1  0  0.06098  0  3.603667  0  0  0.03472  0  3.854832  0  0  0.036072  0  3.862148  0  0  0.004997  0.033625  0  3.851363  0
C  C39  1  0.12485586  0.18786579  0.42917053  1  0  0.060966  0  3.603723  0  0  0.034765  0  3.854826  0  0  0.036102  0  3.862138  0  0  0.005017  0.033678  0  3.851357  0
C  C40  1  0.96348004  0.75007299  0.92606464  1  0  -0.066116  0  3.75534  0  0  -0.050489  0  3.999208  0  0  -0.057304  0  4.023322  0  0  -0.014213  -0.045974  0  3.982797  0
C  C41  1  0.03652517  0.25007343  0.07393520  1  0  -0.065937  0  3.755099  0  0  -0.050369  0  3.999082  0  0  -0.057184  0  4.023195  0  0  -0.014165  -0.045843  0  3.982664  0
C  C42  1  0.16258349  0.74293500  0.97214118  1  0  -0.063208  0  3.7254  0  0  -0.084348  0  3.972417  0  0  -0.086264  0  3.99415  0  0  -0.076575  -0.082925  0  3.957674  0
C  C43  1  0.83742166  0.24293957  0.02785931  1  0  -0.063337  0  3.72548  0  0  -0.084444  0  3.972525  0  0  -0.086363  0  3.994263  0  0  -0.076588  -0.083034  0  3.957792  0
C  C44  1  0.81055994  0.75719698  0.97223388  1  0  -0.065405  0  3.726246  0  0  -0.085941  0  3.973437  0  0  -0.087834  0  3.995135  0  0  -0.077676  -0.084543  0  3.958713  0
C  C45  1  0.18944532  0.25719617  0.02776532  1  0  -0.065486  0  3.72618  0  0  -0.086014  0  3.97338  0  0  -0.087906  0  3.995075  0  0  -0.077721  -0.084623  0  3.958661  0
C  C46  1  0.91450760  0.75011689  0.82854297  1  0  0.668871  0  3.836496  0  0  0.613261  0  4.135472  0  0  0.647063  0  4.127456  0  0  0.23172  0.590456  0  4.139753  0
C  C47  1  0.08549464  0.25011937  0.17145595  1  0  0.668849  0  3.836374  0  0  0.613215  0  4.135446  0  0  0.647023  0  4.127429  0  0  0.231661  0.590409  0  4.139723  0
C  C48  1  0.05485100  0.75004622  0.10859075  1  0  -0.054693  0  3.73691  0  0  -0.034481  0  3.970215  0  0  -0.041643  0  3.992609  0  0  -0.009216  -0.0295  0  3.954477  0
C  C49  1  0.94515570  0.25004469  0.89140861  1  0  -0.05466  0  3.736895  0  0  -0.034451  0  3.970193  0  0  -0.041604  0  3.992576  0  0  -0.009173  -0.029471  0  3.954458  0
C  C50  1  0.10326667  0.75000364  0.20554065  1  0  0.672043  0  3.888757  0  0  0.630548  0  4.17237  0  0  0.663165  0  4.170982  0  0  0.205924  0.607728  0  4.176998  0
C  C51  1  0.89674152  0.25000007  0.79445757  1  0  0.672071  0  3.888757  0  0  0.630583  0  4.172346  0  0  0.663198  0  4.170968  0  0  0.205933  0.607765  0  4.176982  0
O  O52  1  0.69712047  0.06987393  0.48293760  1  0  -0.666482  0  2.019843  0  0  -0.613938  0  2.268425  0  0  -0.644831  0  2.255391  0  0  -0.367483  -0.597262  0  2.275648  0
O  O53  1  0.30285670  0.56986790  0.51706121  1  0  -0.666438  0  2.020099  0  0  -0.613857  0  2.268639  0  0  -0.644723  0  2.25561  0  0  -0.367453  -0.597177  0  2.275863  0
O  O54  1  0.78567414  0.43012023  0.48288319  1  0  -0.666928  0  2.020939  0  0  -0.614892  0  2.268384  0  0  -0.645771  0  2.255374  0  0  -0.366994  -0.598229  0  2.275573  0
O  O55  1  0.21432039  0.93009383  0.51711458  1  0  -0.667291  0  2.019834  0  0  -0.615251  0  2.267259  0  0  -0.646138  0  2.254254  0  0  -0.367223  -0.598561  0  2.274462  0
O  O56  1  0.74396942  0.93804015  0.64001132  1  0  -0.663809  0  2.177199  0  0  -0.612313  0  2.427963  0  0  -0.636574  0  2.411456  0  0  -0.450109  -0.600644  0  2.437609  0
O  O57  1  0.25603409  0.43804325  0.35998921  1  0  -0.663859  0  2.177135  0  0  -0.612394  0  2.42788  0  0  -0.636635  0  2.411393  0  0  -0.450107  -0.600713  0  2.437519  0
O  O58  1  0.89589521  0.56193451  0.63997352  1  0  -0.666267  0  2.174529  0  0  -0.614778  0  2.425732  0  0  -0.639163  0  2.409448  0  0  -0.450418  -0.603024  0  2.435549  0
O  O59  1  0.10410575  0.06193269  0.36002379  1  0  -0.66626  0  2.174604  0  0  -0.614794  0  2.425692  0  0  -0.639152  0  2.409421  0  0  -0.450444  -0.603031  0  2.43551  0
O  O60  1  0.73639442  0.78676269  0.78799180  1  0  -0.642899  0  2.004729  0  0  -0.572692  0  2.216622  0  0  -0.598488  0  2.205518  0  0  -0.300939  -0.554492  0  2.223375  0
O  O61  1  0.26360657  0.28676590  0.21200756  1  0  -0.642959  0  2.004714  0  0  -0.572706  0  2.216597  0  0  -0.598506  0  2.205494  0  0  -0.300921  -0.554507  0  2.223345  0
O  O62  1  0.05186262  0.71346162  0.78780540  1  0  -0.643406  0  2.005547  0  0  -0.57271  0  2.217029  0  0  -0.598565  0  2.206047  0  0  -0.300956  -0.554499  0  2.223778  0
O  O63  1  0.94813787  0.21346250  0.21219407  1  0  -0.643357  0  2.00551  0  0  -0.572709  0  2.217039  0  0  -0.598555  0  2.206035  0  0  -0.300952  -0.554498  0  2.223788  0
O  O64  1  0.60445995  0.48361165  0.20068575  1  0  -0.872506  0  1.751299  0  0  -0.836269  0  1.907467  0  0  -0.850402  0  1.87655  0  0  -0.655165  -0.826042  0  1.929199  0
O  O65  1  0.39554239  0.98361280  0.79931393  1  0  -0.872534  0  1.751263  0  0  -0.836303  0  1.907435  0  0  -0.850433  0  1.876517  0  0  -0.655173  -0.826074  0  1.929165  0
O  O66  1  0.59666735  0.01619268  0.20066513  1  0  -0.872713  0  1.749791  0  0  -0.836696  0  1.906716  0  0  -0.850751  0  1.875734  0  0  -0.656467  -0.826514  0  1.928491  0
O  O67  1  0.40333474  0.51619256  0.79934004  1  0  -0.872708  0  1.749808  0  0  -0.836705  0  1.906737  0  0  -0.850757  0  1.875757  0  0  -0.656481  -0.82652  0  1.928507  0
O  O68  1  0.53087704  0.83288133  0.41946919  1  0  -0.77493  0  2.066561  0  0  -0.729802  0  2.342074  0  0  -0.761912  0  2.324437  0  0  -0.439116  -0.713439  0  2.35239  0
O  O69  1  0.46911531  0.33288370  0.58053431  1  0  -0.775033  0  2.066469  0  0  -0.729868  0  2.342004  0  0  -0.762003  0  2.324358  0  0  -0.439147  -0.713518  0  2.352314  0
O  O70  1  0.88875283  0.66703392  0.41942963  1  0  -0.776545  0  2.068758  0  0  -0.732151  0  2.342881  0  0  -0.764299  0  2.325317  0  0  -0.440603  -0.71573  0  2.35306  0
O  O71  1  0.11124292  0.16702216  0.58056312  1  0  -0.776282  0  2.069518  0  0  -0.731826  0  2.343583  0  0  -0.764021  0  2.326049  0  0  -0.440411  -0.715416  0  2.353766  0
O  O72  1  0.28530293  0.75317788  0.24751873  1  0  -0.741391  0  1.981523  0  0  -0.693404  0  2.229031  0  0  -0.723798  0  2.218117  0  0  -0.437231  -0.676897  0  2.236248  0
O  O73  1  0.71470230  0.25317753  0.75248175  1  0  -0.74148  0  1.98153  0  0  -0.693479  0  2.229044  0  0  -0.723891  0  2.218124  0  0  -0.437256  -0.676984  0  2.236266  0
O  O74  1  0.96302042  0.74683491  0.24747840  1  0  -0.745135  0  1.982436  0  0  -0.697149  0  2.229958  0  0  -0.727552  0  2.219022  0  0  -0.439183  -0.680619  0  2.237146  0
O  O75  1  0.03697881  0.24682767  0.75252088  1  0  -0.74513  0  1.982581  0  0  -0.697118  0  2.230088  0  0  -0.727534  0  2.219148  0  0  -0.439169  -0.680594  0  2.237265  0
