# generated using pymatgen
data_CdH15C24N3O4F3
_symmetry_space_group_name_H-M   'P 1'
_cell_length_a   11.71174944
_cell_length_b   11.82566783
_cell_length_c   19.86690802
_cell_angle_alpha   102.48081610
_cell_angle_beta   90.00004105
_cell_angle_gamma   119.68187239
_symmetry_Int_Tables_number   1
_chemical_formula_structural   CdH15C24N3O4F3
_chemical_formula_sum   'Cd4 H60 C96 N12 O16 F12'
_cell_volume   2315.37524035
_cell_formula_units_Z   4
loop_
 _symmetry_equiv_pos_site_id
 _symmetry_equiv_pos_as_xyz
  1  'x, y, z'
loop_
 _atom_site_type_symbol
 _atom_site_label
 _atom_site_symmetry_multiplicity
 _atom_site_fract_x
 _atom_site_fract_y
 _atom_site_fract_z
 _atom_site_occupancy
 _atom_site_pbe_bader_charge
 _atom_site_pbe_bader_spin_density
 _atom_site_pbe_cm5_charge
 _atom_site_pbe_ddec_charge
 _atom_site_pbe_ddec_spin_density
 _atom_site_pbe_ddec_sum_bond_order
 _atom_site_pbe_magmom
Cd  Cd0  1  0.39260767  0.49549404  0.81924634  1  1.245071  0  0.76174  0.800585  0  2.151975  0
Cd  Cd1  1  0.89711044  0.50450394  0.68075441  1  1.246159  0  0.761731  0.800562  0  2.151959  0
Cd  Cd2  1  0.60739622  0.50450449  0.18075420  1  1.245146  0  0.761731  0.800582  0  2.151951  0
Cd  Cd3  1  0.10288667  0.49548956  0.31924598  1  1.246181  0  0.761701  0.800496  0  2.152054  0
H  H4  1  0.18719135  0.19527571  0.82412388  1  0.137244  0  0.120915  0.099245  0  0.990774  0
H  H5  1  0.99190954  0.80472037  0.67587458  1  0.140633  0  0.120922  0.099237  0  0.990752  0
H  H6  1  0.81281103  0.80471981  0.17587576  1  0.137168  0  0.120926  0.099249  0  0.990713  0
H  H7  1  0.00808738  0.19527617  0.32412419  1  0.14086  0  0.120918  0.099273  0  0.990684  0
H  H8  1  0.16431932  0.97498830  0.82773431  1  0.102254  0  0.111029  0.125519  0  1.00188  0
H  H9  1  0.18932869  0.02501337  0.67226823  1  0.095478  0  0.110984  0.125377  0  1.001999  0
H  H10  1  0.83568677  0.02501122  0.17226737  1  0.102001  0  0.11097  0.125375  0  1.002002  0
H  H11  1  0.81066957  0.97498416  0.32773218  1  0.095479  0  0.110997  0.125406  0  1.001918  0
H  H12  1  0.58796734  0.19008222  0.89009743  1  0.074878  0  0.108354  0.121104  0  1.006565  0
H  H13  1  0.39788417  0.80992099  0.60990595  1  0.072543  0  0.108365  0.121124  0  1.006549  0
H  H14  1  0.41203956  0.80992233  0.10990491  1  0.074463  0  0.108375  0.121137  0  1.006553  0
H  H15  1  0.60211560  0.19007955  0.39009485  1  0.072529  0  0.108373  0.121145  0  1.006606  0
H  H16  1  0.59074916  0.39934515  0.88448758  1  0.095146  0  0.116648  0.084306  0  1.020207  0
H  H17  1  0.19140514  0.60065622  0.61551300  1  0.08359  0  0.116649  0.084296  0  1.020136  0
H  H18  1  0.40925076  0.60065739  0.11551399  1  0.095204  0  0.116631  0.084278  0  1.020121  0
H  H19  1  0.80859549  0.39934433  0.38448680  1  0.083654  0  0.116644  0.08429  0  1.020058  0
H  H20  1  0.20692137  0.81593038  0.77144944  1  0.114866  0  0.103763  0.109037  0  1.058043  0
H  H21  1  0.39098977  0.18407616  0.72855128  1  0.115527  0  0.103777  0.109084  0  1.058092  0
H  H22  1  0.79308705  0.18407719  0.22855179  1  0.114682  0  0.103795  0.109105  0  1.058058  0
H  H23  1  0.60900779  0.81592338  0.27144889  1  0.115533  0  0.103785  0.109116  0  1.058106  0
H  H24  1  0.22521323  0.61106812  0.75703929  1  0.145418  0  0.115995  0.095797  0  1.029438  0
H  H25  1  0.61414269  0.38894027  0.74296021  1  0.141506  0  0.115942  0.095732  0  1.029472  0
H  H26  1  0.77479725  0.38893847  0.24296029  1  0.145205  0  0.11595  0.095753  0  1.029477  0
H  H27  1  0.38585573  0.61105927  0.25703946  1  0.1415  0  0.115931  0.095703  0  1.029483  0
H  H28  1  0.53258713  0.79874337  0.91774001  1  0.137077  0  0.109309  0.08949  0  1.040352  0
H  H29  1  0.73384630  0.20125558  0.58226590  1  0.140596  0  0.109328  0.089456  0  1.040369  0
H  H30  1  0.46741433  0.20125713  0.08226432  1  0.137137  0  0.109333  0.089489  0  1.040432  0
H  H31  1  0.26615062  0.79874095  0.41773338  1  0.140592  0  0.109333  0.089424  0  1.040406  0
H  H32  1  0.53346592  0.01519028  0.93660615  1  0.091759  0  0.099366  0.105198  0  1.04431  0
H  H33  1  0.51827770  0.98480981  0.56340136  1  0.083667  0  0.099365  0.105199  0  1.044395  0
H  H34  1  0.46653740  0.98481222  0.06339894  1  0.091909  0  0.099356  0.105173  0  1.044435  0
H  H35  1  0.48171902  0.01518973  0.43659881  1  0.083642  0  0.099362  0.105183  0  1.044399  0
H  H36  1  0.34949587  0.51623459  0.97750447  1  0.129366  0  0.117358  0.097368  0  0.996578  0
H  H37  1  0.83326519  0.48376952  0.52249504  1  0.127805  0  0.117318  0.097343  0  0.996455  0
H  H38  1  0.65050206  0.48376398  0.02249205  1  0.129306  0  0.11731  0.097323  0  0.996505  0
H  H39  1  0.16673630  0.51623104  0.47750375  1  0.127815  0  0.117332  0.097329  0  0.996486  0
H  H40  1  0.20098393  0.54848108  0.05918586  1  0.053087  0  0.106375  0.110759  0  1.030389  0
H  H41  1  0.65250544  0.45152293  0.44081315  1  0.075177  0  0.106367  0.110777  0  1.030447  0
H  H42  1  0.79901707  0.45151849  0.94081080  1  0.052739  0  0.106384  0.110761  0  1.030532  0
H  H43  1  0.34749469  0.54847662  0.55918602  1  0.0752  0  0.106379  0.110785  0  1.030422  0
H  H44  1  0.91888899  0.42361329  0.87868626  1  0.112113  0  0.106364  0.126029  0  1.035778  0
H  H45  1  0.49527249  0.57638462  0.62131198  1  0.11548  0  0.106322  0.125938  0  1.035621  0
H  H46  1  0.08110794  0.57638327  0.12131049  1  0.112199  0  0.106344  0.125991  0  1.035723  0
H  H47  1  0.50472628  0.42361391  0.37868805  1  0.115448  0  0.106352  0.126008  0  1.035653  0
H  H48  1  0.07627821  0.39251880  0.80623637  1  0.127749  0  0.119901  0.10398  0  0.993282  0
H  H49  1  0.68375800  0.60748061  0.69376193  1  0.129012  0  0.119903  0.103955  0  0.993329  0
H  H50  1  0.92371838  0.60747878  0.19375951  1  0.127844  0  0.119859  0.103835  0  0.993408  0
H  H51  1  0.31624298  0.39251894  0.30623723  1  0.128991  0  0.119889  0.103902  0  0.99336  0
H  H52  1  0.33951226  0.23398648  0.59617280  1  0.099812  0  0.10151  0.106712  0  1.018881  0
H  H53  1  0.10552834  0.76602322  0.90382578  1  0.103994  0  0.101475  0.106655  0  1.018999  0
H  H54  1  0.66048803  0.76601510  0.40382512  1  0.099914  0  0.101501  0.106717  0  1.018868  0
H  H55  1  0.89447045  0.23397535  0.09617124  1  0.10329  0  0.101484  0.106693  0  1.019024  0
H  H56  1  0.05185139  0.09544029  0.41803083  1  0.106753  0  0.103214  0.108672  0  1.010714  0
H  H57  1  0.95640751  0.90455553  0.08197015  1  0.098214  0  0.103239  0.108654  0  1.010705  0
H  H58  1  0.94814885  0.90456630  0.58196826  1  0.106624  0  0.103207  0.10865  0  1.010742  0
H  H59  1  0.04359197  0.09544101  0.91802812  1  0.09817  0  0.103221  0.108628  0  1.010685  0
H  H60  1  0.95056449  0.21908036  0.48663979  1  0.109669  0  0.100749  0.106668  0  1.032409  0
H  H61  1  0.73148265  0.78091700  0.01335952  1  0.117023  0  0.10073  0.106714  0  1.032382  0
H  H62  1  0.04943508  0.78092319  0.51336192  1  0.109368  0  0.100752  0.106678  0  1.032403  0
H  H63  1  0.26851814  0.21908555  0.98664054  1  0.117083  0  0.100735  0.106732  0  1.032387  0
C  C64  1  0.27274013  0.18902145  0.83961696  1  0.447819  0  0.047824  0.09404  0  3.961338  0
C  C65  1  0.08371925  0.81098124  0.66038370  1  0.441878  0  0.04788  0.09416  0  3.961352  0
C  C66  1  0.72726340  0.81097807  0.16038421  1  0.447793  0  0.04787  0.09413  0  3.96109  0
C  C67  1  0.91627887  0.18901427  0.33961645  1  0.441584  0  0.047882  0.094117  0  3.961176  0
C  C68  1  0.26119699  0.06670343  0.84102859  1  -0.035688  0  -0.080425  -0.176657  0  3.922549  0
C  C69  1  0.19449009  0.93329413  0.65897443  1  -0.030663  0  -0.08043  -0.176577  0  3.922725  0
C  C70  1  0.73880504  0.93329307  0.15897319  1  -0.035637  0  -0.08037  -0.176475  0  3.922643  0
C  C71  1  0.80550812  0.06670841  0.34102714  1  -0.030375  0  -0.080423  -0.176521  0  3.922864  0
C  C72  1  0.37551012  0.06330628  0.85843783  1  -0.02034  0  0.013444  0.111265  0  3.973113  0
C  C73  1  0.31220344  0.93669915  0.64156628  1  -0.057068  0  0.01344  0.111256  0  3.973157  0
C  C74  1  0.62449898  0.93669926  0.14156565  1  -0.020326  0  0.013438  0.111209  0  3.973276  0
C  C75  1  0.68779637  0.06329635  0.35843436  1  -0.057076  0  0.013406  0.111165  0  3.97314  0
C  C76  1  0.49562211  0.18613336  0.87666527  1  0.001025  0  -0.07873  -0.168259  0  3.913843  0
C  C77  1  0.30948639  0.81386697  0.62333719  1  0.056782  0  -0.078747  -0.168308  0  3.913861  0
C  C78  1  0.50438192  0.81386716  0.12333705  1  0.00174  0  -0.078762  -0.168324  0  3.913915  0
C  C79  1  0.69051368  0.18613757  0.37666514  1  0.056951  0  -0.078726  -0.168277  0  3.913732  0
C  C80  1  0.49788867  0.30355628  0.87359187  1  0.493079  0  0.051322  0.103192  0  3.96202  0
C  C81  1  0.19433306  0.69644717  0.62640897  1  0.497236  0  0.051353  0.103265  0  3.962029  0
C  C82  1  0.50211567  0.69644827  0.12641047  1  0.492883  0  0.051354  0.10329  0  3.962075  0
C  C83  1  0.80566848  0.30354835  0.37359067  1  0.497076  0  0.051427  0.103391  0  3.962259  0
C  C84  1  0.37250167  0.93563974  0.85381536  1  -0.029801  0  0.008832  0.100247  0  3.984592  0
C  C85  1  0.43685963  0.06436359  0.64618800  1  -0.034532  0  0.00873  0.100193  0  3.984875  0
C  C86  1  0.62750508  0.06436279  0.14618722  1  -0.029942  0  0.008759  0.100188  0  3.9848  0
C  C87  1  0.56313844  0.93563695  0.35381230  1  -0.034543  0  0.008768  0.1002  0  3.984886  0
C  C88  1  0.28208248  0.81782897  0.80461180  1  -0.025499  0  -0.085262  -0.173795  0  3.935813  0
C  C89  1  0.46425219  0.18217745  0.69539045  1  -0.009498  0  -0.085239  -0.173865  0  3.936029  0
C  C90  1  0.71792663  0.18217658  0.19539068  1  -0.025332  0  -0.085303  -0.173954  0  3.935946  0
C  C91  1  0.53574623  0.81782210  0.30460922  1  -0.009451  0  -0.085249  -0.173933  0  3.935987  0
C  C92  1  0.29097391  0.70272329  0.79666650  1  0.451129  0  0.046334  0.09766  0  3.927888  0
C  C93  1  0.58824935  0.29728103  0.70333449  1  0.439813  0  0.046467  0.097836  0  3.927991  0
C  C94  1  0.70903300  0.29728128  0.20333383  1  0.451928  0  0.046491  0.097859  0  3.927967  0
C  C95  1  0.41174807  0.70271651  0.29666492  1  0.439835  0  0.046478  0.097888  0  3.927849  0
C  C96  1  0.46417061  0.80882264  0.88576934  1  0.46708  0  0.040904  0.092459  0  3.946621  0
C  C97  1  0.65534867  0.19117943  0.61423593  1  0.454003  0  0.040767  0.092396  0  3.946719  0
C  C98  1  0.53583256  0.19117786  0.11423398  1  0.467136  0  0.040809  0.092306  0  3.946772  0
C  C99  1  0.34465161  0.80882213  0.38576350  1  0.453971  0  0.040768  0.09236  0  3.946923  0
C  C100  1  0.46357885  0.92857724  0.89594755  1  -0.002595  0  -0.089274  -0.178685  0  3.955517  0
C  C101  1  0.53500246  0.07142393  0.60405708  1  0.005122  0  -0.089223  -0.178652  0  3.955655  0
C  C102  1  0.53642533  0.07142527  0.10405654  1  -0.002562  0  -0.089275  -0.178606  0  3.95574  0
C  C103  1  0.46499496  0.92857360  0.39594232  1  0.005103  0  -0.089231  -0.178571  0  3.955749  0
C  C104  1  0.25189800  0.49547911  0.95845860  1  0.474803  0  0.042101  0.088208  0  3.959107  0
C  C105  1  0.75641936  0.50452312  0.54154113  1  0.478504  0  0.04209  0.088154  0  3.959114  0
C  C106  1  0.74810029  0.50451846  0.04153829  1  0.474702  0  0.04219  0.088248  0  3.958946  0
C  C107  1  0.24358163  0.49547643  0.45845854  1  0.478415  0  0.042074  0.088191  0  3.959139  0
C  C108  1  0.16884775  0.51455788  0.00351241  1  0.07232  0  -0.082477  -0.165973  0  3.944467  0
C  C109  1  0.65429538  0.48544315  0.49648569  1  0.031212  0  -0.082493  -0.165953  0  3.94417  0
C  C110  1  0.83114918  0.48543870  0.99648284  1  0.072681  0  -0.082532  -0.165974  0  3.944391  0
C  C111  1  0.34570475  0.51455640  0.50351347  1  0.031182  0  -0.082489  -0.165953  0  3.944181  0
C  C112  1  0.04507443  0.48919212  0.97686881  1  -0.082399  0  0.008532  0.098569  0  3.967921  0
C  C113  1  0.55587749  0.51080638  0.52313085  1  -0.048997  0  0.008582  0.098593  0  3.967752  0
C  C114  1  0.95492470  0.51080544  0.02312858  1  -0.119332  0  0.008556  0.09859  0  3.967837  0
C  C115  1  0.44412314  0.48919417  0.47686895  1  -0.085135  0  0.008593  0.098658  0  3.967633  0
C  C116  1  0.01114388  0.44298467  0.90438896  1  0.017832  0  -0.082945  -0.166228  0  3.919066  0
C  C117  1  0.56816178  0.55701287  0.59560805  1  -0.009649  0  -0.082917  -0.166146  0  3.919212  0
C  C118  1  0.98885491  0.55701390  0.09560756  1  0.017974  0  -0.082937  -0.166215  0  3.918946  0
C  C119  1  0.43183871  0.44298568  0.40439048  1  -0.009692  0  -0.082964  -0.166286  0  3.919204  0
C  C120  1  0.09971776  0.42621443  0.86278492  1  0.464983  0  0.045458  0.091944  0  3.936497  0
C  C121  1  0.67349836  0.57378495  0.63721490  1  0.473156  0  0.045509  0.092034  0  3.936406  0
C  C122  1  0.90028102  0.57378412  0.13721311  1  0.464876  0  0.045604  0.092209  0  3.936266  0
C  C123  1  0.32650262  0.42621460  0.36278477  1  0.473152  0  0.045547  0.092193  0  3.936457  0
C  C124  1  0.25865907  0.37063651  0.68432405  1  1.588777  0  0.192073  0.573305  0  4.25756  0
C  C125  1  0.88802673  0.62937368  0.81567425  1  1.588149  0  0.191957  0.573325  0  4.257491  0
C  C126  1  0.74134342  0.62936605  0.31567552  1  1.588785  0  0.192041  0.57335  0  4.257553  0
C  C127  1  0.11196680  0.37061780  0.18432687  1  1.58831  0  0.191857  0.573126  0  4.257704  0
C  C128  1  0.19453748  0.29589369  0.61078970  1  -0.001707  0  0.002013  -0.006067  0  3.906362  0
C  C129  1  0.89864435  0.70411050  0.88920930  1  0.012883  0  0.002031  -0.006032  0  3.906383  0
C  C130  1  0.80546144  0.70410686  0.38921060  1  -0.001535  0  0.002021  -0.006127  0  3.906452  0
C  C131  1  0.10135457  0.29589005  0.11079050  1  0.012755  0  0.002004  -0.006095  0  3.906426  0
C  C132  1  0.25321040  0.22942942  0.57195773  1  -0.005487  0  -0.08677  -0.122044  0  3.946855  0
C  C133  1  0.02378618  0.77058037  0.92804335  1  -0.008243  0  -0.086749  -0.121915  0  3.946946  0
C  C134  1  0.74679004  0.77057416  0.42804096  1  -0.005659  0  -0.08674  -0.121946  0  3.946901  0
C  C135  1  0.97621189  0.22942019  0.07195545  1  -0.007359  0  -0.086749  -0.122017  0  3.946931  0
C  C136  1  0.20246161  0.15837331  0.50290808  1  -0.085765  0  -0.031804  -0.102424  0  4.064749  0
C  C137  1  0.04408683  0.84162949  0.99709056  1  -0.113022  0  -0.031762  -0.102485  0  4.064943  0
C  C138  1  0.79753918  0.84162926  0.49709048  1  -0.085736  0  -0.03179  -0.102546  0  4.064795  0
C  C139  1  0.95591317  0.15836808  0.00290633  1  -0.113129  0  -0.03175  -0.102342  0  4.0648  0
C  C140  1  0.09218773  0.15228373  0.47157978  1  -0.034163  0  -0.091855  -0.100454  0  4.000351  0
C  C141  1  0.93990646  0.84772113  0.02842189  1  -0.006009  0  -0.091882  -0.10036  0  4.000145  0
C  C142  1  0.90781422  0.84772287  0.52841931  1  -0.034037  0  -0.091811  -0.100371  0  4.000457  0
C  C143  1  0.06009316  0.15227740  0.97157815  1  -0.005997  0  -0.091852  -0.100334  0  4.000129  0
C  C144  1  0.03518336  0.21998293  0.50988965  1  -0.05663  0  -0.083845  -0.087087  0  3.98246  0
C  C145  1  0.81519477  0.78001339  0.99010877  1  -0.06324  0  -0.083847  -0.087207  0  3.982405  0
C  C146  1  0.96481742  0.78001962  0.49011092  1  -0.056247  0  -0.083849  -0.08711  0  3.982372  0
C  C147  1  0.18480400  0.21998515  0.00989076  1  -0.063261  0  -0.083843  -0.087245  0  3.982322  0
C  C148  1  0.08451706  0.29200507  0.57929843  1  0.064671  0  -0.009704  -0.049526  0  3.915723  0
C  C149  1  0.79251559  0.70799826  0.92070142  1  0.039331  0  -0.009682  -0.0495  0  3.91588  0
C  C150  1  0.91548050  0.70799447  0.42070174  1  0.064459  0  -0.009736  -0.049534  0  3.91573  0
C  C151  1  0.20748469  0.29200330  0.07929851  1  0.039297  0  -0.009673  -0.049403  0  3.915799  0
C  C152  1  0.01761938  0.36426754  0.61604720  1  1.570679  0  0.188483  0.54711  0  4.237476  0
C  C153  1  0.65335211  0.63573295  0.88395072  1  1.580782  0  0.188432  0.546994  0  4.237584  0
C  C154  1  0.98238124  0.63573299  0.38395461  1  1.570852  0  0.188451  0.547052  0  4.237604  0
C  C155  1  0.34664510  0.36426759  0.11605009  1  1.580726  0  0.188459  0.546963  0  4.237689  0
C  C156  1  0.26922999  0.08961083  0.46351403  1  1.632272  0  0.304288  0.680716  0  3.988866  0
C  C157  1  0.17961801  0.91039346  0.03648693  1  1.645342  0  0.304287  0.680526  0  3.989125  0
C  C158  1  0.73076924  0.91039374  0.53648580  1  1.632403  0  0.304277  0.680843  0  3.988631  0
C  C159  1  0.82038077  0.08960509  0.96351210  1  1.645247  0  0.304304  0.680498  0  3.98889  0
N  N160  1  0.38928275  0.30558071  0.85427502  1  -1.221081  0  -0.320764  -0.241829  0  3.462041  0
N  N161  1  0.08370080  0.69441889  0.64572526  1  -1.217682  0  -0.3208  -0.241925  0  3.462071  0
N  N162  1  0.61071552  0.69441681  0.14572589  1  -1.22119  0  -0.320804  -0.241947  0  3.462024  0
N  N163  1  0.91629641  0.30558165  0.35427504  1  -1.217693  0  -0.3209  -0.242106  0  3.462226  0
N  N164  1  0.21863184  0.45261039  0.88914668  1  -1.251143  0  -0.331641  -0.24572  0  3.523627  0
N  N165  1  0.76602181  0.54738785  0.61085151  1  -1.253672  0  -0.331637  -0.245728  0  3.523374  0
N  N166  1  0.78136459  0.54738518  0.11084894  1  -1.251216  0  -0.331718  -0.245776  0  3.523515  0
N  N167  1  0.23397868  0.45261070  0.38914752  1  -1.253565  0  -0.331659  -0.245823  0  3.523488  0
N  N168  1  0.38162658  0.69853965  0.83599368  1  -1.223609  0  -0.320412  -0.224127  0  3.464658  0
N  N169  1  0.68308589  0.30146351  0.66400871  1  -1.220371  0  -0.320352  -0.224078  0  3.46472  0
N  N170  1  0.61837897  0.30146389  0.16400853  1  -1.224344  0  -0.320364  -0.224031  0  3.464742  0
N  N171  1  0.31691082  0.69853603  0.33599096  1  -1.220441  0  -0.320363  -0.224058  0  3.464691  0
O  O172  1  0.34421919  0.49501880  0.69656527  1  -1.172432  0  -0.325502  -0.549752  0  2.158269  0
O  O173  1  0.84920671  0.50498937  0.80343025  1  -1.158284  0  -0.32542  -0.549784  0  2.158294  0
O  O174  1  0.65578060  0.50498176  0.30343353  1  -1.172361  0  -0.325493  -0.549776  0  2.15823  0
O  O175  1  0.15077757  0.49500409  0.19657314  1  -1.158259  0  -0.325395  -0.549647  0  2.158281  0
O  O176  1  0.23206555  0.30172689  0.72917579  1  -1.158367  0  -0.333802  -0.563111  0  2.185748  0
O  O177  1  0.93034035  0.69828327  0.77082402  1  -1.165261  0  -0.333746  -0.563078  0  2.185624  0
O  O178  1  0.76793679  0.69827366  0.27082351  1  -1.158424  0  -0.333786  -0.563121  0  2.18581  0
O  O179  1  0.06966259  0.30170823  0.22917509  1  -1.165454  0  -0.333693  -0.563004  0  2.185713  0
O  O180  1  0.04474871  0.41351567  0.68176328  1  -1.163642  0  -0.32564  -0.546793  0  2.17272  0
O  O181  1  0.63123192  0.58648580  0.81823628  1  -1.165975  0  -0.325593  -0.546688  0  2.172916  0
O  O182  1  0.95524835  0.58648286  0.31823726  1  -1.163599  0  -0.325614  -0.546749  0  2.172715  0
O  O183  1  0.36876409  0.41351575  0.18176415  1  -1.165983  0  -0.325598  -0.54669  0  2.17292  0
O  O184  1  0.93637202  0.37437379  0.57858313  1  -1.170273  0  -0.332187  -0.555741  0  2.195369  0
O  O185  1  0.56199868  0.62562707  0.92141603  1  -1.174558  0  -0.332199  -0.55575  0  2.195324  0
O  O186  1  0.06362519  0.62562676  0.42141667  1  -1.170427  0  -0.33218  -0.555682  0  2.195378  0
O  O187  1  0.43800109  0.37437346  0.07858528  1  -1.174454  0  -0.332216  -0.555736  0  2.195319  0
F  F188  1  0.39906988  0.17939439  0.45788173  1  -0.625266  0  -0.108193  -0.229044  0  1.307499  0
F  F189  1  0.21967138  0.82060775  0.04212000  1  -0.625443  0  -0.108211  -0.228984  0  1.307557  0
F  F190  1  0.60092935  0.82061019  0.54211760  1  -0.625245  0  -0.108153  -0.229042  0  1.307427  0
F  F191  1  0.78032381  0.17938875  0.95788128  1  -0.625435  0  -0.108231  -0.229015  0  1.307564  0
F  F192  1  0.27533297  0.00124102  0.49648802  1  -0.621372  0  -0.096139  -0.214194  0  1.332204  0
F  F193  1  0.27409041  0.99876221  0.00351132  1  -0.625961  0  -0.096158  -0.214178  0  1.332169  0
F  F194  1  0.72466491  0.99876256  0.50351017  1  -0.621304  0  -0.096202  -0.214264  0  1.332177  0
F  F195  1  0.72590922  0.00123634  0.99648771  1  -0.625969  0  -0.09616  -0.214161  0  1.332123  0
F  F196  1  0.20860973  0.01890441  0.39779882  1  -0.622442  0  -0.096857  -0.201712  0  1.286927  0
F  F197  1  0.18970341  0.98109791  0.10220187  1  -0.624933  0  -0.09683  -0.201637  0  1.287089  0
F  F198  1  0.79139171  0.98110118  0.60220063  1  -0.622701  0  -0.096852  -0.201757  0  1.286935  0
F  F199  1  0.81029401  0.01889963  0.89779653  1  -0.624828  0  -0.096846  -0.201651  0  1.286981  0
