# generated using pymatgen
data_CuH12C10NO4
_symmetry_space_group_name_H-M   'P 1'
_cell_length_a   8.77364369
_cell_length_b   13.01428676
_cell_length_c   14.09911151
_cell_angle_alpha   117.50729472
_cell_angle_beta   92.81353895
_cell_angle_gamma   89.99499233
_symmetry_Int_Tables_number   1
_chemical_formula_structural   CuH12C10NO4
_chemical_formula_sum   'Cu4 H48 C40 N4 O16'
_cell_volume   1425.69705820
_cell_formula_units_Z   4
loop_
 _symmetry_equiv_pos_site_id
 _symmetry_equiv_pos_as_xyz
  1  'x, y, z'
loop_
 _atom_site_type_symbol
 _atom_site_label
 _atom_site_symmetry_multiplicity
 _atom_site_fract_x
 _atom_site_fract_y
 _atom_site_fract_z
 _atom_site_occupancy
 _atom_site_hle17_ddec_charge
 _atom_site_hle17_ddec_spin_density
 _atom_site_hle17_ddec_sum_bond_order
 _atom_site_hle17_magmom
 _atom_site_hse06_10hf_ddec_charge
 _atom_site_hse06_10hf_ddec_spin_density
 _atom_site_hse06_10hf_ddec_sum_bond_order
 _atom_site_hse06_10hf_magmom
 _atom_site_hse06_ddec_charge
 _atom_site_hse06_ddec_spin_density
 _atom_site_hse06_ddec_sum_bond_order
 _atom_site_hse06_magmom
 _atom_site_pbe_cm5_charge
 _atom_site_pbe_ddec_charge
 _atom_site_pbe_ddec_spin_density
 _atom_site_pbe_ddec_sum_bond_order
 _atom_site_pbe_magmom
Cu  Cu0  1  0.92105666  0.42568450  0.41680029  1  0.823492  -0.669517  1.928665  -0.481  0.808556  -0.798357  2.345074  -0.63  0.913854  -0.888002  2.257802  -0.731  0.670038  0.742373  -0.698677  2.405163  -0.54
Cu  Cu1  1  0.57893379  0.00876709  0.58316843  1  0.823248  0.669522  1.928661  0.481  0.809005  0.798038  2.343739  0.63  0.913696  0.887659  2.257534  0.731  0.669992  0.742772  0.698397  2.403849  0.54
Cu  Cu2  1  0.07894680  0.57431493  0.58320009  1  0.823493  0.669502  1.92868  0.481  0.80858  0.798364  2.345096  0.63  0.913756  0.887991  2.257898  0.731  0.669993  0.742337  0.698671  2.405178  0.54
Cu  Cu3  1  0.42105387  0.99123757  0.41683579  1  0.823305  -0.669518  1.928758  -0.481  0.809201  -0.798046  2.343704  -0.63  0.913788  -0.887653  2.257614  -0.731  0.670059  0.743013  -0.698377  2.403713  -0.54
H  H4  1  0.49064920  0.42794551  0.38903423  1  0.150271  -0.001301  0.954076  -0.002  0.165961  -0.000918  1.015625  -0.001  0.16863  -0.000606  1.01507  -0.001  0.099718  0.163774  -0.001082  1.016227  -0.001
H  H5  1  0.00935832  0.03861947  0.61079228  1  0.149898  0.001309  0.954003  0.002  0.165679  0.000922  1.015588  0.001  0.168318  0.000609  1.015068  0.001  0.099592  0.163498  0.001087  1.016185  0.001
H  H6  1  0.50935311  0.57205392  0.61096682  1  0.15026  0.001303  0.954053  0.002  0.165935  0.000918  1.015623  0.001  0.168604  0.000606  1.015067  0.001  0.099698  0.163746  0.001082  1.016223  0.001
H  H7  1  0.99062586  0.96138261  0.38920575  1  0.149974  -0.001309  0.954044  -0.002  0.16577  -0.000922  1.0156  -0.001  0.16841  -0.000609  1.01508  -0.001  0.099634  0.16359  -0.001087  1.016197  -0.001
H  H8  1  0.38010297  0.35025551  0.26385900  1  0.131573  0.001001  0.939246  0.001  0.148432  0.000698  0.997483  0.001  0.149726  0.000474  0.998325  0.0  0.093556  0.147409  0.000805  0.99683  0.001
H  H9  1  0.11994378  0.08621116  0.73593980  1  0.1317  -0.000998  0.938485  -0.001  0.14856  -0.0007  0.996815  -0.001  0.149867  -0.000476  0.997639  0.0  0.093769  0.147542  -0.000807  0.996156  -0.001
H  H10  1  0.61990052  0.64974478  0.73614246  1  0.131541  -0.000999  0.939233  -0.001  0.14839  -0.000697  0.99749  -0.001  0.149684  -0.000474  0.998332  0.0  0.093538  0.147362  -0.000805  0.996844  -0.001
H  H11  1  0.88003475  0.91379266  0.26406020  1  0.131693  0.001  0.938799  0.001  0.148594  0.0007  0.997058  0.001  0.1499  0.000476  0.997884  0.0  0.093755  0.147575  0.000807  0.996401  0.001
H  H12  1  0.41223685  0.28803865  0.35104451  1  0.137689  0.000224  0.957143  0.0  0.152861  0.000114  1.022707  0.0  0.154263  8e-05  1.023635  0.0  0.099096  0.151857  0.000125  1.021987  0.0
H  H13  1  0.08753235  0.93672998  0.64891397  1  0.137356  -0.000224  0.956884  0.0  0.152688  -0.000114  1.022527  0.0  0.154113  -8e-05  1.02344  0.0  0.099036  0.15167  -0.000124  1.021806  0.0
H  H14  1  0.58776769  0.71195904  0.64895446  1  0.137699  -0.000226  0.957136  0.0  0.152873  -0.000114  1.022697  0.0  0.154275  -8e-05  1.023625  0.0  0.099095  0.15187  -0.000125  1.021969  0.0
H  H15  1  0.91245182  0.06327210  0.35108548  1  0.1374  0.000228  0.956843  0.0  0.152695  0.000114  1.022531  0.0  0.154125  8e-05  1.023436  0.0  0.09903  0.151677  0.000124  1.021809  0.0
H  H16  1  0.05150030  0.31006501  0.70622113  1  0.131848  -0.001251  0.931185  -0.001  0.148914  -0.000911  0.987606  -0.001  0.150464  -0.000623  0.987747  -0.001  0.096157  0.147685  -0.001063  0.987468  -0.001
H  H17  1  0.44829431  0.60355908  0.29343122  1  0.132081  0.001249  0.930781  0.001  0.149142  0.00091  0.987289  0.001  0.15069  0.000622  0.987432  0.001  0.096139  0.147908  0.001062  0.987165  0.001
H  H18  1  0.94850325  0.68993788  0.29378499  1  0.131824  0.001251  0.931174  0.001  0.148884  0.000911  0.987579  0.001  0.150434  0.000623  0.987721  0.001  0.096142  0.147656  0.001063  0.987444  0.001
H  H19  1  0.55170488  0.39644730  0.70656774  1  0.132054  -0.001252  0.930734  -0.001  0.14912  -0.00091  0.987249  -0.001  0.150669  -0.000622  0.987392  -0.001  0.096147  0.147889  -0.001062  0.987119  -0.001
H  H20  1  0.12832854  0.21251210  0.58234244  1  0.153403  0.000126  0.933148  0.0  0.172304  7.4e-05  0.98892  0.0  0.174575  6.7e-05  0.98894  0.0  0.105196  0.170692  7.1e-05  0.988842  0.0
H  H21  1  0.37156887  0.63034069  0.41742867  1  0.153474  -0.000128  0.932715  0.0  0.172453  -7.6e-05  0.988531  0.0  0.174693  -6.8e-05  0.988602  0.0  0.105243  0.170856  -7.2e-05  0.988431  0.0
H  H22  1  0.87167149  0.78748820  0.41766316  1  0.153367  -0.000127  0.933198  0.0  0.17225  -7.4e-05  0.988982  0.0  0.174522  -6.7e-05  0.989002  0.0  0.105164  0.170638  -7.1e-05  0.988904  0.0
H  H23  1  0.62842888  0.36965789  0.58256761  1  0.153479  0.00013  0.932762  0.0  0.172473  7.6e-05  0.988554  0.0  0.174711  6.8e-05  0.988626  0.0  0.105238  0.170875  7.3e-05  0.98846  0.0
H  H24  1  0.92831053  0.21117844  0.59522736  1  0.149653  0.001049  0.936171  0.001  0.166785  0.000743  0.993673  0.001  0.16922  0.000486  0.993157  0.001  0.10112  0.164892  0.000883  0.994088  0.001
H  H25  1  0.57152085  0.61575829  0.40441158  1  0.149902  -0.001043  0.935403  -0.001  0.167117  -0.000735  0.992773  -0.001  0.169548  -0.00048  0.99225  -0.001  0.101397  0.165228  -0.000874  0.993193  -0.001
H  H26  1  0.07169203  0.78882792  0.40477737  1  0.149603  -0.001051  0.936176  -0.001  0.166701  -0.000743  0.993723  -0.001  0.169135  -0.000486  0.993207  -0.001  0.101081  0.16481  -0.000883  0.994138  -0.001
H  H27  1  0.42847932  0.38424376  0.59558555  1  0.149858  0.00104  0.935437  0.001  0.16707  0.000735  0.992813  0.001  0.1695  0.00048  0.99229  0.001  0.101384  0.165182  0.000874  0.993234  0.001
H  H28  1  0.78937599  0.38224208  0.19157745  1  0.082605  3.2e-05  0.927621  0.0  0.092432  3.6e-05  0.985394  0.0  0.096406  4.7e-05  0.981622  0.0  0.116851  0.089414  2e-05  0.988341  0.0
H  H29  1  0.71081361  0.19080801  0.80825999  1  0.083027  -3e-05  0.926562  0.0  0.092437  -3.6e-05  0.984873  0.0  0.096423  -4.6e-05  0.981096  0.0  0.116573  0.089406  -1.9e-05  0.987826  0.0
H  H30  1  0.21062760  0.61776082  0.80842371  1  0.082591  -3.1e-05  0.927689  0.0  0.092417  -3.6e-05  0.985452  0.0  0.09639  -4.7e-05  0.981683  0.0  0.116852  0.089395  -2e-05  0.988398  0.0
H  H31  1  0.28918514  0.80918882  0.19174479  1  0.083025  3.2e-05  0.92654  0.0  0.0924  3.6e-05  0.984886  0.0  0.096386  4.6e-05  0.981106  0.0  0.1166  0.089379  1.9e-05  0.987839  0.0
H  H32  1  0.60301862  0.24646313  0.04618998  1  0.099821  2e-05  0.947799  0.0  0.113284  1.2e-05  1.001  0.0  0.116617  1e-05  1.000395  0.0  0.10483  0.110844  1.3e-05  1.001698  0.0
H  H33  1  0.89725783  0.20075332  0.95369807  1  0.100217  -1.9e-05  0.946546  0.0  0.113485  -1.2e-05  0.999995  0.0  0.116865  -1e-05  0.999309  0.0  0.104864  0.111013  -1.3e-05  1.000745  0.0
H  H34  1  0.39698833  0.75353717  0.95380734  1  0.099757  -2.1e-05  0.947875  0.0  0.113271  -1.2e-05  1.001017  0.0  0.116609  -1e-05  1.000414  0.0  0.104817  0.110832  -1.3e-05  1.001718  0.0
H  H35  1  0.10274315  0.79924177  0.04630463  1  0.10014  1.9e-05  0.946574  0.0  0.113437  1.2e-05  1.000003  0.0  0.116834  1e-05  0.999297  0.0  0.104843  0.110969  1.3e-05  1.000749  0.0
H  H36  1  0.56615082  0.05709800  0.22867898  1  0.122781  -2.4e-05  0.958874  0.0  0.131012  -3.3e-05  1.021011  0.0  0.13505  -2e-06  1.019348  0.0  0.108169  0.127998  -6e-05  1.022611  0.0
H  H37  1  0.93366037  0.82865464  0.77176053  1  0.122719  2.2e-05  0.958517  0.0  0.130446  3.2e-05  1.021253  0.0  0.134553  2e-06  1.019519  0.0  0.107861  0.127446  5.9e-05  1.022814  0.0
H  H38  1  0.43385826  0.94289796  0.77131515  1  0.12292  2.3e-05  0.958786  0.0  0.131038  3.3e-05  1.021042  0.0  0.135078  2e-06  1.019379  0.0  0.108176  0.128022  6e-05  1.022639  0.0
H  H39  1  0.06634412  0.17134132  0.22823557  1  0.122656  -2.4e-05  0.958613  0.0  0.130435  -3.2e-05  1.02128  0.0  0.134542  -2e-06  1.019546  0.0  0.107861  0.127444  -5.9e-05  1.022835  0.0
H  H40  1  0.74963200  0.20109626  0.36468490  1  0.08574  5.6e-05  0.948049  0.0  0.09685  4.5e-05  1.007234  0.0  0.100397  6.4e-05  1.004058  0.0  0.118691  0.094075  2.1e-05  1.009879  0.0
H  H41  1  0.75015568  0.83632942  0.63564441  1  0.085256  -5.5e-05  0.94767  0.0  0.096365  -4.5e-05  1.007058  0.0  0.099876  -6.4e-05  1.003876  0.0  0.118404  0.093669  -2.1e-05  1.009609  0.0
H  H42  1  0.25037145  0.79890231  0.63531298  1  0.085784  -5.4e-05  0.948014  0.0  0.096894  -4.5e-05  1.007206  0.0  0.100441  -6.4e-05  1.00403  0.0  0.118708  0.094134  -2.1e-05  1.009831  0.0
H  H43  1  0.24984544  0.16366829  0.36435445  1  0.085245  5.6e-05  0.947692  0.0  0.096385  4.5e-05  1.007043  0.0  0.099897  6.4e-05  1.00386  0.0  0.118404  0.093685  2.1e-05  1.009595  0.0
H  H44  1  0.36911178  0.02893407  0.07612682  1  0.080666  6e-06  0.950845  0.0  0.095866  8e-06  1.016061  0.0  0.096022  5e-06  1.018605  0.0  0.094041  0.095717  1.1e-05  1.014343  0.0
H  H45  1  0.13088573  0.95306239  0.92383352  1  0.081297  -8e-06  0.950503  0.0  0.096207  -8e-06  1.01591  0.0  0.096399  -5e-06  1.018378  0.0  0.094165  0.096037  -1.1e-05  1.014242  0.0
H  H46  1  0.63090080  0.97106448  0.92386995  1  0.080656  -7e-06  0.950852  0.0  0.09587  -8e-06  1.016039  0.0  0.096025  -5e-06  1.018587  0.0  0.094081  0.095725  -1.1e-05  1.014316  0.0
H  H47  1  0.86911868  0.04693183  0.07616467  1  0.081218  8e-06  0.95056  0.0  0.096142  8e-06  1.015955  0.0  0.09633  5e-06  1.01842  0.0  0.094147  0.095972  1.1e-05  1.014287  0.0
H  H48  1  0.40320661  0.09514048  0.99359871  1  0.079102  4e-06  0.922261  0.0  0.099939  4e-06  0.97533  0.0  0.101577  3e-06  0.974331  0.0  0.097289  0.098707  6e-06  0.97616  0.0
H  H49  1  0.09670685  0.10176652  0.00675663  1  0.07921  -4e-06  0.922422  0.0  0.099761  -4e-06  0.975674  0.0  0.101332  -3e-06  0.974735  0.0  0.097248  0.098564  -6e-06  0.976472  0.0
H  H50  1  0.59680141  0.90485808  0.00639791  1  0.079047  -3e-06  0.922271  0.0  0.099919  -4e-06  0.975304  0.0  0.101565  -3e-06  0.974296  0.0  0.097232  0.098686  -6e-06  0.976137  0.0
H  H51  1  0.90329641  0.89822770  0.99324224  1  0.079219  4e-06  0.922429  0.0  0.099733  4e-06  0.975706  0.0  0.101298  3e-06  0.97477  0.0  0.097244  0.098539  6e-06  0.976501  0.0
C  C52  1  0.24697342  0.41937894  0.40294883  1  0.73113  -6e-05  3.814724  0.0  0.706436  2.2e-05  4.106347  0.0  0.747605  4e-06  4.098849  0.0  0.212451  0.678354  3.2e-05  4.111094  0.0
C  C53  1  0.25297625  0.01591610  0.59685154  1  0.730372  6.8e-05  3.815909  0.0  0.705249  -2.4e-05  4.108168  0.0  0.746424  -5e-06  4.10059  0.0  0.21187  0.677143  -3.3e-05  4.112925  0.0
C  C54  1  0.75302533  0.58061618  0.59704742  1  0.731082  6.6e-05  3.814738  0.0  0.706353  -2.2e-05  4.106404  0.0  0.747521  -2e-06  4.098903  0.0  0.212374  0.678273  -3.1e-05  4.111147  0.0
C  C55  1  0.74700584  0.98409118  0.40315006  1  0.730324  -5.9e-05  3.815788  0.0  0.705368  2.4e-05  4.107827  0.0  0.746542  6e-06  4.100245  0.0  0.211919  0.67727  3.3e-05  4.112585  0.0
C  C56  1  0.39232332  0.36987671  0.34826400  1  -0.448411  0.000271  3.64662  0.0  -0.524196  0.000101  3.877859  0.0  -0.534018  7.8e-05  3.882903  0.0  -0.24603  -0.51603  9.2e-05  3.873588  0.0
C  C57  1  0.10761943  0.02127182  0.65156586  1  -0.447845  -0.000286  3.644831  0.0  -0.523885  -9.9e-05  3.87652  0.0  -0.53372  -7.7e-05  3.881546  0.0  -0.246  -0.515702  -9e-05  3.872245  0.0
C  C58  1  0.60767897  0.63012185  0.65173526  1  -0.448317  -0.000276  3.646511  0.0  -0.524095  -0.000104  3.877809  0.0  -0.533918  -7.9e-05  3.882854  0.0  -0.245964  -0.515928  -9.6e-05  3.873538  0.0
C  C59  1  0.89236021  0.97873027  0.34842918  1  -0.447961  0.00027  3.645099  0.0  -0.524063  9.9e-05  3.876742  0.0  -0.533902  7.6e-05  3.881764  0.0  -0.246016  -0.515878  9e-05  3.872469  0.0
C  C60  1  0.01798099  0.35569211  0.57794168  1  0.736186  -0.000704  3.811587  -0.001  0.709936  -0.00036  4.106113  -0.001  0.75131  -0.000365  4.098742  -0.001  0.21285  0.681703  -0.000315  4.110683  -0.001
C  C61  1  0.48229361  0.77764514  0.42159642  1  0.737181  0.000696  3.810829  0.001  0.711612  0.000364  4.104241  0.001  0.752966  0.000369  4.09675  0.001  0.213186  0.683379  0.000321  4.108862  0.001
C  C62  1  0.98202705  0.64430817  0.42206064  1  0.736063  0.000701  3.811738  0.001  0.709914  0.00036  4.106102  0.001  0.751287  0.000366  4.098731  0.001  0.212905  0.68168  0.000317  4.110673  0.001
C  C63  1  0.51769744  0.22235865  0.57840683  1  0.737104  -0.000701  3.810903  -0.001  0.711519  -0.000363  4.104347  -0.001  0.7529  -0.000368  4.096818  -0.001  0.213128  0.683283  -0.000319  4.108971  -0.001
C  C64  1  0.03090760  0.26734337  0.61906793  1  -0.442573  0.000562  3.632532  0.001  -0.513219  0.000348  3.857261  0.0  -0.522588  0.000234  3.860555  0.0  -0.23968  -0.505469  0.000374  3.854246  0.0
C  C65  1  0.46901628  0.64817919  0.38056414  1  -0.443187  -0.000527  3.631645  -0.001  -0.5142  -0.000331  3.856746  0.0  -0.523523  -0.000221  3.860012  0.0  -0.23985  -0.506487  -0.000357  3.853773  0.0
C  C66  1  0.96909596  0.73265951  0.38093748  1  -0.442423  -0.00056  3.632584  -0.001  -0.513035  -0.00035  3.857255  0.0  -0.522404  -0.000234  3.860554  0.0  -0.239584  -0.505286  -0.000377  3.854241  0.0
C  C67  1  0.53098160  0.35182286  0.61943292  1  -0.44309  0.000535  3.631671  0.001  -0.514116  0.000331  3.856771  0.0  -0.523446  0.000222  3.860029  0.0  -0.239811  -0.506403  0.000356  3.853793  0.0
C  C68  1  0.73765920  0.30786424  0.19514591  1  0.121675  0.000461  3.736831  0.0  0.099636  0.000358  3.987586  0.0  0.107355  0.000326  4.005155  0.0  0.044592  0.094775  0.000384  3.975879  0.0
C  C69  1  0.76246874  0.11288585  0.80481950  1  0.120751  -0.000488  3.736445  0.0  0.099051  -0.000357  3.987108  0.0  0.106743  -0.000325  4.00468  0.0  0.044567  0.0942  -0.000382  3.975373  0.0
C  C70  1  0.26234773  0.69213605  0.80485354  1  0.121703  -0.000481  3.736909  0.0  0.099669  -0.000356  3.98768  0.0  0.107387  -0.000327  4.005243  0.0  0.044593  0.094802  -0.000384  3.975971  0.0
C  C71  1  0.23753003  0.88711099  0.19518245  1  0.120675  0.000456  3.736525  0.0  0.099011  0.000357  3.987184  0.0  0.106703  0.000326  4.004755  0.0  0.044574  0.094155  0.000383  3.97546  0.0
C  C72  1  0.63397604  0.23245421  0.11515494  1  -0.197161  -0.000223  3.763045  0.0  -0.21269  -5.5e-05  4.005219  0.0  -0.220851  -8.7e-05  4.026201  0.0  -0.09253  -0.207421  -3.8e-05  3.991092  0.0
C  C73  1  0.86618768  0.11762895  0.88485526  1  -0.197298  0.000251  3.762332  0.0  -0.21263  5.5e-05  4.004298  0.0  -0.220817  8.7e-05  4.025272  0.0  -0.092574  -0.207346  3.8e-05  3.990199  0.0
C  C74  1  0.36603197  0.76754435  0.88484239  1  -0.197159  0.000241  3.763206  0.0  -0.212723  5.4e-05  4.005402  0.0  -0.220895  8.8e-05  4.026393  0.0  -0.092529  -0.207461  3.8e-05  3.991289  0.0
C  C75  1  0.13381334  0.88236701  0.11514639  1  -0.197209  -0.000219  3.762383  0.0  -0.212554  -5.5e-05  4.004341  0.0  -0.220759  -8.7e-05  4.025311  0.0  -0.092597  -0.207266  -3.8e-05  3.990238  0.0
C  C76  1  0.56878311  0.13946539  0.12439356  1  0.143291  0.00049  3.749053  0.0  0.16062  0.000381  3.985896  0.0  0.16638  0.000302  4.007033  0.0  0.008627  0.156905  0.000469  3.971428  0.0
C  C77  1  0.93120996  0.01538925  0.87579060  1  0.142493  -0.00052  3.749877  0.0  0.160102  -0.000381  3.986374  0.0  0.165841  -0.000302  4.007537  0.0  0.008338  0.156392  -0.000469  3.97191  0.0
C  C78  1  0.43122602  0.86053230  0.87560272  1  0.143388  -0.000506  3.749321  0.0  0.160678  -0.000381  3.986199  0.0  0.16644  -0.000304  4.007337  0.0  0.008644  0.156957  -0.000469  3.971738  0.0
C  C79  1  0.06879336  0.98460671  0.12420901  1  0.142564  0.000491  3.749772  0.0  0.160119  0.000381  3.986339  0.0  0.165855  0.000302  4.007501  0.0  0.008367  0.156411  0.000469  3.971879  0.0
C  C80  1  0.61250206  0.12670211  0.21513766  1  -0.178245  -0.0003  3.691989  0.0  -0.192623  -0.000133  3.932455  0.0  -0.200043  -0.000128  3.950843  0.0  -0.085013  -0.18788  -0.000147  3.920269  0.0
C  C81  1  0.88734363  0.91176701  0.78513822  1  -0.177424  0.000327  3.692787  0.0  -0.191461  0.000131  3.933386  0.0  -0.198957  0.000127  3.951751  0.0  -0.08461  -0.186706  0.000145  3.92118  0.0
C  C82  1  0.38750704  0.87329471  0.78485825  1  -0.178421  0.000325  3.692104  0.0  -0.192688  0.000131  3.932591  0.0  -0.20011  0.000129  3.950975  0.0  -0.085046  -0.187943  0.000147  3.920405  0.0
C  C83  1  0.11265974  0.08822982  0.21486105  1  -0.177412  -0.000297  3.692702  0.0  -0.191488  -0.000131  3.933312  0.0  -0.198985  -0.000127  3.95168  0.0  -0.084612  -0.186731  -0.000145  3.921106  0.0
C  C84  1  0.71591570  0.20648833  0.29171475  1  0.137132  0.000396  3.693052  0.0  0.112029  0.000314  3.946401  0.0  0.120506  0.000305  3.962347  0.0  0.050799  0.106666  0.000318  3.935876  0.0
C  C85  1  0.78394227  0.91483264  0.70852302  1  0.136502  -0.000424  3.693071  0.0  0.111282  -0.000313  3.946823  0.0  0.119791  -0.000304  3.962702  0.0  0.050611  0.105862  -0.000318  3.936284  0.0
C  C86  1  0.28409000  0.79350937  0.70828213  1  0.137055  -0.000425  3.693104  0.0  0.11194  -0.000312  3.946449  0.0  0.120416  -0.000306  3.962388  0.0  0.050767  0.10656  -0.000318  3.935911  0.0
C  C87  1  0.21605773  0.08516593  0.29147688  1  0.136485  0.000396  3.69298  0.0  0.111264  0.000313  3.946731  0.0  0.11977  0.000305  3.962606  0.0  0.050607  0.105858  0.000318  3.936181  0.0
C  C88  1  0.45903965  0.05469602  0.03911243  1  -0.150425  -4.4e-05  3.68987  0.0  -0.194561  -1.5e-05  3.941689  0.0  -0.196195  -1.6e-05  3.953065  0.0  -0.154285  -0.193246  -1.8e-05  3.933701  0.0
C  C89  1  0.04092296  0.01579246  0.96102378  1  -0.15079  5.2e-05  3.69006  0.0  -0.194441  1.6e-05  3.941339  0.0  -0.196023  1.6e-05  3.95256  0.0  -0.154107  -0.193156  1.8e-05  3.933433  0.0
C  C90  1  0.54096830  0.94530081  0.96088345  1  -0.15041  4.4e-05  3.689924  0.0  -0.194551  1.6e-05  3.941755  0.0  -0.196198  1.6e-05  3.953137  0.0  -0.154227  -0.193237  1.8e-05  3.933767  0.0
C  C91  1  0.95908032  0.98420264  0.03897617  1  -0.150763  -5.1e-05  3.690101  0.0  -0.194349  -1.5e-05  3.941353  0.0  -0.19591  -1.6e-05  3.952551  0.0  -0.154123  -0.19307  -1.8e-05  3.93345  0.0
N  N92  1  0.77847077  0.29550166  0.28238344  1  -0.309022  0.001188  3.228691  0.0  -0.262404  0.000698  3.513495  0.0  -0.283897  0.000718  3.529122  0.0  -0.336476  -0.248897  0.000636  3.504219  0.0
N  N93  1  0.72147507  0.01315374  0.71770633  1  -0.307525  -0.001163  3.228199  0.0  -0.260969  -0.000699  3.512612  0.0  -0.282337  -0.000719  3.528243  0.0  -0.335372  -0.247454  -0.000636  3.503339  0.0
N  N94  1  0.22153504  0.70449950  0.71761776  1  -0.308921  -0.001167  3.228762  0.0  -0.262319  -0.000699  3.513593  0.0  -0.283786  -0.000716  3.5292  0.0  -0.336444  -0.248798  -0.000636  3.504299  0.0
N  N95  1  0.27852375  0.98684397  0.28229458  1  -0.30742  0.001185  3.22812  0.0  -0.260905  0.000698  3.512537  0.0  -0.282257  0.000718  3.52816  0.0  -0.335347  -0.247391  0.000636  3.50325  0.0
O  O96  1  0.12166319  0.37323305  0.35036477  1  -0.595998  -0.075222  2.056537  -0.099  -0.574679  -0.051644  2.325211  -0.075  -0.619582  -0.040832  2.316842  -0.063  -0.323927  -0.545494  -0.054029  2.331492  -0.075
O  O97  1  0.37827242  0.02215374  0.64937087  1  -0.595577  0.075196  2.058384  0.099  -0.574273  0.051637  2.32722  0.075  -0.619073  0.040825  2.318901  0.063  -0.323688  -0.545039  0.054018  2.333472  0.075
O  O98  1  0.87833793  0.62676465  0.64963480  1  -0.596062  0.075223  2.056395  0.099  -0.574703  0.051643  2.325072  0.075  -0.619586  0.040832  2.316698  0.063  -0.323919  -0.545498  0.054029  2.331332  0.075
O  O99  1  0.62170777  0.97783361  0.35062357  1  -0.595552  -0.075202  2.058316  -0.099  -0.574342  -0.051642  2.327111  -0.075  -0.619125  -0.040828  2.318792  -0.063  -0.323745  -0.545123  -0.054023  2.333355  -0.075
O  O100  1  0.26073994  0.50215276  0.49822000  1  -0.589745  0.077051  2.071009  0.101  -0.565964  0.052728  2.342965  0.076  -0.610996  0.041573  2.336269  0.064  -0.315299  -0.536776  0.055259  2.348096  0.077
O  O101  1  0.23925301  0.00356075  0.50164836  1  -0.589089  -0.07701  2.070559  -0.101  -0.565187  -0.052677  2.342423  -0.076  -0.610068  -0.04153  2.335723  -0.064  -0.314831  -0.536077  -0.055209  2.347707  -0.077
O  O102  1  0.73926228  0.49784407  0.50177923  1  -0.589691  -0.077051  2.071181  -0.101  -0.5659  -0.052728  2.343154  -0.076  -0.61095  -0.041572  2.33646  -0.064  -0.315269  -0.536735  -0.055261  2.348315  -0.077
O  O103  1  0.76073195  0.99646213  0.49835858  1  -0.589059  0.077009  2.070503  0.101  -0.565202  0.052677  2.342284  0.076  -0.610105  0.041528  2.335594  0.064  -0.314832  -0.536078  0.055203  2.347573  0.077
O  O104  1  0.94424737  0.32340536  0.48800150  1  -0.595498  -0.073954  2.054377  -0.097  -0.572809  -0.051201  2.326512  -0.074  -0.618069  -0.040399  2.318849  -0.062  -0.318933  -0.543177  -0.054215  2.332157  -0.075
O  O105  1  0.55612327  0.83526291  0.51152023  1  -0.596254  0.074115  2.054473  0.097  -0.574167  0.051277  2.326753  0.074  -0.619223  0.040454  2.318875  0.062  -0.319544  -0.544498  0.054295  2.332416  0.075
O  O106  1  0.05575968  0.67659925  0.51200406  1  -0.595426  0.073958  2.054271  0.097  -0.572771  0.051202  2.326367  0.074  -0.618011  0.0404  2.318699  0.062  -0.318917  -0.54312  0.054215  2.331992  0.075
O  O107  1  0.44388490  0.16473912  0.48847575  1  -0.596233  -0.074113  2.054397  -0.097  -0.574174  -0.051277  2.326702  -0.074  -0.619225  -0.040455  2.318814  -0.062  -0.319551  -0.544515  -0.054299  2.33236  -0.075
O  O108  1  0.08404190  0.45418732  0.63459125  1  -0.591288  0.079782  2.040443  0.105  -0.56891  0.054908  2.304081  0.079  -0.613918  0.043058  2.294818  0.066  -0.322276  -0.539628  0.058113  2.31087  0.081
O  O109  1  0.41638585  0.81955843  0.36498632  1  -0.591445  -0.079706  2.040454  -0.105  -0.569362  -0.054835  2.303563  -0.079  -0.614232  -0.042995  2.294332  -0.066  -0.321941  -0.54009  -0.058047  2.310353  -0.08
O  O110  1  0.91596852  0.54581556  0.36541226  1  -0.591239  -0.079774  2.040629  -0.105  -0.568905  -0.054905  2.304235  -0.079  -0.613931  -0.043054  2.294971  -0.066  -0.322323  -0.539639  -0.05811  2.311041  -0.081
O  O111  1  0.58358811  0.18044712  0.63502348  1  -0.59142  0.079714  2.040587  0.105  -0.569293  0.054839  2.303697  0.079  -0.614186  0.042998  2.294448  0.066  -0.321905  -0.54001  0.058048  2.3105  0.08
