# generated using pymatgen
data_ZnH9C12I(NO2)2
_symmetry_space_group_name_H-M   'P 1'
_cell_length_a   7.80058381
_cell_length_b   12.06350697
_cell_length_c   13.87496465
_cell_angle_alpha   90.00006310
_cell_angle_beta   89.99998987
_cell_angle_gamma   89.96978955
_symmetry_Int_Tables_number   1
_chemical_formula_structural   ZnH9C12I(NO2)2
_chemical_formula_sum   'Zn4 H36 C48 I4 N8 O16'
_cell_volume   1305.66725366
_cell_formula_units_Z   4
loop_
 _symmetry_equiv_pos_site_id
 _symmetry_equiv_pos_as_xyz
  1  'x, y, z'
loop_
 _atom_site_type_symbol
 _atom_site_label
 _atom_site_symmetry_multiplicity
 _atom_site_fract_x
 _atom_site_fract_y
 _atom_site_fract_z
 _atom_site_occupancy
 _atom_site_hle17_bader_spin_density
 _atom_site_hle17_ddec_charge
 _atom_site_hle17_ddec_spin_density
 _atom_site_hle17_ddec_sum_bond_order
 _atom_site_hle17_magmom
 _atom_site_hse06_10hf_bader_spin_density
 _atom_site_hse06_10hf_ddec_charge
 _atom_site_hse06_10hf_ddec_spin_density
 _atom_site_hse06_10hf_ddec_sum_bond_order
 _atom_site_hse06_10hf_magmom
 _atom_site_hse06_bader_spin_density
 _atom_site_hse06_ddec_charge
 _atom_site_hse06_ddec_spin_density
 _atom_site_hse06_ddec_sum_bond_order
 _atom_site_hse06_magmom
 _atom_site_pbe_bader_spin_density
 _atom_site_pbe_cm5_charge
 _atom_site_pbe_ddec_charge
 _atom_site_pbe_ddec_spin_density
 _atom_site_pbe_ddec_sum_bond_order
 _atom_site_pbe_magmom
Zn  Zn0  1  0.60592843  0.75277472  0.43699460  1  0  0.918228  0  1.980092  0  0  0.745257  0  2.460566  0  0  0.794996  0  2.403415  0  0  0.574146  0.710653  0  2.499481  0
Zn  Zn1  1  0.10592715  0.25277445  0.06300496  1  0  0.918211  0  1.980103  0  0  0.745235  0  2.460584  0  0  0.794971  0  2.403435  0  0  0.574127  0.710612  0  2.499488  0
Zn  Zn2  1  0.39407149  0.24722433  0.56300478  1  0  0.918259  0  1.980063  0  0  0.7453  0  2.460529  0  0  0.795039  0  2.403375  0  0  0.574156  0.710681  0  2.499449  0
Zn  Zn3  1  0.89407152  0.74722626  0.93699657  1  0  0.918203  0  1.980079  0  0  0.745246  0  2.460552  0  0  0.794983  0  2.403403  0  0  0.574165  0.710671  0  2.499467  0
H  H4  1  0.18516284  0.49893670  0.88487888  1  0  0.331586  0  0.849871  0  0  0.307488  0  0.915213  0  0  0.316637  0  0.907015  0  0  0.330156  0.300962  0  0.921136  0
H  H5  1  0.68516296  0.99893740  0.61512201  1  0  0.331586  0  0.849922  0  0  0.307475  0  0.915282  0  0  0.316626  0  0.907081  0  0  0.330131  0.300943  0  0.921209  0
H  H6  1  0.81483839  0.50106399  0.11512338  1  0  0.331523  0  0.849963  0  0  0.307426  0  0.915311  0  0  0.316573  0  0.907113  0  0  0.330104  0.300895  0  0.921236  0
H  H7  1  0.31483701  0.00106414  0.38487808  1  0  0.331583  0  0.849898  0  0  0.307472  0  0.915255  0  0  0.316623  0  0.907056  0  0  0.330133  0.300945  0  0.921178  0
H  H8  1  0.12171885  0.24202701  0.28059182  1  0  0.089487  0  0.944302  0  0  0.095046  0  1.012456  0  0  0.098483  0  1.009055  0  0  0.112653  0.092502  0  1.015007  0
H  H9  1  0.62171893  0.74202784  0.21940773  1  0  0.089471  0  0.944321  0  0  0.095028  0  1.012482  0  0  0.098465  0  1.009079  0  0  0.112635  0.092471  0  1.015038  0
H  H10  1  0.87828103  0.75796955  0.71940828  1  0  0.089447  0  0.944316  0  0  0.095062  0  1.012401  0  0  0.098501  0  1.008993  0  0  0.112638  0.092506  0  1.014968  0
H  H11  1  0.37827975  0.25797370  0.78059236  1  0  0.089472  0  0.944335  0  0  0.09503  0  1.012487  0  0  0.098467  0  1.009085  0  0  0.112641  0.092473  0  1.015043  0
H  H12  1  0.99073394  0.12933788  0.41231962  1  0  0.117655  0  0.963996  0  0  0.122579  0  1.034217  0  0  0.126584  0  1.031763  0  0  0.103703  0.119677  0  1.036116  0
H  H13  1  0.49073466  0.62933874  0.08767978  1  0  0.117639  0  0.964034  0  0  0.122555  0  1.034262  0  0  0.12656  0  1.031809  0  0  0.103689  0.119647  0  1.036161  0
H  H14  1  0.00926594  0.87065869  0.58768047  1  0  0.117657  0  0.964136  0  0  0.122574  0  1.034357  0  0  0.12658  0  1.031905  0  0  0.1037  0.119672  0  1.036253  0
H  H15  1  0.50926276  0.37066365  0.91231959  1  0  0.117651  0  0.964068  0  0  0.122564  0  1.034286  0  0  0.126569  0  1.031832  0  0  0.103708  0.119663  0  1.036179  0
H  H16  1  0.70033951  0.95611531  0.19417461  1  0  0.108617  0  0.975414  0  0  0.113644  0  1.045977  0  0  0.117508  0  1.043792  0  0  0.097874  0.110793  0  1.047793  0
H  H17  1  0.20034328  0.45611531  0.30582441  1  0  0.108625  0  0.97541  0  0  0.113689  0  1.045932  0  0  0.117553  0  1.043745  0  0  0.097889  0.110826  0  1.047745  0
H  H18  1  0.29965911  0.04388209  0.80582404  1  0  0.10865  0  0.975393  0  0  0.113667  0  1.045956  0  0  0.11753  0  1.043773  0  0  0.097894  0.110822  0  1.047773  0
H  H19  1  0.79966178  0.54388370  0.69417568  1  0  0.108597  0  0.975429  0  0  0.113623  0  1.045996  0  0  0.117486  0  1.043813  0  0  0.09787  0.110766  0  1.047813  0
H  H20  1  0.84114870  0.07604466  0.07128378  1  0  0.081729  0  0.957467  0  0  0.086896  0  1.027905  0  0  0.090489  0  1.024097  0  0  0.108432  0.084172  0  1.030829  0
H  H21  1  0.34114928  0.57604429  0.42871486  1  0  0.081736  0  0.957503  0  0  0.086925  0  1.027912  0  0  0.090525  0  1.024098  0  0  0.108435  0.084189  0  1.03084  0
H  H22  1  0.15885251  0.92395438  0.92871487  1  0  0.08173  0  0.957446  0  0  0.086918  0  1.027862  0  0  0.090519  0  1.024047  0  0  0.108433  0.084191  0  1.030789  0
H  H23  1  0.65885576  0.42395389  0.57128451  1  0  0.081746  0  0.957444  0  0  0.086927  0  1.027872  0  0  0.090507  0  1.024077  0  0  0.108422  0.084195  0  1.030798  0
H  H24  1  0.23428580  0.58938727  0.59478809  1  0  0.119091  0  0.971231  0  0  0.122194  0  1.042069  0  0  0.126722  0  1.038885  0  0  0.100835  0.118838  0  1.044661  0
H  H25  1  0.73429154  0.08938884  0.90521312  1  0  0.119099  0  0.971232  0  0  0.122193  0  1.042072  0  0  0.126717  0  1.038895  0  0  0.100835  0.118834  0  1.044664  0
H  H26  1  0.76571028  0.41061181  0.40521344  1  0  0.119089  0  0.971222  0  0  0.122188  0  1.042055  0  0  0.126719  0  1.038868  0  0  0.100846  0.118834  0  1.044654  0
H  H27  1  0.26571355  0.91061265  0.09478697  1  0  0.119066  0  0.971251  0  0  0.122167  0  1.042087  0  0  0.126694  0  1.038905  0  0  0.100841  0.118822  0  1.044685  0
H  H28  1  0.11462920  0.46399904  0.72474368  1  0  0.10516  0  0.95121  0  0  0.109661  0  1.020623  0  0  0.113231  0  1.016863  0  0  0.126148  0.106965  0  1.023521  0
H  H29  1  0.61463053  0.96399909  0.77525790  1  0  0.105162  0  0.951186  0  0  0.10966  0  1.020612  0  0  0.113232  0  1.016847  0  0  0.126143  0.106955  0  1.023511  0
H  H30  1  0.88537077  0.53600250  0.27525929  1  0  0.105162  0  0.951141  0  0  0.109656  0  1.020571  0  0  0.113228  0  1.016809  0  0  0.12614  0.106951  0  1.023472  0
H  H31  1  0.38537072  0.03600243  0.22474219  1  0  0.105136  0  0.951191  0  0  0.109631  0  1.020619  0  0  0.113201  0  1.016858  0  0  0.126144  0.106942  0  1.023518  0
H  H32  1  0.34630154  0.64620699  0.94083584  1  0  0.111999  0  0.945057  0  0  0.115601  0  1.013735  0  0  0.119325  0  1.009918  0  0  0.129325  0.112823  0  1.016607  0
H  H33  1  0.84630098  0.14620817  0.55916397  1  0  0.112005  0  0.945053  0  0  0.115595  0  1.013738  0  0  0.119315  0  1.00993  0  0  0.129324  0.112823  0  1.016607  0
H  H34  1  0.65369972  0.35379537  0.05916497  1  0  0.111994  0  0.945028  0  0  0.115604  0  1.013733  0  0  0.119325  0  1.009921  0  0  0.129312  0.112817  0  1.016606  0
H  H35  1  0.15369899  0.85379337  0.44083540  1  0  0.112014  0  0.945047  0  0  0.115604  0  1.013759  0  0  0.119327  0  1.009943  0  0  0.129319  0.112826  0  1.016624  0
H  H36  1  0.47982326  0.77831718  0.82051775  1  0  0.109722  0  0.991521  0  0  0.112524  0  1.064163  0  0  0.116798  0  1.06178  0  0  0.097124  0.109391  0  1.066098  0
H  H37  1  0.97982649  0.27831765  0.67948218  1  0  0.109763  0  0.991511  0  0  0.112546  0  1.064174  0  0  0.11682  0  1.061791  0  0  0.097131  0.109418  0  1.066106  0
H  H38  1  0.52017158  0.22168440  0.17948090  1  0  0.109746  0  0.991535  0  0  0.112542  0  1.064174  0  0  0.116817  0  1.061789  0  0  0.097119  0.109403  0  1.066111  0
H  H39  1  0.02017603  0.72168303  0.32051720  1  0  0.10974  0  0.991498  0  0  0.112538  0  1.064146  0  0  0.116811  0  1.061763  0  0  0.097136  0.109413  0  1.066074  0
C  C40  1  0.02626959  0.17868515  0.26471715  1  0  0.127349  0  3.677786  0  0  0.097068  0  3.93013  0  0  0.103596  0  3.948017  0  0  0.04443  0.092856  0  3.91797  0
C  C41  1  0.52627094  0.67868516  0.23528306  1  0  0.127422  0  3.677749  0  0  0.097132  0  3.930092  0  0  0.103661  0  3.947977  0  0  0.044456  0.092914  0  3.91794  0
C  C42  1  0.97372902  0.82131225  0.73528294  1  0  0.127418  0  3.677723  0  0  0.097111  0  3.930062  0  0  0.103638  0  3.947953  0  0  0.044412  0.092894  0  3.917897  0
C  C43  1  0.47372902  0.32131555  0.76471775  1  0  0.12736  0  3.677913  0  0  0.097071  0  3.930237  0  0  0.103599  0  3.948124  0  0  0.044397  0.092849  0  3.918077  0
C  C44  1  0.95157630  0.11629743  0.33785312  1  0  -0.116897  0  3.690336  0  0  -0.139815  0  3.938756  0  0  -0.145384  0  3.959561  0  0  -0.078154  -0.136187  0  3.9249  0
C  C45  1  0.45157696  0.61629673  0.16214699  1  0  -0.116928  0  3.690337  0  0  -0.139808  0  3.938743  0  0  -0.145385  0  3.959538  0  0  -0.078165  -0.136186  0  3.92489  0
C  C46  1  0.04842102  0.88369915  0.66214697  1  0  -0.116948  0  3.690363  0  0  -0.139848  0  3.938761  0  0  -0.145422  0  3.95955  0  0  -0.078165  -0.136219  0  3.924901  0
C  C47  1  0.54842044  0.38370482  0.83785310  1  0  -0.116912  0  3.690487  0  0  -0.13978  0  3.93886  0  0  -0.145354  0  3.959663  0  0  -0.078144  -0.136153  0  3.925  0
C  C48  1  0.83123789  0.03502467  0.31390059  1  0  -0.003362  0  3.70272  0  0  0.018235  0  3.927542  0  0  0.01601  0  3.948211  0  0  0.00341  0.019695  0  3.913703  0
C  C49  1  0.33124109  0.53502315  0.18610017  1  0  -0.003368  0  3.702683  0  0  0.018188  0  3.927582  0  0  0.01599  0  3.948213  0  0  0.003354  0.019635  0  3.913744  0
C  C50  1  0.16875689  0.96497359  0.68609950  1  0  -0.003373  0  3.702669  0  0  0.018209  0  3.927507  0  0  0.016009  0  3.948142  0  0  0.003428  0.019659  0  3.91368  0
C  C51  1  0.66876013  0.46497672  0.81390064  1  0  -0.003395  0  3.702706  0  0  0.018177  0  3.927569  0  0  0.015965  0  3.948218  0  0  0.003337  0.019623  0  3.913741  0
C  C52  1  0.79084150  0.01965023  0.21659872  1  0  -0.117113  0  3.705955  0  0  -0.138638  0  3.951924  0  0  -0.144215  0  3.973236  0  0  -0.081702  -0.135019  0  3.93776  0
C  C53  1  0.29084722  0.51964798  0.28340132  1  0  -0.117106  0  3.705991  0  0  -0.138634  0  3.951915  0  0  -0.14422  0  3.973223  0  0  -0.081728  -0.135012  0  3.937741  0
C  C54  1  0.20915458  0.98034885  0.78339993  1  0  -0.117185  0  3.706039  0  0  -0.138684  0  3.951988  0  0  -0.144268  0  3.973295  0  0  -0.08176  -0.135067  0  3.937826  0
C  C55  1  0.70915910  0.48035019  0.71659878  1  0  -0.117075  0  3.705888  0  0  -0.138586  0  3.95186  0  0  -0.144168  0  3.973167  0  0  -0.081703  -0.134973  0  3.937701  0
C  C56  1  0.86991621  0.08536790  0.14767749  1  0  0.118808  0  3.703315  0  0  0.090194  0  3.95166  0  0  0.095937  0  3.970561  0  0  0.041284  0.08652  0  3.938849  0
C  C57  1  0.36991937  0.58536659  0.35232188  1  0  0.118789  0  3.703496  0  0  0.090163  0  3.951844  0  0  0.095897  0  3.970746  0  0  0.041291  0.086483  0  3.939031  0
C  C58  1  0.13008244  0.91463199  0.85232188  1  0  0.11886  0  3.703329  0  0  0.090237  0  3.951666  0  0  0.095971  0  3.970565  0  0  0.041306  0.086566  0  3.938857  0
C  C59  1  0.63008439  0.41463160  0.64767821  1  0  0.118804  0  3.703275  0  0  0.090175  0  3.951623  0  0  0.095926  0  3.970529  0  0  0.041298  0.086496  0  3.938814  0
C  C60  1  0.75098895  0.96340892  0.39114232  1  0  0.643346  0  3.913386  0  0  0.594918  0  4.204755  0  0  0.628784  0  4.196697  0  0  0.206423  0.571958  0  4.209413  0
C  C61  1  0.25099405  0.46340783  0.10885670  1  0  0.643295  0  3.913623  0  0  0.594843  0  4.205049  0  0  0.628703  0  4.196988  0  0  0.206425  0.571882  0  4.209703  0
C  C62  1  0.24900329  0.03659019  0.60885705  1  0  0.643539  0  3.913336  0  0  0.595089  0  4.204744  0  0  0.628951  0  4.196681  0  0  0.206534  0.572128  0  4.209404  0
C  C63  1  0.74900591  0.53659287  0.89114267  1  0  0.643342  0  3.9137  0  0  0.594864  0  4.205162  0  0  0.628727  0  4.197105  0  0  0.206453  0.5719  0  4.209821  0
C  C64  1  0.45558337  0.76657128  0.62396374  1  0  0.636201  0  3.921258  0  0  0.588616  0  4.21374  0  0  0.622116  0  4.206049  0  0  0.206247  0.565906  0  4.218125  0
C  C65  1  0.95558783  0.26657199  0.87603546  1  0  0.636288  0  3.92123  0  0  0.588691  0  4.213712  0  0  0.622191  0  4.206023  0  0  0.206307  0.565981  0  4.218094  0
C  C66  1  0.54441272  0.23342863  0.37603636  1  0  0.636216  0  3.921326  0  0  0.588659  0  4.213775  0  0  0.62216  0  4.206087  0  0  0.206265  0.565942  0  4.218145  0
C  C67  1  0.04441596  0.73342785  0.12396391  1  0  0.636323  0  3.921182  0  0  0.58871  0  4.213678  0  0  0.622211  0  4.205986  0  0  0.206301  0.566005  0  4.218062  0
C  C68  1  0.36675142  0.69385281  0.69813615  1  0  0.020669  0  3.664509  0  0  0.038233  0  3.891442  0  0  0.037809  0  3.9116  0  0  0.018361  0.038586  0  3.877929  0
C  C69  1  0.86675588  0.19385260  0.80186371  1  0  0.020754  0  3.664537  0  0  0.038328  0  3.891458  0  0  0.037908  0  3.911607  0  0  0.018431  0.03868  0  3.877936  0
C  C70  1  0.63324724  0.30614708  0.30186395  1  0  0.020836  0  3.664513  0  0  0.038383  0  3.891423  0  0  0.03796  0  3.91158  0  0  0.018405  0.038726  0  3.8779  0
C  C71  1  0.13324791  0.80614725  0.19813494  1  0  0.020683  0  3.664545  0  0  0.038309  0  3.891387  0  0  0.037887  0  3.911539  0  0  0.018402  0.038665  0  3.877871  0
C  C72  1  0.26134672  0.60543449  0.67035009  1  0  -0.116351  0  3.685452  0  0  -0.138246  0  3.937594  0  0  -0.14498  0  3.957999  0  0  -0.07049  -0.134052  0  3.924256  0
C  C73  1  0.76135120  0.10543597  0.82965113  1  0  -0.116479  0  3.685535  0  0  -0.138361  0  3.937665  0  0  -0.145094  0  3.958076  0  0  -0.070615  -0.134169  0  3.924324  0
C  C74  1  0.73864811  0.39456626  0.32965072  1  0  -0.11646  0  3.685557  0  0  -0.138331  0  3.937672  0  0  -0.145071  0  3.958079  0  0  -0.070566  -0.134141  0  3.924342  0
C  C75  1  0.23865133  0.89456554  0.17034896  1  0  -0.116419  0  3.685527  0  0  -0.138318  0  3.93763  0  0  -0.145052  0  3.958033  0  0  -0.070546  -0.134123  0  3.924302  0
C  C76  1  0.19355460  0.53605646  0.74003024  1  0  0.155151  0  3.589243  0  0  0.111712  0  3.845746  0  0  0.119872  0  3.860592  0  0  0.069633  0.106428  0  3.835785  0
C  C77  1  0.69355781  0.03605703  0.75997165  1  0  0.155252  0  3.589138  0  0  0.111802  0  3.845642  0  0  0.119964  0  3.860481  0  0  0.06968  0.106512  0  3.835683  0
C  C78  1  0.80644407  0.46394426  0.25997201  1  0  0.15517  0  3.589147  0  0  0.111746  0  3.845624  0  0  0.119902  0  3.860463  0  0  0.069643  0.106463  0  3.835675  0
C  C79  1  0.30644473  0.96394448  0.24002844  1  0  0.155238  0  3.589109  0  0  0.111802  0  3.845587  0  0  0.119962  0  3.860431  0  0  0.069649  0.106516  0  3.835631  0
C  C80  1  0.32667250  0.63992754  0.86355060  1  0  0.158428  0  3.574362  0  0  0.115519  0  3.829969  0  0  0.123952  0  3.844311  0  0  0.072148  0.110007  0  3.820431  0
C  C81  1  0.82667575  0.13992796  0.63644994  1  0  0.158416  0  3.574435  0  0  0.115547  0  3.829997  0  0  0.123981  0  3.844338  0  0  0.072157  0.110034  0  3.820472  0
C  C82  1  0.67332492  0.36007485  0.13645094  1  0  0.158494  0  3.574338  0  0  0.115491  0  3.830092  0  0  0.12392  0  3.844431  0  0  0.072107  0.109978  0  3.820556  0
C  C83  1  0.17332678  0.86007356  0.36355016  1  0  0.15848  0  3.574323  0  0  0.115532  0  3.829987  0  0  0.123966  0  3.844329  0  0  0.072148  0.11002  0  3.82045  0
C  C84  1  0.39757301  0.71108375  0.79618974  1  0  -0.116045  0  3.69418  0  0  -0.136351  0  3.941892  0  0  -0.144044  0  3.964003  0  0  -0.071753  -0.131472  0  3.927326  0
C  C85  1  0.89757752  0.21108424  0.70381086  1  0  -0.116135  0  3.694251  0  0  -0.136466  0  3.941992  0  0  -0.144161  0  3.964104  0  0  -0.071809  -0.131589  0  3.927436  0
C  C86  1  0.60242436  0.28891615  0.20380964  1  0  -0.116174  0  3.694178  0  0  -0.136429  0  3.94191  0  0  -0.144124  0  3.964025  0  0  -0.071764  -0.131558  0  3.927342  0
C  C87  1  0.10242628  0.78891643  0.29618851  1  0  -0.1161  0  3.694137  0  0  -0.136411  0  3.941848  0  0  -0.144105  0  3.963959  0  0  -0.071772  -0.131531  0  3.927281  0
I  I88  1  0.87000997  0.64525123  0.49699324  1  0  -0.488438  0  1.066573  0  0  -0.42829  0  1.407339  0  0  -0.449229  0  1.380568  0  0  -0.194842  -0.412863  0  1.425522  0
I  I89  1  0.37001127  0.14525087  0.00300618  1  0  -0.488442  0  1.066553  0  0  -0.428293  0  1.407308  0  0  -0.449234  0  1.380538  0  0  -0.19486  -0.412879  0  1.425494  0
I  I90  1  0.12998870  0.35474949  0.50300757  1  0  -0.48845  0  1.066547  0  0  -0.428299  0  1.407303  0  0  -0.44924  0  1.380535  0  0  -0.19484  -0.412856  0  1.425482  0
I  I91  1  0.62998996  0.85474983  0.99699319  1  0  -0.488433  0  1.066583  0  0  -0.428285  0  1.407347  0  0  -0.449225  0  1.380576  0  0  -0.194846  -0.412864  0  1.425532  0
N  N92  1  0.98593064  0.16376435  0.17111974  1  0  -0.330639  0  3.32479  0  0  -0.245272  0  3.59175  0  0  -0.26496  0  3.609411  0  0  -0.334407  -0.231933  0  3.579574  0
N  N93  1  0.48593125  0.66376386  0.32888041  1  0  -0.330677  0  3.324881  0  0  -0.24533  0  3.591863  0  0  -0.265018  0  3.609528  0  0  -0.334447  -0.232008  0  3.579698  0
N  N94  1  0.01406928  0.83623470  0.82888035  1  0  -0.330695  0  3.324712  0  0  -0.245371  0  3.591731  0  0  -0.265059  0  3.609396  0  0  -0.334418  -0.232043  0  3.579561  0
N  N95  1  0.51406869  0.33623602  0.67112040  1  0  -0.330656  0  3.324804  0  0  -0.245294  0  3.591773  0  0  -0.264981  0  3.60943  0  0  -0.334411  -0.231965  0  3.579601  0
N  N96  1  0.22876550  0.55463950  0.83375085  1  0  -0.197795  0  3.460985  0  0  -0.120329  0  3.676308  0  0  -0.134885  0  3.6921  0  0  -0.331842  -0.110702  0  3.665753  0
N  N97  1  0.72876874  0.05463995  0.66625034  1  0  -0.197819  0  3.460976  0  0  -0.120347  0  3.676282  0  0  -0.134902  0  3.692071  0  0  -0.331796  -0.110723  0  3.665737  0
N  N98  1  0.77123318  0.44536205  0.16625069  1  0  -0.19773  0  3.461015  0  0  -0.120245  0  3.676377  0  0  -0.134787  0  3.692156  0  0  -0.331762  -0.110639  0  3.665839  0
N  N99  1  0.27123378  0.94536073  0.33374976  1  0  -0.19784  0  3.460944  0  0  -0.120341  0  3.676262  0  0  -0.134897  0  3.692054  0  0  -0.331793  -0.110719  0  3.665708  0
O  O100  1  0.65777902  0.88317042  0.35784635  1  0  -0.638929  0  2.096208  0  0  -0.564204  0  2.374705  0  0  -0.594111  0  2.360332  0  0  -0.332874  -0.543151  0  2.383733  0
O  O101  1  0.15777771  0.38317026  0.14215261  1  0  -0.638895  0  2.096176  0  0  -0.564169  0  2.374696  0  0  -0.594075  0  2.360327  0  0  -0.332915  -0.543122  0  2.383721  0
O  O102  1  0.34221834  0.11682865  0.64215231  1  0  -0.639052  0  2.096091  0  0  -0.564308  0  2.374587  0  0  -0.594216  0  2.360217  0  0  -0.332981  -0.54325  0  2.383613  0
O  O103  1  0.84222351  0.61682961  0.85784748  1  0  -0.638885  0  2.096141  0  0  -0.564152  0  2.374668  0  0  -0.594055  0  2.360298  0  0  -0.332906  -0.543111  0  2.383702  0
O  O104  1  0.42427072  0.73934474  0.53553107  1  0  -0.634897  0  2.084394  0  0  -0.562075  0  2.36136  0  0  -0.591524  0  2.346403  0  0  -0.330841  -0.541331  0  2.370787  0
O  O105  1  0.92427129  0.23934477  0.96446811  1  0  -0.634914  0  2.084322  0  0  -0.562076  0  2.361284  0  0  -0.591526  0  2.346327  0  0  -0.330864  -0.541342  0  2.370711  0
O  O106  1  0.57573052  0.26065595  0.46446975  1  0  -0.634886  0  2.084396  0  0  -0.56211  0  2.361386  0  0  -0.59156  0  2.346428  0  0  -0.33087  -0.5414  0  2.370819  0
O  O107  1  0.07573249  0.76065425  0.03553054  1  0  -0.634912  0  2.084336  0  0  -0.562109  0  2.361336  0  0  -0.591559  0  2.346382  0  0  -0.330873  -0.541379  0  2.37077  0
O  O108  1  0.78010956  0.98326354  0.47767516  1  0  -0.599237  0  1.957979  0  0  -0.557973  0  2.193355  0  0  -0.57953  0  2.183314  0  0  -0.307279  -0.54294  0  2.199831  0
O  O109  1  0.28011594  0.48326068  0.02232532  1  0  -0.599204  0  1.95823  0  0  -0.557934  0  2.193631  0  0  -0.579491  0  2.183591  0  0  -0.307243  -0.542915  0  2.200109  0
O  O110  1  0.21988269  0.01673640  0.52232493  1  0  -0.599271  0  1.958099  0  0  -0.558004  0  2.193508  0  0  -0.579562  0  2.183462  0  0  -0.307253  -0.542973  0  2.199983  0
O  O111  1  0.71988145  0.51674005  0.97767405  1  0  -0.599244  0  1.958289  0  0  -0.557965  0  2.1937  0  0  -0.579521  0  2.183657  0  0  -0.307269  -0.542931  0  2.200174  0
O  O112  1  0.55214430  0.84201458  0.65246042  1  0  -0.593499  0  1.941836  0  0  -0.554156  0  2.175016  0  0  -0.575961  0  2.16644  0  0  -0.308045  -0.538942  0  2.180449  0
O  O113  1  0.05215059  0.34201296  0.84754034  1  0  -0.59358  0  1.941904  0  0  -0.554229  0  2.175075  0  0  -0.576019  0  2.16647  0  0  -0.308104  -0.539031  0  2.180513  0
O  O114  1  0.44785054  0.15798699  0.34754040  1  0  -0.593561  0  1.94193  0  0  -0.554215  0  2.175097  0  0  -0.576002  0  2.166485  0  0  -0.308103  -0.539034  0  2.180536  0
O  O115  1  0.94785319  0.65798688  0.15245831  1  0  -0.593563  0  1.941873  0  0  -0.554206  0  2.175061  0  0  -0.576005  0  2.166472  0  0  -0.308062  -0.53899  0  2.180493  0
