# generated using pymatgen
data_NiH19C17(NO)5
_symmetry_space_group_name_H-M   'P 1'
_cell_length_a   8.68336208
_cell_length_b   11.12190267
_cell_length_c   11.98192464
_cell_angle_alpha   102.84104299
_cell_angle_beta   112.75765311
_cell_angle_gamma   102.34093102
_symmetry_Int_Tables_number   1
_chemical_formula_structural   NiH19C17(NO)5
_chemical_formula_sum   'Ni2 H38 C34 N10 O10'
_cell_volume   980.88460949
_cell_formula_units_Z   2
loop_
 _symmetry_equiv_pos_site_id
 _symmetry_equiv_pos_as_xyz
  1  'x, y, z'
loop_
 _atom_site_type_symbol
 _atom_site_label
 _atom_site_symmetry_multiplicity
 _atom_site_fract_x
 _atom_site_fract_y
 _atom_site_fract_z
 _atom_site_occupancy
 _atom_site_hle17_ddec_charge
 _atom_site_hle17_ddec_spin_density
 _atom_site_hle17_ddec_sum_bond_order
 _atom_site_hle17_magmom
 _atom_site_hse06_10hf_ddec_charge
 _atom_site_hse06_10hf_ddec_spin_density
 _atom_site_hse06_10hf_ddec_sum_bond_order
 _atom_site_hse06_10hf_magmom
 _atom_site_hse06_ddec_charge
 _atom_site_hse06_ddec_spin_density
 _atom_site_hse06_ddec_sum_bond_order
 _atom_site_hse06_magmom
 _atom_site_pbe_cm5_charge
 _atom_site_pbe_ddec_charge
 _atom_site_pbe_ddec_spin_density
 _atom_site_pbe_ddec_sum_bond_order
 _atom_site_pbe_magmom
Ni  Ni0  1  0.95534535  0.95947999  0.58522611  1  0.874436  -1.864108  2.021923  -1.523  0.883928  -1.880699  2.407051  -1.635  0.97001  -1.937402  2.334168  -1.718  0.635851  0.819806  -1.827204  2.46116  -1.559
Ni  Ni1  1  0.96850589  0.44346538  0.10539164  1  0.694402  1.836011  2.281496  1.484  0.682655  1.850986  2.683798  1.589  0.765058  1.912218  2.619228  1.677  0.666107  0.627189  1.796793  2.72735  1.515
H  H2  1  0.49757061  0.82248147  0.23465922  1  0.099006  0.000408  1.012096  0.0  0.099893  0.000428  1.087586  0.0  0.103513  0.000306  1.086454  0.0  0.102588  0.09725  0.000556  1.088664  0.001
H  H3  1  0.47797705  0.97218257  0.41913494  1  0.102608  0.000303  0.955204  0.001  0.109725  8e-06  1.02336  0.0  0.113282  1.2e-05  1.019715  0.0  0.108953  0.106897  5e-06  1.026535  0.0
H  H4  1  0.02083494  0.66033554  0.34378580  1  0.106454  0.000803  0.913483  0.002  0.112804  0.000655  0.975827  0.001  0.117294  0.000502  0.970263  0.001  0.125728  0.109184  0.000777  0.980433  0.001
H  H5  1  0.40398938  0.07993226  0.93585619  1  0.100928  0.000404  1.002931  0.0  0.101982  0.000424  1.078193  0.0  0.105426  0.000304  1.077284  0.0  0.102443  0.099472  0.000554  1.079031  0.001
H  H6  1  0.42488650  0.93907844  0.74723551  1  0.106872  0.000313  0.947692  0.001  0.113908  4e-06  1.013295  0.0  0.117475  1.1e-05  1.009776  0.0  0.109962  0.111121  -7e-06  1.016263  0.0
H  H7  1  0.91563708  0.23913162  0.86026833  1  0.10127  0.000819  0.923708  0.002  0.107394  0.000662  0.988858  0.001  0.111748  0.000504  0.983295  0.001  0.123741  0.103887  0.000797  0.993462  0.002
H  H8  1  0.32875812  0.35588702  0.19945056  1  0.116666  3.9e-05  0.945981  0.001  0.121174  -4e-06  1.014854  0.0  0.124811  -6e-06  1.010048  0.0  0.13424  0.118358  0.0  1.018499  0.0
H  H9  1  0.18179880  0.22066960  0.45960291  1  0.128096  0.000285  0.962271  0.0  0.137368  0.000215  1.023213  0.0  0.140431  0.000174  1.021324  0.0  0.122191  0.135103  0.000275  1.024632  0.0
H  H10  1  0.93171249  0.32174475  0.32266821  1  0.102689  8.1e-05  0.972214  0.0  0.112981  0.000191  1.029075  0.001  0.115148  0.000125  1.028359  0.0  0.114335  0.111353  0.000259  1.029801  0.001
H  H11  1  0.53000259  0.26983272  0.33508852  1  0.09001  -4.8e-05  0.945602  0.0  0.105156  -1.2e-05  1.00793  0.0  0.106714  -1e-05  1.006993  0.0  0.112385  0.103858  -1.6e-05  1.008782  0.0
H  H12  1  0.44162271  0.15381418  0.39575985  1  0.069428  3.1e-05  0.946615  0.0  0.082242  2.7e-05  1.01761  0.0  0.082989  1.3e-05  1.016949  0.0  0.103945  0.081675  4.5e-05  1.018222  0.0
H  H13  1  0.98426068  0.52068169  0.86557669  1  0.100348  3e-05  0.950316  0.001  0.108563  2.6e-05  1.014667  0.0  0.111499  1.2e-05  1.01097  0.0  0.135676  0.10629  4.4e-05  1.017536  0.0
H  H14  1  0.60980963  0.54143088  0.00613956  1  0.122244  4.7e-05  0.956717  0.0  0.128497  0.000149  1.018804  0.001  0.13174  9.7e-05  1.016172  0.0  0.11716  0.126057  0.0002  1.020938  0.001
H  H15  1  0.50289019  0.59854919  0.77939868  1  0.117905  0.000425  0.935204  0.0  0.133686  0.000422  0.982642  0.0  0.136471  0.000307  0.98123  0.0  0.128552  0.131684  0.000532  0.983755  0.001
H  H16  1  0.87696855  0.58927980  0.68194181  1  0.068322  7e-06  0.926999  0.0  0.087061  3.5e-05  0.9856  0.0  0.087046  2.2e-05  0.98608  0.0  0.111854  0.086975  5.3e-05  0.98544  0.0
H  H17  1  0.74418210  0.68968605  0.68092154  1  0.08853  -4.8e-05  0.938692  0.0  0.104078  -3.1e-05  0.999872  0.0  0.104876  -1.6e-05  0.999784  0.0  0.11107  0.103376  -4.9e-05  1.000197  0.0
H  H18  1  0.47186517  0.50314266  0.53652880  1  0.071211  -2e-06  0.931302  0.0  0.088697  -1e-05  0.989775  0.0  0.089331  -7e-06  0.990588  0.0  0.093215  0.088201  -1.1e-05  0.989254  0.0
H  H19  1  0.62348131  0.51656390  0.47213293  1  0.086075  -0.000165  0.921007  0.0  0.107813  -0.00023  0.97379  0.0  0.109132  -0.000155  0.973079  0.0  0.099626  0.106665  -0.000308  0.974552  0.0
H  H20  1  0.53983668  0.31771747  0.60120063  1  0.077204  -4e-05  0.925219  0.0  0.095122  -7.6e-05  0.983424  0.0  0.096272  -4.8e-05  0.983638  0.0  0.093827  0.094273  -0.000106  0.983334  0.0
H  H21  1  0.72065066  0.33964129  0.56610522  1  0.069899  3e-05  0.921763  0.0  0.092912  2.7e-05  0.974631  0.0  0.09311  1.7e-05  0.975442  0.0  0.095604  0.092672  4.1e-05  0.974187  0.0
H  H22  1  0.03924502  0.08052624  0.88862990  1  0.0963  -0.000102  0.953301  0.0  0.105068  -2.7e-05  1.018206  0.0  0.10723  -2.3e-05  1.015176  0.0  0.138775  0.103306  -3.6e-05  1.020725  0.0
H  H23  1  0.13932087  0.76234804  0.69920032  1  0.11695  -0.000145  0.930083  -0.001  0.129601  -0.000186  0.979626  -0.001  0.132611  -0.000131  0.977702  0.0  0.127047  0.127295  -0.000246  0.981301  -0.001
H  H24  1  0.24447141  0.77612532  0.95567409  1  0.126546  -0.000295  0.9671  0.0  0.133455  -0.000251  1.032747  0.0  0.136433  -0.00019  1.031331  0.0  0.121449  0.131266  -0.000305  1.033879  0.0
H  H25  1  0.20076415  0.09267585  0.11946445  1  0.081278  0.0  0.936946  0.0  0.095387  -4e-06  1.001734  0.0  0.096168  -8e-06  1.001591  0.0  0.113877  0.094596  -2e-06  1.002035  0.0
H  H26  1  0.29665563  0.97177168  0.15345706  1  0.071173  -0.000104  0.942223  0.0  0.086744  -8.7e-05  1.008189  0.0  0.086717  -5.8e-05  1.00924  0.0  0.107846  0.086642  -0.000125  1.007678  0.0
H  H27  1  0.99660615  0.81260344  0.08468198  1  0.077718  -6.8e-05  0.933872  0.0  0.095349  -5.3e-05  0.994613  0.0  0.095322  -5e-05  0.997111  0.0  0.092296  0.095326  -6.1e-05  0.992838  0.0
H  H28  1  0.06230501  0.95543482  0.21551576  1  0.071721  -3.1e-05  0.950441  0.0  0.087588  -4.4e-05  1.016992  0.0  0.08745  -2.4e-05  1.018921  0.0  0.092415  0.087596  -6.5e-05  1.015795  0.0
H  H29  1  0.80114384  0.90234578  0.93407921  1  0.077282  -2.4e-05  0.937143  0.0  0.094158  -2.3e-05  0.999473  0.0  0.094419  -1.2e-05  1.00087  0.0  0.093756  0.093852  -3.6e-05  0.998721  0.0
H  H30  1  0.87593648  0.05079081  0.06102810  1  0.073733  -5.7e-05  0.938081  0.0  0.090793  -4.5e-05  1.001213  0.0  0.090488  -4.3e-05  1.00419  0.0  0.091016  0.091035  -5.2e-05  0.999064  0.0
H  H31  1  0.77045584  0.15165557  0.45765235  1  0.111321  -0.000166  0.945679  -0.001  0.122459  -0.000214  1.000584  -0.001  0.124871  -0.000151  0.99949  0.0  0.12345  0.120629  -0.000272  1.001617  -0.001
H  H32  1  0.63261081  0.10601328  0.19324103  1  0.122176  -0.000304  0.983094  0.0  0.128416  -0.000261  1.050171  0.0  0.131373  -0.000195  1.048843  0.0  0.119828  0.126265  -0.000326  1.05119  0.0
H  H33  1  0.86240920  0.81907789  0.28595541  1  0.101075  -9.6e-05  0.939772  -0.001  0.110935  -4.1e-05  1.001171  0.0  0.113154  -3.2e-05  0.998253  0.0  0.140836  0.109175  -5.4e-05  1.003568  0.0
H  H34  1  0.57693790  0.90252885  0.00612801  1  0.073919  -0.000142  0.938038  0.0  0.089894  -0.000116  1.001727  0.0  0.089966  -8e-05  1.002618  0.0  0.108491  0.089672  -0.000158  1.001367  0.0
H  H35  1  0.66715140  0.78088141  0.04573992  1  0.082469  6.3e-05  0.947563  0.0  0.096449  3.6e-05  1.01379  0.0  0.097055  2.6e-05  1.01409  0.0  0.111478  0.095748  4.8e-05  1.013812  0.0
H  H36  1  0.68145679  0.80411937  0.55302127  1  0.402425  0.000431  0.918755  0.002  0.37065  -1.5e-05  0.987165  0.001  0.383108  0.000104  0.969634  0.001  0.280847  0.361903  -0.000158  0.999382  0.0
H  H37  1  0.68136450  0.75676737  0.41705339  1  0.397306  0.000333  0.856196  0.001  0.380233  -0.000376  0.918817  0.0  0.388195  -0.000183  0.911191  0.0  0.305028  0.374429  -0.000575  0.924285  0.0
H  H38  1  0.22788770  0.11470828  0.61451603  1  0.404808  0.000398  0.914701  0.001  0.371261  -4.9e-05  0.98476  0.001  0.384092  8.1e-05  0.966488  0.001  0.279547  0.362185  -0.000197  0.997627  0.0
H  H39  1  0.22077910  0.18058008  0.74524485  1  0.411679  8.9e-05  0.831236  0.001  0.39942  -0.000553  0.883771  0.0  0.407665  -0.000319  0.875453  0.0  0.314425  0.393291  -0.000795  0.889963  0.0
C  C40  1  0.27128304  0.57440698  0.08134351  1  0.582568  -0.001951  3.974635  -0.004  0.541501  0.000727  4.280726  0.0  0.575611  0.000621  4.272916  0.0  0.189558  0.517819  0.000814  4.285375  0.0
C  C41  1  0.27151207  0.66662194  0.19597848  1  0.101934  -0.008754  3.707219  -0.011  0.103492  -0.00303  3.950967  -0.004  0.108607  -0.003173  3.967948  -0.005  0.109008  0.098841  -0.003387  3.941136  -0.004
C  C42  1  0.39620093  0.79171706  0.26412342  1  -0.146151  0.007183  3.756404  0.008  -0.160215  0.002474  4.004995  0.003  -0.16603  0.002576  4.022108  0.003  -0.087559  -0.156782  0.002573  3.995131  0.003
C  C43  1  0.38356647  0.87371877  0.36390577  1  -0.006987  -0.010696  3.696499  -0.012  -0.040018  -0.004477  3.950711  -0.005  -0.031961  -0.00384  3.963102  -0.004  -0.063926  -0.04632  -0.005729  3.943862  -0.006
C  C44  1  0.24584940  0.82877478  0.39320998  1  -0.098885  0.00357  3.7339  0.004  -0.075109  0.000566  3.969984  0.001  -0.085756  0.00136  3.98865  0.002  -0.010171  -0.068365  -0.000131  3.958649  0.0
C  C45  1  0.12885677  0.70066592  0.32320253  1  0.128426  -0.009239  3.626727  -0.011  0.090887  -0.002774  3.8821  -0.004  0.102041  -0.003071  3.894843  -0.005  0.060587  0.082752  -0.002732  3.874796  -0.004
C  C46  1  0.21570333  0.91840027  0.49046859  1  0.631172  0.002175  3.926212  0.005  0.581771  -0.000691  4.234765  0.001  0.618055  -0.000468  4.228686  0.0  0.206527  0.556426  -0.000935  4.238145  0.001
C  C47  1  0.65127463  0.31560021  0.11347328  1  0.585997  -0.002214  3.962615  -0.004  0.545128  0.00057  4.267434  0.0  0.579665  0.000491  4.259121  0.0  0.193904  0.521162  0.000617  4.272474  -0.001
C  C48  1  0.65079454  0.22732191  0.99652303  1  0.10278  -0.008911  3.707337  -0.011  0.104524  -0.003126  3.950349  -0.004  0.109478  -0.003292  3.967141  -0.005  0.110753  0.099982  -0.003457  3.940612  -0.005
C  C49  1  0.51468257  0.10949683  0.91494420  1  -0.136402  0.007514  3.737025  0.009  -0.152898  0.0026  3.988891  0.003  -0.158608  0.002709  4.006799  0.003  -0.084855  -0.149282  0.002704  3.978179  0.003
C  C50  1  0.52619362  0.03308219  0.81131444  1  -0.007026  -0.011054  3.684586  -0.012  -0.03872  -0.00468  3.937875  -0.005  -0.031245  -0.004012  3.95087  -0.005  -0.062854  -0.044537  -0.006026  3.930377  -0.006
C  C51  1  0.67165171  0.07783490  0.78949555  1  -0.09625  0.004182  3.729658  0.005  -0.07272  0.000931  3.966416  0.001  -0.083086  0.001649  3.985294  0.002  -0.008673  -0.066087  0.000342  3.954725  0.001
C  C52  1  0.80053021  0.19851591  0.87359940  1  0.117288  -0.009332  3.644463  -0.012  0.07808  -0.002749  3.903597  -0.004  0.088566  -0.003019  3.917049  -0.005  0.055843  0.070452  -0.002738  3.895716  -0.004
C  C53  1  0.69835565  0.99425215  0.68603543  1  0.632729  0.002158  3.924227  0.004  0.584289  -0.000659  4.231981  0.001  0.620392  -0.000455  4.225673  0.0  0.205758  0.559004  -0.000917  4.235583  0.001
C  C54  1  0.25177717  0.33489034  0.25018207  1  0.13822  -0.006662  3.634635  -0.008  0.083501  -0.001761  3.907405  -0.002  0.097729  -0.002074  3.92022  -0.003  0.13406  0.074193  -0.001566  3.898552  -0.002
C  C55  1  0.17301083  0.26385455  0.38565822  1  -0.076718  0.003713  3.680833  0.004  -0.115352  0.001632  3.934587  0.002  -0.113845  0.001487  3.952944  0.002  -0.005642  -0.116059  0.001845  3.922062  0.002
C  C56  1  0.05025893  0.31326874  0.31670384  1  -0.01705  -0.001902  3.778078  -0.003  -0.045629  -0.000154  4.048526  -0.001  -0.043555  -0.000554  4.070597  -0.001  -0.011944  -0.047185  0.000213  4.033667  0.0
C  C57  1  0.46859666  0.25559001  0.39808159  1  -0.010295  0.000766  3.62396  0.001  -0.073903  0.00057  3.885043  0.001  -0.070168  0.000425  3.896689  0.001  -0.056082  -0.076193  0.000736  3.876948  0.001
C  C58  1  0.87043469  0.53562659  0.87588477  1  0.133351  -0.005964  3.677137  -0.007  0.075427  -0.001461  3.951581  -0.002  0.088592  -0.001789  3.966867  -0.002  0.131655  0.066895  -0.001184  3.940965  -0.001
C  C59  1  0.67391909  0.54633213  0.94461627  1  -0.007924  -0.001393  3.733835  -0.002  -0.036006  0.000225  4.0052  0.0  -0.032806  -0.000184  4.024434  -0.001  -0.003552  -0.038214  0.000601  3.992235  0.0
C  C60  1  0.61810277  0.57429536  0.83184484  1  -0.070386  0.003633  3.676798  0.004  -0.107642  0.00166  3.926673  0.002  -0.106212  0.001462  3.944463  0.002  0.000308  -0.10822  0.001889  3.914354  0.002
C  C61  1  0.74791520  0.59079320  0.67544031  1  0.002691  0.000613  3.640021  0.001  -0.062882  0.00045  3.903939  0.001  -0.058432  0.000347  3.915346  0.0  -0.053173  -0.065797  0.000562  3.896143  0.001
C  C62  1  0.59941618  0.49100211  0.54899831  1  -0.128411  -0.000145  3.690984  0.0  -0.170606  -0.000213  3.957215  0.0  -0.171794  -0.000143  3.970617  0.0  -0.164193  -0.169589  -0.000296  3.947954  0.0
C  C63  1  0.58803520  0.34919098  0.53636499  1  -0.120142  -7.4e-05  3.677898  0.0  -0.163957  -6.2e-05  3.947103  0.0  -0.165259  -4.1e-05  3.961173  0.0  -0.1617  -0.16291  -7.3e-05  3.937173  0.0
C  C64  1  0.07756423  0.99472604  0.86920236  1  0.143658  0.006132  3.665065  0.007  0.090546  0.0016  3.934523  0.002  0.105337  0.001804  3.947242  0.002  0.138736  0.080531  0.001537  3.926028  0.002
C  C65  1  0.13342389  0.82966495  0.77699627  1  0.0096  0.002208  3.735279  0.003  -0.018184  0.000463  4.006589  0.001  -0.015149  0.00073  4.026053  0.001  0.006024  -0.020441  0.000264  3.993579  0.001
C  C66  1  0.18538083  0.83570554  0.90290581  1  -0.083494  -0.003648  3.658511  -0.004  -0.121572  -0.001478  3.914616  -0.002  -0.12031  -0.001337  3.932508  -0.002  -0.000818  -0.122327  -0.001685  3.902764  -0.002
C  C67  1  0.17568823  0.98683893  0.09241754  1  0.007208  -0.000684  3.614426  -0.001  -0.056034  -0.000492  3.872845  -0.001  -0.051269  -0.000373  3.883286  -0.001  -0.051184  -0.059071  -0.000601  3.865877  -0.001
C  C68  1  0.01989601  0.91863464  0.11148420  1  -0.128814  4.5e-05  3.674144  0.0  -0.170273  -0.0  3.938876  0.0  -0.171831  3e-06  3.953483  0.0  -0.166822  -0.169096  -4e-06  3.928775  0.0
C  C69  1  0.84926230  0.94462232  0.03852071  1  -0.131345  6.3e-05  3.680969  0.0  -0.173176  8e-06  3.947031  0.0  -0.175125  1.2e-05  3.962268  0.0  -0.167363  -0.171782  6e-06  3.936567  0.0
C  C70  1  0.76893445  0.07615829  0.38207028  1  0.007628  0.002183  3.724623  0.003  -0.019738  0.000421  3.992919  0.001  -0.017308  0.000725  4.013626  0.001  0.003809  -0.02163  0.000181  3.979078  0.001
C  C71  1  0.70107620  0.05431153  0.25189673  1  -0.076988  -0.003713  3.662367  -0.004  -0.115853  -0.001483  3.920099  -0.002  -0.11473  -0.001339  3.938814  -0.002  0.000323  -0.116473  -0.001697  3.907637  -0.002
C  C72  1  0.82181106  0.90462943  0.29895056  1  0.135355  0.00631  3.663491  0.007  0.082645  0.001628  3.932487  0.002  0.097274  0.001848  3.944927  0.002  0.136194  0.072701  0.001559  3.924168  0.002
C  C73  1  0.69764915  0.88675027  0.06665382  1  -0.001629  -0.000691  3.620013  -0.001  -0.064705  -0.000493  3.875595  -0.001  -0.060235  -0.000374  3.886472  -0.001  -0.053695  -0.067468  -0.0006  3.868313  -0.001
N  N74  1  0.10010748  0.35646439  0.23224923  1  -0.332947  0.054988  3.321541  0.081  -0.300521  0.038869  3.630626  0.058  -0.328673  0.031662  3.652678  0.049  -0.353027  -0.281004  0.044777  3.614931  0.065
N  N75  1  0.29964639  0.27826264  0.34239553  1  -0.065093  0.000842  3.583111  0.001  0.032611  0.000741  3.795105  0.001  0.018052  0.00052  3.821592  0.001  -0.249828  0.042333  0.000973  3.77689  0.001
N  N76  1  0.83217336  0.52304515  0.97106645  1  -0.337373  0.053876  3.32434  0.079  -0.303461  0.038607  3.629936  0.058  -0.331749  0.031544  3.653282  0.048  -0.354284  -0.283895  0.044502  3.613377  0.064
N  N77  1  0.74426818  0.56720546  0.78979099  1  -0.062056  0.000844  3.594979  0.001  0.032794  0.000811  3.814165  0.001  0.018575  0.000578  3.840958  0.001  -0.246719  0.042288  0.001055  3.795658  0.001
N  N78  1  0.14875564  0.94118660  0.95989201  1  -0.058299  -0.000567  3.570206  -0.001  0.037298  -0.000496  3.784606  -0.001  0.023571  -0.000345  3.80906  -0.001  -0.245832  0.046284  -0.000617  3.768119  -0.001
N  N79  1  0.06575541  0.92884197  0.75707828  1  -0.352297  -0.048184  3.318087  -0.071  -0.318193  -0.031637  3.625456  -0.047  -0.346276  -0.026144  3.645467  -0.04  -0.357438  -0.298297  -0.035996  3.611623  -0.052
N  N80  1  0.84355935  0.98233851  0.41009459  1  -0.348849  -0.049989  3.327547  -0.073  -0.312553  -0.032673  3.629855  -0.049  -0.340673  -0.026931  3.6503  -0.041  -0.357581  -0.292581  -0.037248  3.615673  -0.054
N  N81  1  0.73604111  0.94525389  0.20069405  1  -0.059183  -0.000633  3.574021  -0.001  0.036721  -0.000566  3.787466  -0.001  0.022796  -0.000392  3.812403  -0.001  -0.244611  0.04587  -0.000706  3.770553  -0.001
N  N82  1  0.14116003  0.62249493  0.22664659  1  -0.271771  0.055784  3.351317  0.082  -0.235142  0.03809  3.639417  0.057  -0.25972  0.031896  3.65831  0.049  -0.32504  -0.219023  0.042931  3.627323  0.063
N  N83  1  0.79138181  0.26920145  0.97553552  1  -0.274431  0.057807  3.369912  0.085  -0.235959  0.039202  3.654586  0.059  -0.260664  0.032869  3.674539  0.05  -0.327784  -0.219635  0.044174  3.641716  0.065
O  O84  1  0.15841693  0.45832589  0.03544898  1  -0.585137  0.058935  2.013445  0.091  -0.563831  0.038953  2.274173  0.062  -0.599603  0.02917  2.263989  0.048  -0.322558  -0.537116  0.04818  2.279692  0.075
O  O85  1  0.37494083  0.61848947  0.03945201  1  -0.600907  0.004813  1.872676  0.007  -0.568671  0.002907  2.087628  0.004  -0.589556  0.001325  2.077602  0.002  -0.341165  -0.55314  0.004965  2.093784  0.007
O  O86  1  0.30029701  0.03987089  0.52954527  1  -0.607547  0.00069  1.954568  0.001  -0.558424  -9.8e-05  2.179485  -0.001  -0.584041  0.000182  2.171283  0.0  -0.313928  -0.540711  -0.000403  2.184984  -0.001
O  O87  1  0.10077037  0.86424250  0.52175609  1  -0.608218  -0.052504  2.082172  -0.081  -0.583708  -0.033375  2.355625  -0.053  -0.621484  -0.025299  2.346469  -0.041  -0.314562  -0.554868  -0.041099  2.36044  -0.064
O  O88  1  0.77628714  0.42657154  0.17144701  1  -0.568953  0.059522  2.004326  0.092  -0.54818  0.039028  2.262041  0.062  -0.583376  0.029265  2.25094  0.048  -0.319546  -0.521905  0.04818  2.268237  0.075
O  O89  1  0.53362460  0.27310797  0.14494764  1  -0.606602  0.004669  1.905626  0.007  -0.573222  0.00279  2.128951  0.004  -0.595051  0.001232  2.118471  0.002  -0.334605  -0.557059  0.00478  2.135371  0.007
O  O90  1  0.61498779  0.87220318  0.64389310  1  -0.609161  0.000619  1.950936  0.0  -0.56195  -0.000195  2.168614  -0.001  -0.58657  0.000114  2.159354  0.0  -0.320485  -0.544706  -0.000498  2.174762  -0.001
O  O91  1  0.80918739  0.05253401  0.65346386  1  -0.609782  -0.049799  2.0451  -0.077  -0.585077  -0.031305  2.313508  -0.05  -0.622151  -0.023736  2.303993  -0.039  -0.318532  -0.55683  -0.038628  2.318605  -0.06
O  O92  1  0.75336671  0.77396266  0.50821773  1  -0.769508  -0.04768  1.93552  -0.071  -0.744677  -0.034242  2.134331  -0.052  -0.774163  -0.026379  2.107717  -0.041  -0.563289  -0.721882  -0.041691  2.152514  -0.061
O  O93  1  0.15034085  0.14683116  0.65214561  1  -0.782071  -0.044856  1.902579  -0.066  -0.75795  -0.033042  2.089856  -0.049  -0.785571  -0.025536  2.060017  -0.039  -0.569487  -0.736608  -0.040133  2.110707  -0.058
