# generated using pymatgen
data_FeH21C31S2N11O2
_symmetry_space_group_name_H-M   'P 1'
_cell_length_a   11.98675445
_cell_length_b   12.78956527
_cell_length_c   13.16800000
_cell_angle_alpha   83.94329184
_cell_angle_beta   65.72258938
_cell_angle_gamma   86.82895880
_symmetry_Int_Tables_number   1
_chemical_formula_structural   FeH21C31S2N11O2
_chemical_formula_sum   'Fe2 H42 C62 S4 N22 O4'
_cell_volume   1829.76946633
_cell_formula_units_Z   2
loop_
 _symmetry_equiv_pos_site_id
 _symmetry_equiv_pos_as_xyz
  1  'x, y, z'
loop_
 _atom_site_type_symbol
 _atom_site_label
 _atom_site_symmetry_multiplicity
 _atom_site_fract_x
 _atom_site_fract_y
 _atom_site_fract_z
 _atom_site_occupancy
 _atom_site_hle17_bader_spin_density
 _atom_site_hle17_ddec_charge
 _atom_site_hle17_ddec_spin_density
 _atom_site_hle17_ddec_sum_bond_order
 _atom_site_hle17_magmom
 _atom_site_hse06_10hf_bader_spin_density
 _atom_site_hse06_10hf_ddec_charge
 _atom_site_hse06_10hf_ddec_spin_density
 _atom_site_hse06_10hf_ddec_sum_bond_order
 _atom_site_hse06_10hf_magmom
 _atom_site_hse06_bader_spin_density
 _atom_site_hse06_ddec_charge
 _atom_site_hse06_ddec_spin_density
 _atom_site_hse06_ddec_sum_bond_order
 _atom_site_hse06_magmom
 _atom_site_pbe_bader_charge
 _atom_site_pbe_bader_spin_density
 _atom_site_pbe_cm5_charge
 _atom_site_pbe_ddec_charge
 _atom_site_pbe_ddec_spin_density
 _atom_site_pbe_ddec_sum_bond_order
 _atom_site_pbe_magmom
Fe  Fe0  1  0.00008791  0.99946600  0.99999813  1  0  0.526965  0  3.347973  0  0  0.500635  0  3.825525  0  0  0.529695  0  3.783271  0  1.174275  0  0.854177  0.489406  0  3.844652  0
Fe  Fe1  1  0.48302190  0.50420887  0.50984488  1  0  0.563774  0  3.007967  0  0  0.514636  0  3.509509  0  0  0.564614  0  3.449606  0  1.175608  0  0.737265  0.48942  0  3.54121  0
H  H2  1  0.24242097  0.80750670  0.19400664  1  0  0.339652  0  0.943576  0  0  0.312011  0  1.032105  0  0  0.321665  0  1.021329  0  0.608954  0  0.269403  0.305195  0  1.039574  0
H  H3  1  0.75708756  0.19231473  0.80562862  1  0  0.339361  0  0.945595  0  0  0.311292  0  1.035036  0  0  0.32115  0  1.023925  0  0.608693  0  0.268124  0.304255  0  1.042852  0
H  H4  1  0.97910441  0.78363564  0.95430374  1  0  0.087171  0  0.941069  0  0  0.095735  0  1.000067  0  0  0.09758  0  0.998315  0  0.108117  0  0.122745  0.09444  0  1.00141  0
H  H5  1  0.02065448  0.21537585  0.04587140  1  0  0.08622  0  0.941691  0  0  0.095246  0  1.000406  0  0  0.096715  0  0.999059  0  0.108623  0  0.122563  0.094307  0  1.001376  0
H  H6  1  0.14468821  0.03573464  0.12509068  1  0  0.080649  0  0.982506  0  0  0.084583  0  1.054533  0  0  0.086143  0  1.053309  0  0.157167  0  0.116049  0.083504  0  1.055422  0
H  H7  1  0.85567656  0.96357409  0.87477028  1  0  0.080858  0  0.982853  0  0  0.084974  0  1.054564  0  0  0.086396  0  1.053509  0  0.15254  0  0.116185  0.083994  0  1.05538  0
H  H8  1  0.98905859  0.06451171  0.39995396  1  0  0.11519  0  0.947557  0  0  0.1243  0  1.00973  0  0  0.127288  0  1.00879  0  0.081661  0  0.104292  0.122194  0  1.010449  0
H  H9  1  0.01083183  0.93445732  0.60069043  1  0  0.114731  0  0.947578  0  0  0.123939  0  1.009812  0  0  0.12667  0  1.009151  0  0.126388  0  0.104099  0.122081  0  1.01021  0
H  H10  1  0.40964544  0.66923508  0.37444793  1  0  0.094693  0  0.932236  0  0  0.102839  0  0.991723  0  0  0.104889  0  0.989419  0  0.15289  0  0.125218  0.101134  0  0.993978  0
H  H11  1  0.59913827  0.32857330  0.63435460  1  0  0.090063  0  0.924759  0  0  0.099127  0  0.983799  0  0  0.10032  0  0.983234  0  0.114942  0  0.123591  0.09834  0  0.98439  0
H  H12  1  0.48467856  0.16940929  0.88325501  1  0  0.112208  0  0.952338  0  0  0.121255  0  1.010159  0  0  0.125143  0  1.006051  0  0.136818  0  0.108691  0.118274  0  1.013344  0
H  H13  1  0.51501632  0.83079351  0.11623421  1  0  0.111672  0  0.952377  0  0  0.120361  0  1.010703  0  0  0.124105  0  1.006654  0  0.132829  0  0.108477  0.11752  0  1.013827  0
H  H14  1  0.28625729  0.94285076  0.60108325  1  0  0.126457  0  0.973593  0  0  0.129379  0  1.043626  0  0  0.132535  0  1.042667  0  0.160192  0  0.104907  0.126958  0  1.044719  0
H  H15  1  0.71402428  0.05561658  0.39898544  1  0  0.128577  0  0.968838  0  0  0.132262  0  1.037774  0  0  0.135425  0  1.036572  0  0.155946  0  0.105674  0.129787  0  1.039107  0
H  H16  1  0.22776784  0.75692744  0.60963403  1  0  0.097102  0  0.951899  0  0  0.107397  0  1.011392  0  0  0.108902  0  1.011233  0  0.103296  0  0.106664  0.106286  0  1.011647  0
H  H17  1  0.77145791  0.24163898  0.39055843  1  0  0.097327  0  0.950308  0  0  0.106331  0  1.011395  0  0  0.108444  0  1.010552  0  0.10573  0  0.105638  0.104592  0  1.012356  0
H  H18  1  0.34692155  0.10939705  0.08471900  1  0  0.110676  0  0.939657  0  0  0.122306  0  0.99259  0  0  0.12457  0  0.99346  0  0.088698  0  0.111479  0.120755  0  0.991993  0
H  H19  1  0.65323174  0.89063276  0.91484572  1  0  0.110607  0  0.940062  0  0  0.122502  0  0.992734  0  0  0.124612  0  0.993774  0  0.089997  0  0.111453  0.121057  0  0.991989  0
H  H20  1  0.01709341  0.64679595  0.49254101  1  0  0.111161  0  0.956904  0  0  0.115827  0  1.024663  0  0  0.119838  0  1.020019  0  0.147132  0  0.107302  0.112628  0  1.028521  0
H  H21  1  0.99294085  0.35504638  0.49277452  1  0  0.109763  0  0.958462  0  0  0.114661  0  1.02556  0  0  0.117783  0  1.022787  0  0.150365  0  0.10854  0.112574  0  1.027274  0
H  H22  1  0.40782917  0.14863328  0.73437303  1  0  0.116855  0  0.979863  0  0  0.120112  0  1.051426  0  0  0.123352  0  1.050374  0  0.14508  0  0.102348  0.117695  0  1.052432  0
H  H23  1  0.59176547  0.85106390  0.26528451  1  0  0.116758  0  0.97812  0  0  0.120209  0  1.049278  0  0  0.123455  0  1.048102  0  0.146996  0  0.102722  0.117775  0  1.050447  0
H  H24  1  0.06921855  0.91376545  0.28542836  1  0  0.109586  0  0.98263  0  0  0.113114  0  1.054989  0  0  0.115854  0  1.054601  0  0.094897  0  0.095604  0.111032  0  1.055566  0
H  H25  1  0.93045816  0.08535377  0.71505432  1  0  0.10912  0  0.982218  0  0  0.112524  0  1.054829  0  0  0.11523  0  1.054387  0  0.084578  0  0.095398  0.110521  0  1.055383  0
H  H26  1  0.06941779  0.67466479  0.79221187  1  0  0.101111  0  0.943256  0  0  0.112131  0  0.998534  0  0  0.114483  0  0.998942  0  0.058179  0  0.105966  0.110555  0  0.998274  0
H  H27  1  0.92998053  0.32422639  0.20801790  1  0  0.100569  0  0.944109  0  0  0.111021  0  1.00011  0  0  0.113496  0  1.000527  0  0.066856  0  0.105448  0.109311  0  0.999888  0
H  H28  1  0.52607775  0.55288754  0.70142393  1  0  0.100728  0  0.920292  0  0  0.107753  0  0.978597  0  0  0.110423  0  0.975394  0  0.12111  0  0.128581  0.105576  0  0.981441  0
H  H29  1  0.47006660  0.45660514  0.28807153  1  0  0.093941  0  0.915507  0  0  0.103235  0  0.971432  0  0  0.104887  0  0.970162  0  0.145636  0  0.127673  0.102101  0  0.972507  0
H  H30  1  0.42565881  0.95509257  0.28183749  1  0  0.104476  0  0.976616  0  0  0.113469  0  1.040941  0  0  0.116317  0  1.040334  0  0.074455  0  0.097568  0.111398  0  1.041539  0
H  H31  1  0.57440507  0.04426255  0.71770454  1  0  0.104887  0  0.975616  0  0  0.114364  0  1.039391  0  0  0.117109  0  1.0388  0  0.076985  0  0.097957  0.112373  0  1.040012  0
H  H32  1  0.02766730  0.49249312  0.62536629  1  0  0.125114  0  0.93324  0  0  0.134302  0  0.991355  0  0  0.137525  0  0.990521  0  0.105958  0  0.113209  0.131924  0  0.992131  0
H  H33  1  0.97061296  0.50960320  0.36576377  1  0  0.121373  0  0.93954  0  0  0.13133  0  0.997831  0  0  0.13381  0  0.997746  0  0.082561  0  0.111227  0.129688  0  0.997819  0
H  H34  1  0.21235801  0.43849406  0.99540406  1  0  0.097014  0  0.927188  0  0  0.110089  0  0.978804  0  0  0.113741  0  0.974822  0  0.058834  0  0.110779  0.107117  0  0.982249  0
H  H35  1  0.80057572  0.55730679  0.00436946  1  0  0.09559  0  0.92626  0  0  0.109896  0  0.976498  0  0  0.11228  0  0.974997  0  0.065717  0  0.112356  0.108228  0  0.977516  0
H  H36  1  0.12259356  0.38624067  0.86451861  1  0  0.126514  0  0.936753  0  0  0.133283  0  0.999635  0  0  0.136796  0  0.998145  0  0.121671  0  0.112622  0.130725  0  1.00088  0
H  H37  1  0.88057738  0.60869520  0.14213997  1  0  0.124117  0  0.940587  0  0  0.130885  0  1.00415  0  0  0.133709  0  1.003447  0  0.107298  0  0.111393  0.128968  0  1.004633  0
H  H38  1  0.21639650  0.73507807  0.36406884  1  0  0.10679  0  0.998041  0  0  0.112848  0  1.062815  0  0  0.11572  0  1.062668  0  0.118036  0  0.103708  0.110652  0  1.063248  0
H  H39  1  0.80112240  0.26250935  0.62856856  1  0  0.105562  0  0.993713  0  0  0.11136  0  1.059807  0  0  0.113677  0  1.060199  0  0.111007  0  0.103749  0.109729  0  1.059628  0
H  H40  1  0.34559440  0.10492668  0.39713420  1  0  0.107326  0  0.978124  0  0  0.112431  0  1.046367  0  0  0.115965  0  1.044395  0  0.10895  0  0.09407  0.109798  0  1.047913  0
H  H41  1  0.65449305  0.89408481  0.60312377  1  0  0.105729  0  0.981638  0  0  0.111377  0  1.049354  0  0  0.114771  0  1.04754  0  0.102701  0  0.093139  0.108746  0  1.050862  0
H  H42  1  0.41893156  0.52467270  0.90977263  1  0  0.108147  0  0.933122  0  0  0.120364  0  0.984011  0  0  0.123467  0  0.983486  0  0.082195  0  0.113695  0.118028  0  0.984856  0
H  H43  1  0.59131050  0.47782308  0.07987340  1  0  0.107596  0  0.93477  0  0  0.120323  0  0.985434  0  0  0.122668  0  0.985839  0  0.087542  0  0.114058  0.118765  0  0.985236  0
C  C44  1  0.18968596  0.14437994  0.69343969  1  0  0.595976  0  3.818359  0  0  0.543269  0  4.107772  0  0  0.57212  0  4.111142  0  1.568456  0  0.363299  0.523665  0  4.105526  0
C  C45  1  0.80859366  0.85465278  0.30754892  1  0  0.593904  0  3.823428  0  0  0.54105  0  4.112838  0  0  0.569672  0  4.116698  0  1.6069  0  0.361876  0.521635  0  4.110191  0
C  C46  1  0.92581798  0.19423419  0.88294305  1  0  0.271336  0  3.992026  0  0  0.262837  0  4.298905  0  0  0.283911  0  4.309818  0  0.530989  0  0.135589  0.248895  0  4.290805  0
C  C47  1  0.07323896  0.80483706  0.11808103  1  0  0.268486  0  3.991466  0  0  0.259812  0  4.298646  0  0  0.281042  0  4.309183  0  0.54402  0  0.134689  0.245684  0  4.290935  0
C  C48  1  0.16029116  0.96068034  0.77083970  1  0  0.366857  0  3.677896  0  0  0.341621  0  3.934335  0  0  0.357937  0  3.947897  0  0.826827  0  0.231439  0.330492  0  3.925601  0
C  C49  1  0.83994878  0.03799538  0.22915335  1  0  0.366784  0  3.678166  0  0  0.342205  0  3.93393  0  0  0.358465  0  3.947811  0  0.815773  0  0.231863  0.331112  0  3.924961  0
C  C50  1  0.14862254  0.20128220  0.54559492  1  0  0.662448  0  3.799851  0  0  0.613279  0  4.095206  0  0  0.644671  0  4.091543  0  1.705352  0  0.349104  0.592098  0  4.097608  0
C  C51  1  0.84947101  0.79788892  0.45557369  1  0  0.662118  0  3.803595  0  0  0.613009  0  4.099738  0  0  0.643831  0  4.097198  0  1.722019  0  0.348359  0.592285  0  4.101021  0
C  C52  1  0.19854131  0.31607514  0.63603849  1  0  0.599753  0  3.815645  0  0  0.548359  0  4.10747  0  0  0.576503  0  4.111692  0  1.580619  0  0.361858  0.529426  0  4.104373  0
C  C53  1  0.79416523  0.68352768  0.36825109  1  0  0.601178  0  3.818794  0  0  0.549345  0  4.111123  0  0  0.577571  0  4.114814  0  1.594528  0  0.36144  0.530308  0  4.108565  0
C  C54  1  0.22209181  0.50097071  0.56622864  1  0  0.357482  0  3.712941  0  0  0.331943  0  3.973225  0  0  0.349939  0  3.986553  0  0.870685  0  0.223798  0.319725  0  3.964606  0
C  C55  1  0.77452917  0.49873985  0.43726603  1  0  0.365604  0  3.74752  0  0  0.340165  0  4.010653  0  0  0.354761  0  4.026938  0  0.899599  0  0.229162  0.330515  0  3.999355  0
C  C56  1  0.04545388  0.81606213  0.87364062  1  0  0.11709  0  3.684541  0  0  0.084945  0  3.94182  0  0  0.094248  0  3.957694  0  0.409603  0  0.042369  0.07799  0  3.932359  0
C  C57  1  0.95437918  0.18282826  0.12651918  1  0  0.117744  0  3.682155  0  0  0.086264  0  3.939084  0  0  0.095223  0  3.955691  0  0.39622  0  0.043422  0.079539  0  3.929139  0
C  C58  1  0.16281597  0.09445807  0.40352126  1  0  0.246973  0  3.786826  0  0  0.235044  0  4.052568  0  0  0.242472  0  4.068959  0  0.293026  0  0.067519  0.229816  0  4.041446  0
C  C59  1  0.83727618  0.90460453  0.59672060  1  0  0.246386  0  3.789518  0  0  0.235256  0  4.054277  0  0  0.242712  0  4.07071  0  0.31378  0  0.066341  0.229891  0  4.043073  0
C  C60  1  0.23738347  0.08467909  0.85328864  1  0  0.366989  0  3.688127  0  0  0.342171  0  3.94529  0  0  0.358798  0  3.959149  0  0.880441  0  0.229785  0.330769  0  3.936378  0
C  C61  1  0.76256720  0.91441969  0.14661289  1  0  0.368654  0  3.686223  0  0  0.341885  0  3.944561  0  0  0.358703  0  3.958222  0  0.893405  0  0.229528  0.330274  0  3.935884  0
C  C62  1  0.20522153  0.06374267  0.04029732  1  0  0.120968  0  3.675353  0  0  0.087248  0  3.935359  0  0  0.096928  0  3.950935  0  0.393295  0  0.040158  0.080199  0  3.926189  0
C  C63  1  0.79500523  0.93561403  0.95951925  1  0  0.121299  0  3.675971  0  0  0.087398  0  3.935297  0  0  0.09693  0  3.95119  0  0.38417  0  0.040994  0.080377  0  3.925997  0
C  C64  1  0.08498729  0.04125714  0.37292395  1  0  -0.139678  0  3.761613  0  0  -0.164128  0  4.019862  0  0  -0.165196  0  4.03809  0  0.011097  0  -0.100499  -0.163139  0  4.007219  0
C  C65  1  0.91494094  0.95781254  0.62749169  1  0  -0.140074  0  3.761865  0  0  -0.164456  0  4.019538  0  0  -0.165753  0  4.038325  0  -0.000681  0  -0.099998  -0.163189  0  4.00642  0
C  C66  1  0.32320379  0.63138989  0.42691306  1  0  0.117103  0  3.656042  0  0  0.084424  0  3.916589  0  0  0.095722  0  3.930447  0  0.404035  0  0.043916  0.0748  0  3.910501  0
C  C67  1  0.68387316  0.36718990  0.57766108  1  0  0.123678  0  3.693251  0  0  0.09427  0  3.951471  0  0  0.100635  0  3.971017  0  0.390917  0  0.052325  0.089431  0  3.938638  0
C  C68  1  0.39353980  0.13899348  0.90575384  1  0  -0.007345  0  3.721221  0  0  -0.024425  0  3.967579  0  0  -0.018734  0  3.983705  0  -0.059119  0  -0.071131  -0.028017  0  3.956539  0
C  C69  1  0.60626991  0.86088299  0.09385799  1  0  -0.00603  0  3.719747  0  0  -0.022943  0  3.966365  0  0  -0.016935  0  3.982063  0  -0.035741  0  -0.071818  -0.026852  0  3.955734  0
C  C70  1  0.21615941  0.90534291  0.67648095  1  0  -0.162955  0  3.696152  0  0  -0.184182  0  3.950044  0  0  -0.191639  0  3.967108  0  0.019433  0  -0.073599  -0.179819  0  3.939503  0
C  C71  1  0.78387936  0.09326204  0.32357035  1  0  -0.164603  0  3.698889  0  0  -0.186315  0  3.952775  0  0  -0.193921  0  3.969871  0  0.086642  0  -0.07339  -0.181779  0  3.942223  0
C  C72  1  0.18356563  0.80156665  0.68225690  1  0  0.009335  0  3.71706  0  0  -0.008931  0  3.964058  0  0  -0.002589  0  3.980541  0  -0.005437  0  -0.067105  -0.013175  0  3.953078  0
C  C73  1  0.81609676  0.19711300  0.31790711  1  0  0.010367  0  3.719256  0  0  -0.008009  0  3.9671  0  0  -0.001232  0  3.982357  0  -0.067936  0  -0.066781  -0.012698  0  3.957341  0
C  C74  1  0.31839783  0.10539848  0.01659724  1  0  -0.121742  0  3.748376  0  0  -0.133708  0  3.995742  0  0  -0.141441  0  4.01639  0  -0.018192  0  -0.084403  -0.128476  0  3.981441  0
C  C75  1  0.68166686  0.89438127  0.98306121  1  0  -0.121909  0  3.747688  0  0  -0.134068  0  3.994863  0  0  -0.141794  0  4.015595  0  -0.00573  0  -0.084427  -0.12881  0  3.980542  0
C  C76  1  0.25406647  0.92618812  0.27305966  1  0  0.30545  0  3.842457  0  0  0.298267  0  4.103846  0  0  0.307624  0  4.121724  0  0.436709  0  0.067452  0.291817  0  4.091415  0
C  C77  1  0.74583911  0.07334472  0.72665934  1  0  0.307146  0  3.84477  0  0  0.299727  0  4.106283  0  0  0.309452  0  4.1236  0  0.445886  0  0.068263  0.292935  0  4.094379  0
C  C78  1  0.10427846  0.61893183  0.49340884  1  0  0.004507  0  3.705262  0  0  -0.013951  0  3.953633  0  0  -0.004666  0  3.965205  0  -0.07329  0  -0.069623  -0.021452  0  3.947376  0
C  C79  1  0.90302613  0.38181355  0.49773773  1  0  0.005622  0  3.706447  0  0  -0.008638  0  3.948278  0  0  -0.005793  0  3.968046  0  -0.071104  0  -0.064431  -0.010401  0  3.934223  0
C  C80  1  0.35243670  0.12753723  0.82294953  1  0  -0.168741  0  3.69536  0  0  -0.18881  0  3.948569  0  0  -0.197346  0  3.967093  0  -0.016862  0  -0.079112  -0.183546  0  3.93675  0
C  C81  1  0.64731532  0.87204200  0.17675840  1  0  -0.170213  0  3.696621  0  0  -0.19017  0  3.950645  0  0  -0.19835  0  3.968461  0  -0.049707  0  -0.079499  -0.185275  0  3.939525  0
C  C82  1  0.27886417  0.43942823  0.71854118  1  0  0.369928  0  3.687613  0  0  0.344175  0  3.945901  0  0  0.362957  0  3.958572  0  0.806431  0  0.229057  0.330941  0  3.938333  0
C  C83  1  0.71561785  0.56118898  0.28376183  1  0  0.378473  0  3.712628  0  0  0.353414  0  3.972493  0  0  0.368411  0  3.988442  0  0.830044  0  0.235918  0.342963  0  3.962177  0
C  C84  1  0.13067348  0.95640341  0.30799794  1  0  -0.203481  0  3.764051  0  0  -0.220594  0  4.019362  0  0  -0.225774  0  4.039627  0  -0.046182  0  -0.116736  -0.21695  0  4.005546  0
C  C85  1  0.86913294  0.04279130  0.69224467  1  0  -0.206033  0  3.765745  0  0  -0.222788  0  4.021449  0  0  -0.227874  0  4.04146  0  -0.051248  0  -0.117756  -0.219219  0  4.007801  0
C  C86  1  0.09669034  0.75618671  0.78307752  1  0  -0.128778  0  3.767066  0  0  -0.141802  0  4.018388  0  0  -0.149571  0  4.039103  0  0.018139  0  -0.08694  -0.136606  0  4.004384  0
C  C87  1  0.90292497  0.24263921  0.21712633  1  0  -0.129153  0  3.764072  0  0  -0.141863  0  4.015265  0  0  -0.149449  0  4.035558  0  0.03083  0  -0.088105  -0.13689  0  4.001781  0
C  C88  1  0.43787150  0.51439361  0.74226408  1  0  0.126209  0  3.651633  0  0  0.093231  0  3.911431  0  0  0.105088  0  3.92441  0  0.481717  0  0.04779  0.08412  0  3.904867  0
C  C89  1  0.56057675  0.49155187  0.25080006  1  0  0.130795  0  3.689025  0  0  0.100174  0  3.946934  0  0  0.107294  0  3.96568  0  0.426642  0  0.055593  0.09517  0  3.934526  0
C  C90  1  0.33052916  0.97972246  0.30647230  1  0  -0.17599  0  3.756852  0  0  -0.194171  0  4.006103  0  0  -0.199022  0  4.026556  0  0.016402  0  -0.109419  -0.190862  0  3.992273  0
C  C91  1  0.66948912  0.01956268  0.69332483  1  0  -0.175308  0  3.756641  0  0  -0.193978  0  4.00623  0  0  -0.198603  0  4.026322  0  0.009351  0  -0.109475  -0.190844  0  3.992698  0
C  C92  1  0.10922749  0.53426925  0.56689669  1  0  -0.172358  0  3.70866  0  0  -0.192568  0  3.960635  0  0  -0.200841  0  3.976701  0  0.024222  0  -0.076765  -0.187337  0  3.950452  0
C  C93  1  0.89158480  0.46683156  0.42746807  1  0  -0.181115  0  3.706581  0  0  -0.19866  0  3.952744  0  0  -0.207264  0  3.974113  0  0.007489  0  -0.077097  -0.192599  0  3.937434  0
C  C94  1  0.26251898  0.45065094  0.90493708  1  0  -0.007247  0  3.754659  0  0  -0.027485  0  4.007833  0  0  -0.018013  0  4.019764  0  -0.080649  0  -0.072261  -0.034718  0  4.001094  0
C  C95  1  0.74486377  0.54744289  0.09417904  1  0  -0.00135  0  3.75406  0  0  -0.019272  0  4.001391  0  0  -0.01566  0  4.021229  0  0.011786  0  -0.065486  -0.021643  0  3.987776  0
C  C96  1  0.21240903  0.42172840  0.83388016  1  0  -0.170268  0  3.705142  0  0  -0.192101  0  3.961531  0  0  -0.199875  0  3.976527  0  0.069084  0  -0.077693  -0.187449  0  3.952589  0
C  C97  1  0.78978348  0.57590148  0.16924460  1  0  -0.174234  0  3.697196  0  0  -0.194058  0  3.949013  0  0  -0.202081  0  3.968927  0  0.054675  0  -0.075522  -0.188733  0  3.935591  0
C  C98  1  0.51094013  0.74156856  0.50673807  1  0  0.266782  0  4.029345  0  0  0.258497  0  4.339492  0  0  0.28215  0  4.352183  0  0.445203  0  0.132668  0.242987  0  4.328822  0
C  C99  1  0.47850590  0.26547937  0.50068959  1  0  0.268788  0  4.032653  0  0  0.260391  0  4.342014  0  0  0.283991  0  4.354105  0  0.405692  0  0.129866  0.2449  0  4.332215  0
C  C100  1  0.21401559  0.66792660  0.42258969  1  0  -0.117128  0  3.739477  0  0  -0.130606  0  3.989977  0  0  -0.13823  0  4.007822  0  -0.058388  0  -0.084956  -0.12573  0  3.979639  0
C  C101  1  0.79696948  0.33051715  0.57342756  1  0  -0.119528  0  3.730469  0  0  -0.131275  0  3.976409  0  0  -0.138635  0  3.999452  0  0.077539  0  -0.083256  -0.126312  0  3.961031  0
C  C102  1  0.28533835  0.06408079  0.37120822  1  0  -0.153248  0  3.783919  0  0  -0.172758  0  4.033809  0  0  -0.174435  0  4.05234  0  0.015728  0  -0.102973  -0.171478  0  4.021453  0
C  C103  1  0.71475070  0.93500540  0.62895720  1  0  -0.154203  0  3.785411  0  0  -0.173931  0  4.034769  0  0  -0.175554  0  4.053298  0  -0.02368  0  -0.104395  -0.172594  0  4.022484  0
C  C104  1  0.37714688  0.49839071  0.85764616  1  0  -0.122951  0  3.76639  0  0  -0.137519  0  4.019826  0  0  -0.144935  0  4.037206  0  -0.00721  0  -0.08254  -0.133112  0  4.009722  0
C  C105  1  0.62850959  0.50348072  0.13578193  1  0  -0.126926  0  3.762521  0  0  -0.14031  0  4.011456  0  0  -0.147942  0  4.034596  0  -0.012823  0  -0.080229  -0.135276  0  3.995869  0
S  S106  1  0.87889494  0.29990554  0.83054760  1  0  -0.412498  0  1.959356  0  0  -0.395759  0  2.217564  0  0  -0.409929  0  2.209523  0  0.009052  0  -0.207554  -0.384854  0  2.222608  0
S  S107  1  0.11886476  0.69919324  0.17172619  1  0  -0.413419  0  1.958333  0  0  -0.396047  0  2.216996  0  0  -0.410643  0  2.208766  0  -0.000932  0  -0.207195  -0.384687  0  2.222162  0
S  S108  1  0.51415656  0.86862219  0.48767778  1  0  -0.342678  0  2.066365  0  0  -0.327821  0  2.365816  0  0  -0.344025  0  2.361133  0  0.082739  0  -0.165273  -0.314189  0  2.367676  0
S  S109  1  0.48764637  0.13830465  0.51239520  1  0  -0.357174  0  2.05917  0  0  -0.341401  0  2.357723  0  0  -0.356888  0  2.352506  0  0.096973  0  -0.174124  -0.328743  0  2.360222  0
N  N110  1  0.19667049  0.06454710  0.77003285  1  0  -0.320009  0  3.41282  0  0  -0.247325  0  3.642739  0  0  -0.268735  0  3.655351  0  -1.224477  0  -0.228056  -0.232609  0  3.634008  0
N  N111  1  0.80337039  0.93421827  0.22991692  1  0  -0.320917  0  3.414423  0  0  -0.246449  0  3.643096  0  0  -0.267818  0  3.655425  0  -1.219705  0  -0.228149  -0.231616  0  3.634248  0
N  N112  1  0.96065215  0.11610378  0.91809925  1  0  -0.459099  0  3.232769  0  0  -0.442217  0  3.542477  0  0  -0.459519  0  3.549072  0  -1.287499  0  -0.418126  -0.431362  0  3.536262  0
N  N113  1  0.03936168  0.88293445  0.08200660  1  0  -0.455332  0  3.231618  0  0  -0.438391  0  3.541382  0  0  -0.455479  0  3.547825  0  -1.29151  0  -0.416957  -0.427752  0  3.535402  0
N  N114  1  0.07451414  0.91816426  0.86828719  1  0  -0.279189  0  3.316358  0  0  -0.231501  0  3.584668  0  0  -0.252289  0  3.601463  0  -1.181748  0  -0.329157  -0.218362  0  3.572397  0
N  N115  1  0.92560894  0.08067188  0.13174987  1  0  -0.278288  0  3.316799  0  0  -0.232219  0  3.586458  0  0  -0.253261  0  3.60359  0  -1.182358  0  -0.330045  -0.218973  0  3.574047  0
N  N116  1  0.22726745  0.41734689  0.64389491  1  0  -0.337406  0  3.430457  0  0  -0.266254  0  3.66462  0  0  -0.287764  0  3.675667  0  -1.228973  0  -0.236708  -0.251352  0  3.656837  0
N  N117  1  0.76171628  0.58314057  0.36294508  1  0  -0.341022  0  3.412476  0  0  -0.270432  0  3.648628  0  0  -0.291604  0  3.661772  0  -1.222248  0  -0.234127  -0.255858  0  3.639338  0
N  N118  1  0.16482810  0.30212775  0.55288950  1  0  -0.568823  0  2.958161  0  0  -0.545147  0  3.239265  0  0  -0.565855  0  3.242826  0  -1.213173  0  -0.339929  -0.531532  0  3.23693  0
N  N119  1  0.82933594  0.69744126  0.45062338  1  0  -0.571422  0  2.955664  0  0  -0.547234  0  3.236415  0  0  -0.568401  0  3.240677  0  -1.221518  0  -0.341033  -0.533137  0  3.233445  0
N  N120  1  0.21225718  0.24137005  0.70884030  1  0  -0.560237  0  3.031677  0  0  -0.528815  0  3.314041  0  0  -0.551141  0  3.322674  0  -1.234943  0  -0.332922  -0.51394  0  3.308374  0
N  N121  1  0.78231456  0.75811089  0.29431486  1  0  -0.565474  0  3.033785  0  0  -0.533522  0  3.316739  0  0  -0.555749  0  3.325167  0  -1.244728  0  -0.335013  -0.51871  0  3.311316  0
N  N122  1  0.16302030  0.05496785  0.96052639  1  0  -0.283973  0  3.338873  0  0  -0.239301  0  3.61183  0  0  -0.260617  0  3.628642  0  -1.178511  0  -0.33637  -0.225931  0  3.599517  0
N  N123  1  0.83713064  0.94408139  0.03940626  1  0  -0.28443  0  3.339738  0  0  -0.238321  0  3.611795  0  0  -0.25972  0  3.628574  0  -1.174784  0  -0.336515  -0.224901  0  3.599521  0
N  N124  1  0.15713401  0.11885441  0.61310746  1  0  -0.571416  0  3.006079  0  0  -0.535747  0  3.282094  0  0  -0.558147  0  3.28933  0  -1.176043  0  -0.330921  -0.521019  0  3.27755  0
N  N125  1  0.84316252  0.88001003  0.38669623  1  0  -0.57319  0  3.008549  0  0  -0.537981  0  3.286007  0  0  -0.561119  0  3.294132  0  -1.236355  0  -0.331263  -0.522488  0  3.280537  0
N  N126  1  0.51082938  0.64810757  0.51839116  1  0  -0.498804  0  3.209221  0  0  -0.480217  0  3.530608  0  0  -0.503774  0  3.534351  0  -1.256982  0  -0.434814  -0.464364  0  3.524952  0
N  N127  1  0.47038936  0.35868480  0.49366457  1  0  -0.496717  0  3.207269  0  0  -0.47834  0  3.526591  0  0  -0.501221  0  3.529894  0  -1.239183  0  -0.433186  -0.463429  0  3.522053  0
N  N128  1  0.32932519  0.54756320  0.49746001  1  0  -0.275344  0  3.311907  0  0  -0.228781  0  3.593379  0  0  -0.254379  0  3.608978  0  -1.153266  0  -0.325753  -0.212747  0  3.582088  0
N  N129  1  0.67245054  0.45140426  0.51168989  1  0  -0.305345  0  3.166818  0  0  -0.258631  0  3.431965  0  0  -0.280975  0  3.449765  0  -1.224657  0  -0.282521  -0.243173  0  3.419186  0
N  N130  1  0.39138543  0.48351779  0.67184931  1  0  -0.271915  0  3.305429  0  0  -0.223743  0  3.583893  0  0  -0.248747  0  3.599049  0  -1.146842  0  -0.32705  -0.208477  0  3.573296  0
N  N131  1  0.60233854  0.52195510  0.32371945  1  0  -0.294654  0  3.17369  0  0  -0.247255  0  3.439302  0  0  -0.269472  0  3.456342  0  -1.195341  0  -0.285079  -0.232476  0  3.427607  0
O  O132  1  0.11818530  0.18533041  0.46005449  1  0  -0.326139  0  2.294637  0  0  -0.257305  0  2.5197  0  0  -0.275277  0  2.515839  0  -1.094289  0  -0.140207  -0.244833  0  2.52221  0
O  O133  1  0.88186026  0.81390597  0.53998347  1  0  -0.327606  0  2.29557  0  0  -0.258873  0  2.520516  0  0  -0.277103  0  2.516966  0  -1.09421  0  -0.140601  -0.245747  0  2.522406  0
O  O134  1  0.30518137  0.84552017  0.20690329  1  0  -0.524551  0  2.146584  0  0  -0.473102  0  2.352812  0  0  -0.491076  0  2.343818  0  -1.172116  0  -0.362155  -0.45998  0  2.358563  0
O  O135  1  0.69465993  0.15444437  0.79209458  1  0  -0.52633  0  2.147331  0  0  -0.475089  0  2.354726  0  0  -0.4931  0  2.345394  0  -1.1719  0  -0.363022  -0.461944  0  2.360864  0
