# generated using pymatgen
data_Zn3H17C34I9O16
_symmetry_space_group_name_H-M   'P 1'
_cell_length_a   18.40228684
_cell_length_b   18.78449555
_cell_length_c   18.98329633
_cell_angle_alpha   110.76008790
_cell_angle_beta   109.14230974
_cell_angle_gamma   108.97031703
_symmetry_Int_Tables_number   1
_chemical_formula_structural   Zn3H17C34I9O16
_chemical_formula_sum   'Zn6 H34 C68 I18 O32'
_cell_volume   5021.56425852
_cell_formula_units_Z   2
loop_
 _symmetry_equiv_pos_site_id
 _symmetry_equiv_pos_as_xyz
  1  'x, y, z'
loop_
 _atom_site_type_symbol
 _atom_site_label
 _atom_site_symmetry_multiplicity
 _atom_site_fract_x
 _atom_site_fract_y
 _atom_site_fract_z
 _atom_site_occupancy
 _atom_site_pbe_bader_charge
 _atom_site_pbe_bader_spin_density
 _atom_site_pbe_cm5_charge
 _atom_site_pbe_ddec_charge
 _atom_site_pbe_ddec_spin_density
 _atom_site_pbe_ddec_sum_bond_order
 _atom_site_pbe_magmom
Zn  Zn0  1  0.51650347  0.56711298  0.56964744  1  1.309197  0  0.708638  0.94431  0  2.170123  0
Zn  Zn1  1  0.51798961  0.44601018  0.43672841  1  1.319443  0  0.72523  0.978175  0  2.107664  0
Zn  Zn2  1  0.07271950  0.01047328  0.57193938  1  1.308318  0  0.7067  0.942111  0  2.165795  0
Zn  Zn3  1  0.94283467  0.00665229  0.44189167  1  1.315003  0  0.725048  0.960897  0  2.127957  0
Zn  Zn4  1  0.04460628  0.54786580  0.01471871  1  1.305626  0  0.722489  0.961196  0  2.158095  0
Zn  Zn5  1  0.91207057  0.41352849  0.00010644  1  1.296543  0  0.726629  0.9588  0  2.066816  0
H  H6  1  0.81533721  0.70474991  0.43559346  1  0.107226  0  0.116139  0.132024  0  0.950155  0
H  H7  1  0.26041286  0.69304716  0.30119957  1  0.044402  0  0.083774  0.028049  0  1.048401  0
H  H8  1  0.32825001  0.66744128  0.41920856  1  0.08606  0  0.096015  0.105224  0  0.998615  0
H  H9  1  0.33055974  0.47788004  0.67742692  1  0.087158  0  0.103119  0.069863  0  0.995957  0
H  H10  1  0.62483133  0.54386539  0.76410145  1  0.120776  0  0.108763  0.134599  0  0.959243  0
H  H11  1  0.15013124  0.73029927  0.27909971  1  0.085906  0  0.102799  0.117395  0  0.994478  0
H  H12  1  0.10231267  0.25703194  0.92343975  1  0.10825  0  0.077173  0.080093  0  1.081979  0
H  H13  1  0.15930662  0.25144770  0.78681801  1  0.129471  0  0.084738  0.10486  0  1.044116  0
H  H14  1  0.91247401  0.86304963  0.68968494  1  0.147997  0  0.110483  0.126835  0  0.966482  0
H  H15  1  0.25421031  0.35062055  0.22044804  1  0.08493  0  0.109182  0.125472  0  0.99075  0
H  H16  1  0.20477384  0.07397425  0.32437847  1  0.027955  0  0.085678  0.083865  0  1.02357  0
H  H17  1  0.11796288  0.04841176  0.35115578  1  0.07432  0  0.097023  0.107852  0  0.990572  0
H  H18  1  0.16593432  0.97883326  0.33460394  1  0.093077  0  0.104913  0.120264  0  1.007956  0
H  H19  1  0.12045802  0.43689484  0.60726352  1  0.084401  0  0.101234  0.106809  0  1.008662  0
H  H20  1  0.11971080  0.40637338  0.68721491  1  0.087921  0  0.082604  0.090234  0  1.039131  0
H  H21  1  0.02152624  0.34696092  0.58144903  1  0.047087  0  0.104843  0.119263  0  0.98027  0
H  H22  1  0.33930525  0.57592882  0.62283576  1  0.031138  0  0.095516  0.097209  0  0.997348  0
H  H23  1  0.25494116  0.56349132  0.65307467  1  0.018713  0  0.09271  0.084269  0  0.999647  0
H  H24  1  0.23150378  0.55029380  0.54837601  1  0.057515  0  0.108045  0.116492  0  0.972252  0
H  H25  1  0.70696411  0.41266405  0.82928687  1  0.067595  0  0.094518  0.107738  0  1.01173  0
H  H26  1  0.61139531  0.42158507  0.77702502  1  0.044298  0  0.094198  0.095307  0  0.992566  0
H  H27  1  0.63560119  0.41725056  0.87432661  1  0.068995  0  0.100501  0.112855  0  0.991425  0
H  H28  1  0.80858232  0.82350072  0.18852748  1  0.055653  0  0.093854  0.105856  0  1.006737  0
H  H29  1  0.69846556  0.74425007  0.15449289  1  0.077297  0  0.10915  0.123235  0  0.963692  0
H  H30  1  0.75478002  0.71241309  0.09872541  1  0.075238  0  0.079001  0.076026  0  1.064563  0
H  H31  1  0.28210322  0.86167574  0.38978219  1  0.039432  0  0.095172  0.096211  0  0.997867  0
H  H32  1  0.29392534  0.92002674  0.49488935  1  0.085174  0  0.091532  0.101236  0  1.020834  0
H  H33  1  0.30383029  0.97339834  0.43360755  1  0.091842  0  0.110895  0.124947  0  0.985848  0
H  H34  1  0.74694017  0.18699575  0.76277615  1  0.077466  0  0.09535  0.10775  0  1.000322  0
H  H35  1  0.70532834  0.11872506  0.64798938  1  0.067018  0  0.085118  0.084793  0  1.033571  0
H  H36  1  0.67723799  0.20265135  0.68451991  1  0.075553  0  0.108444  0.121557  0  0.963775  0
H  H37  1  0.28240976  0.75281264  0.21684324  1  0.006663  0  0.085447  0.075854  0  1.003419  0
H  H38  1  0.28463099  0.66323529  0.14261145  1  0.082795  0  0.08917  0.098952  0  1.01572  0
H  H39  1  0.38012861  0.77182926  0.20770375  1  0.063799  0  0.105619  0.111502  0  0.972266  0
C  C40  1  0.39605678  0.48944687  0.37266319  1  1.570317  0  0.224609  0.616344  0  4.136518  0
C  C41  1  0.85417197  0.82592289  0.62488991  1  -0.063504  0  -0.076818  -0.10135  0  3.629255  0
C  C42  1  0.80447661  0.72431358  0.56157739  1  -0.127435  0  -0.031302  0.068714  0  3.551243  0
C  C43  1  0.71149039  0.71890784  0.54172716  1  0.016367  0  -0.007797  -0.067754  0  3.625325  0
C  C44  1  0.32508115  0.56741537  0.31568470  1  -0.000689  0  -0.003271  0.055219  0  3.876367  0
C  C45  1  0.32582282  0.49077901  0.30672089  1  0.007881  0  -0.002607  -0.030865  0  3.925786  0
C  C46  1  0.25510872  0.41177043  0.23047238  1  -0.007828  0  -0.083653  -0.128033  0  3.93698  0
C  C47  1  0.18433983  0.40964804  0.17023608  1  -0.181728  0  -0.038859  0.042386  0  3.873801  0
C  C48  1  0.18680977  0.48777344  0.17642103  1  0.066497  0  -0.015766  -0.091123  0  3.964458  0
C  C49  1  0.26271382  0.56572592  0.24789715  1  -0.032719  0  -0.00838  -0.005489  0  3.855761  0
C  C50  1  0.30507372  0.66642046  0.29642465  1  0.543384  0  0.006114  0.118046  0  3.862424  0
C  C51  1  0.63691710  0.64806579  0.53361808  1  1.587252  0  0.211926  0.613645  0  4.145071  0
C  C52  1  0.35860834  0.66269881  0.37794039  1  -0.135664  0  -0.104095  -0.10256  0  3.720128  0
C  C53  1  0.29528405  0.35017644  0.57011150  1  -0.029156  0  -0.006108  0.017008  0  3.906399  0
C  C54  1  0.34642379  0.33516119  0.53246310  1  0.091008  0  -0.01434  -0.073104  0  3.936852  0
C  C55  1  0.33102594  0.24790006  0.49542904  1  -0.202333  0  -0.040311  -0.048579  0  3.815733  0
C  C56  1  0.26448129  0.18074688  0.49307959  1  0.579285  0  0.086843  0.195721  0  4.015718  0
C  C57  1  0.21578832  0.19893658  0.53364643  1  0.020605  0  0.001627  -0.096119  0  3.897358  0
C  C58  1  0.23346855  0.28532204  0.57186141  1  -0.005258  0  -0.014839  -0.018271  0  3.967247  0
C  C59  1  0.20692226  0.34567651  0.61854668  1  0.53368  0  0.081617  0.182818  0  3.737738  0
C  C60  1  0.27563610  0.42118824  0.61350271  1  0.519662  0  0.00935  0.049732  0  3.848234  0
C  C61  1  0.73007713  0.53341823  0.73437323  1  -0.066537  0  -0.006531  0.077465  0  3.912452  0
C  C62  1  0.63981755  0.47630408  0.57849775  1  1.556918  0  0.208799  0.598222  0  4.1478  0
C  C63  1  0.71597543  0.48689075  0.65035543  1  0.079194  0  -0.018077  -0.090033  0  3.914011  0
C  C64  1  0.77538353  0.45495384  0.64493164  1  -0.188814  0  -0.041548  0.016521  0  3.81611  0
C  C65  1  0.84355215  0.46947659  0.72075333  1  -0.106117  0  -0.043132  0.002603  0  3.814019  0
C  C66  1  0.84838197  0.50716613  0.80221552  1  -0.004467  0  -0.002321  -0.030075  0  3.911158  0
C  C67  1  0.79036879  0.53867151  0.80575770  1  0.009855  0  -0.022691  -0.048627  0  3.947384  0
C  C68  1  0.76006846  0.58128147  0.86569691  1  0.473204  0  0.06573  0.216372  0  3.749855  0
C  C69  1  0.69513111  0.58051914  0.78454939  1  -0.145153  0  -0.10252  -0.13135  0  3.686126  0
C  C70  1  0.96964755  0.87707978  0.36838951  1  1.567309  0  0.224592  0.628695  0  4.123341  0
C  C71  1  0.91944072  0.90031296  0.54126129  1  1.563264  0  0.214638  0.609321  0  4.129739  0
C  C72  1  0.96273192  0.11548277  0.58576665  1  1.552467  0  0.213544  0.608462  0  4.135839  0
C  C73  1  0.40735303  0.40730981  0.52891199  1  1.555552  0  0.219039  0.618643  0  4.120409  0
C  C74  1  0.14506393  0.12617491  0.52889589  1  1.615244  0  0.234257  0.646044  0  4.113186  0
C  C75  1  0.94603523  0.33957933  0.88068270  1  1.589135  0  0.224504  0.633093  0  4.127007  0
C  C76  1  0.11459886  0.49268432  0.11703401  1  1.565293  0  0.21817  0.609956  0  4.160496  0
C  C77  1  0.93739330  0.56223457  0.11439396  1  1.56756  0  0.223689  0.620636  0  4.13035  0
C  C78  1  0.90752215  0.51247270  0.88262740  1  1.598257  0  0.21433  0.606341  0  4.160073  0
C  C79  1  0.02360211  0.77251880  0.31919768  1  -0.012537  0  -0.012725  -0.008452  0  3.926457  0
C  C80  1  0.95432747  0.79117440  0.30578473  1  0.04956  0  -0.007773  -0.121501  0  3.889182  0
C  C81  1  0.87025839  0.72171220  0.23316285  1  0.608853  0  0.09597  0.215429  0  3.988958  0
C  C82  1  0.86009548  0.64125197  0.17467206  1  -0.201739  0  -0.041407  -0.061678  0  3.838596  0
C  C83  1  0.93408729  0.63069619  0.18200559  1  0.017008  0  -0.011654  -0.065071  0  3.938269  0
C  C84  1  0.70842954  0.73238152  0.46320831  1  -0.131174  0  -0.036542  0.0467  0  3.556383  0
C  C85  1  0.01410168  0.69718656  0.25821198  1  0.078965  0  -0.01881  0.044767  0  3.974245  0
C  C86  1  0.10793608  0.71889418  0.30791931  1  -0.146185  0  -0.102444  -0.138717  0  3.718667  0
C  C87  1  0.12075852  0.80761738  0.37887377  1  0.498736  0  0.077327  0.217287  0  3.742406  0
C  C88  1  0.01589079  0.20684318  0.74169797  1  0.018209  0  -0.007965  0.052499  0  3.885515  0
C  C89  1  0.95008211  0.16867397  0.65545274  1  0.029253  0  -0.014914  -0.076246  0  3.930993  0
C  C90  1  0.87860368  0.18523298  0.64576802  1  -0.18971  0  -0.044618  -0.058935  0  3.835822  0
C  C91  1  0.87384592  0.23445973  0.71910295  1  0.575278  0  0.079896  0.186694  0  4.042644  0
C  C92  1  0.94410289  0.27598087  0.80471885  1  0.015888  0  -0.007559  -0.123281  0  3.922601  0
C  C93  1  0.01494854  0.26124252  0.81341398  1  0.000329  0  -0.014075  0.045542  0  3.92277  0
C  C94  1  0.10270594  0.27973285  0.87778681  1  -0.143452  0  -0.105063  -0.062212  0  3.729737  0
C  C95  1  0.79959145  0.73729836  0.48390941  1  -0.0132  0  -0.070656  -0.090511  0  3.615769  0
C  C96  1  0.10523587  0.22065262  0.79719664  1  -0.126147  0  -0.098467  -0.050305  0  3.69925  0
C  C97  1  0.84950468  0.83986774  0.54744997  1  0.025526  0  -0.003276  -0.013071  0  3.628264  0
C  C98  1  0.75708325  0.83482533  0.52630723  1  -0.14295  0  -0.045938  0.004536  0  3.553221  0
C  C99  1  0.76256700  0.82091192  0.60459781  1  -0.135332  0  -0.040002  0.046441  0  3.555639  0
C  C100  1  0.17915721  0.04649985  0.35914247  1  0.35533  0  -0.144159  -0.172521  0  3.86937  0
C  C101  1  0.09424005  0.38199534  0.61718499  1  0.344389  0  -0.144415  -0.176813  0  3.877862  0
C  C102  1  0.26760148  0.53954694  0.59869430  1  0.450404  0  -0.140359  -0.176327  0  3.950003  0
C  C103  1  0.66490711  0.44078115  0.83974103  1  0.366024  0  -0.145124  -0.166635  0  3.892645  0
C  C104  1  0.76308698  0.75397680  0.16189724  1  0.348209  0  -0.14419  -0.171598  0  3.884232  0
C  C105  1  0.27010096  0.91081410  0.42931852  1  0.351149  0  -0.138698  -0.169089  0  3.864743  0
C  C106  1  0.72891704  0.18477491  0.70051523  1  0.332505  0  -0.142308  -0.165166  0  3.876722  0
C  C107  1  0.32480133  0.72461996  0.20629169  1  0.389791  0  -0.146246  -0.164991  0  3.949494  0
I  I108  1  0.49521998  0.76446665  0.46820145  1  0.048466  0  -0.007852  -0.098492  0  1.585732  0
I  I109  1  0.40856616  0.20958232  0.44725357  1  0.158648  0  0.083141  0.001978  0  1.478226  0
I  I110  1  0.26661818  0.38122732  0.76229225  1  -0.135172  0  -0.065134  -0.235192  0  1.2627  0
I  I111  1  0.76484901  0.38558531  0.52408927  1  0.187411  0  0.089498  0.01432  0  1.642478  0
I  I112  1  0.60092473  0.65745715  0.33445954  1  0.120479  0  0.055188  -0.02229  0  1.386906  0
I  I113  1  0.94250145  0.43782040  0.71703201  1  0.170938  0  0.104388  0.029035  0  1.674377  0
I  I114  1  0.86627781  0.70760932  0.98248285  1  0.038385  0  0.018734  -0.086532  0  1.338357  0
I  I115  1  0.71202573  0.70331864  0.79276798  1  0.069246  0  0.028887  -0.054459  0  1.510721  0
I  I116  1  0.72987281  0.53787409  0.08262793  1  0.199639  0  0.119469  0.042186  0  1.557814  0
I  I117  1  0.11738583  0.61942275  0.33690438  1  0.043816  0  0.053835  -0.023771  0  1.468846  0
I  I118  1  0.14737912  0.81910769  0.50781467  1  -0.026775  0  -0.020902  -0.157799  0  1.312637  0
I  I119  1  0.72246512  0.92359009  0.50289175  1  0.137215  0  0.056827  -0.031228  0  1.738054  0
I  I120  1  0.77572739  0.14556325  0.52478721  1  0.182271  0  0.10306  0.031534  0  1.657677  0
I  I121  1  0.21208095  0.41438651  0.96078453  1  0.032348  0  0.022157  -0.044664  0  1.352324  0
I  I122  1  0.11295096  0.10875608  0.80063160  1  0.029544  0  0.02337  -0.061768  0  1.318453  0
I  I123  1  0.74049964  0.89190882  0.70237504  1  0.096837  0  0.036183  -0.039459  0  1.400147  0
I  I124  1  0.84217564  0.63769500  0.58800715  1  0.091205  0  0.041589  -0.050462  0  1.408153  0
I  I125  1  0.07636512  0.28306979  0.07065068  1  0.128303  0  0.08653  7.1e-05  0  1.467881  0
O  O126  1  0.42418088  0.54115527  0.45210349  1  -1.162317  0  -0.307505  -0.550502  0  2.312019  0
O  O127  1  0.92010515  0.90721509  0.34087783  1  -1.12623  0  -0.306031  -0.518252  0  2.280562  0
O  O128  1  0.00120412  0.92813623  0.59331849  1  -1.123867  0  -0.317572  -0.535064  0  2.309574  0
O  O129  1  0.89250935  0.91839638  0.48303675  1  -1.174921  0  -0.306496  -0.557184  0  2.359437  0
O  O130  1  0.02587162  0.10033003  0.61178125  1  -1.176073  0  -0.308075  -0.570313  0  2.389315  0
O  O131  1  0.91152624  0.08703246  0.50535457  1  -1.131081  0  -0.314644  -0.524744  0  2.331751  0
O  O132  1  0.17098077  0.10232089  0.58338308  1  -1.119849  0  -0.30405  -0.511649  0  2.25856  0
O  O133  1  0.06621531  0.09574141  0.47164447  1  -1.160993  0  -0.300576  -0.549372  0  2.295572  0
O  O134  1  0.00755320  0.41812796  0.92066612  1  -1.173368  0  -0.298959  -0.568406  0  2.374626  0
O  O135  1  0.88694562  0.31130340  0.90112857  1  -1.11634  0  -0.306245  -0.517201  0  2.252449  0
O  O136  1  0.14150525  0.55424672  0.10062280  1  -1.135216  0  -0.308147  -0.528873  0  2.350392  0
O  O137  1  0.42226172  0.43588704  0.34290849  1  -1.126544  0  -0.312447  -0.524397  0  2.24664  0
O  O138  1  0.03439035  0.44025940  0.08928560  1  -1.171572  0  -0.308141  -0.566366  0  2.38807  0
O  O139  1  0.99950575  0.59290923  0.09967918  1  -1.167051  0  -0.302717  -0.55951  0  2.32695  0
O  O140  1  0.88143192  0.48025208  0.07687429  1  -1.128626  0  -0.306723  -0.51759  0  2.30036  0
O  O141  1  0.99103342  0.56880355  0.92407721  1  -1.122103  0  -0.315093  -0.52776  0  2.276091  0
O  O142  1  0.87002400  0.46290689  0.90532066  1  -1.160146  0  -0.291652  -0.540751  0  2.232678  0
O  O143  1  0.60855437  0.66979056  0.58656614  1  -1.124231  0  -0.311067  -0.533871  0  2.409713  0
O  O144  1  0.60886272  0.57105578  0.47422991  1  -1.172804  0  -0.309002  -0.561544  0  2.364457  0
O  O145  1  0.60518144  0.52085354  0.60476363  1  -1.187154  0  -0.310083  -0.573138  0  2.447282  0
O  O146  1  0.61117902  0.42518874  0.49771370  1  -1.133923  0  -0.313004  -0.528085  0  2.337706  0
O  O147  1  0.43494240  0.48694091  0.58671045  1  -1.128942  0  -0.311566  -0.524209  0  2.244486  0
O  O148  1  0.42644496  0.38674909  0.46926013  1  -1.174589  0  -0.308935  -0.565497  0  2.421004  0
O  O149  1  0.03274941  0.91547436  0.44554267  1  -1.17581  0  -0.30485  -0.56075  0  2.375834  0
O  O150  1  0.24536497  0.09506672  0.45080006  1  -1.074397  0  -0.209838  -0.197582  0  2.554527  0
O  O151  1  0.11892917  0.31817351  0.58238551  1  -1.054595  0  -0.185622  -0.128565  0  2.558733  0
O  O152  1  0.23517044  0.44690702  0.55801435  1  -1.058723  0  -0.225383  -0.177978  0  2.499221  0
O  O153  1  0.71753154  0.53493724  0.89667995  1  -1.054032  0  -0.224164  -0.211591  0  2.593039  0
O  O154  1  0.79659581  0.72847605  0.22356627  1  -1.073931  0  -0.207985  -0.191046  0  2.588376  0
O  O155  1  0.17733324  0.88421659  0.38942833  1  -1.054615  0  -0.188919  -0.149909  0  2.572918  0
O  O156  1  0.80441618  0.25022336  0.70812266  1  -1.074104  0  -0.214124  -0.205367  0  2.61465  0
O  O157  1  0.36408027  0.71099938  0.27512872  1  -1.05668  0  -0.229025  -0.191368  0  2.55572  0
