# generated using pymatgen
data_AlC12S3(NO4)3
_symmetry_space_group_name_H-M   'P 1'
_cell_length_a   4.05668467
_cell_length_b   20.15066981
_cell_length_c   20.15068168
_cell_angle_alpha   120.00027969
_cell_angle_beta   89.99986438
_cell_angle_gamma   89.99906889
_symmetry_Int_Tables_number   1
_chemical_formula_structural   AlC12S3(NO4)3
_chemical_formula_sum   'Al2 C24 S6 N6 O24'
_cell_volume   1426.52664335
_cell_formula_units_Z   2
loop_
 _symmetry_equiv_pos_site_id
 _symmetry_equiv_pos_as_xyz
  1  'x, y, z'
loop_
 _atom_site_type_symbol
 _atom_site_label
 _atom_site_symmetry_multiplicity
 _atom_site_fract_x
 _atom_site_fract_y
 _atom_site_fract_z
 _atom_site_occupancy
 _atom_site_pbe_bader_charge
 _atom_site_pbe_bader_spin_density
 _atom_site_pbe_cm5_charge
 _atom_site_pbe_ddec_charge
 _atom_site_pbe_ddec_spin_density
 _atom_site_pbe_ddec_sum_bond_order
 _atom_site_pbe_magmom
Al  Al0  1  0.98167284  0.50000114  0.49999958  1  2.509649  0  0.437963  1.614654  0  2.551635  0
Al  Al1  1  0.98170639  0.16667009  0.83333322  1  2.509976  0  0.437788  1.614279  0  2.551803  0
C  C2  1  0.48545781  0.44243327  0.38345536  1  1.684054  0  0.280742  0.683868  0  4.097006  0
C  C3  1  0.48545685  0.44102165  0.55756752  1  1.682297  0  0.280748  0.683731  0  4.097156  0
C  C4  1  0.48544244  0.61654754  0.55897750  1  1.679681  0  0.280744  0.683756  0  4.097045  0
C  C5  1  0.48551840  0.22562068  0.77573143  1  1.680843  0  0.281039  0.684415  0  4.095898  0
C  C6  1  0.48551556  0.05011360  0.77437808  1  1.679802  0  0.280808  0.684077  0  4.096264  0
C  C7  1  0.48550512  0.22427261  0.94988823  1  1.684499  0  0.28085  0.684266  0  4.095888  0
C  C8  1  0.49662340  0.42821888  0.67931388  1  0.36524  0  0.069401  0.010971  0  3.978818  0
C  C9  1  0.49664345  0.23839781  0.65396002  1  0.363184  0  0.06946  0.011256  0  3.979165  0
C  C10  1  0.49777376  0.39870713  0.60066406  1  -0.220223  0  0.004306  -0.144083  0  3.873145  0
C  C11  1  0.49785956  0.26790871  0.73260670  1  -0.218684  0  0.004096  -0.144367  0  3.873609  0
C  C12  1  0.49290913  0.29679569  0.63422607  1  -0.090199  0  -0.022479  -0.079986  0  4.113174  0
C  C13  1  0.49298718  0.36981408  0.69903690  1  -0.141873  0  -0.022249  -0.079448  0  4.11255  0
C  C14  1  0.49660868  0.75109435  0.57177726  1  0.343938  0  0.069533  0.011115  0  3.978872  0
C  C15  1  0.49663551  0.91556421  0.76159973  1  0.343395  0  0.069527  0.011308  0  3.978968  0
C  C16  1  0.49776165  0.70195593  0.60129040  1  -0.166896  0  0.004188  -0.144237  0  3.873437  0
C  C17  1  0.49783914  0.96470034  0.73208888  1  -0.165827  0  0.004111  -0.144299  0  3.873617  0
C  C18  1  0.49289700  0.83743039  0.70320059  1  -0.071667  0  -0.022439  -0.079879  0  4.113163  0
C  C19  1  0.49296431  0.82922304  0.63018157  1  -0.151671  0  -0.022382  -0.079725  0  4.112764  0
C  C20  1  0.49662775  0.32068648  0.24890193  1  0.29503  0  0.069365  0.010973  0  3.978875  0
C  C21  1  0.49664002  0.34604273  0.08443722  1  0.295819  0  0.069541  0.011323  0  3.979049  0
C  C22  1  0.49777797  0.39933783  0.29804438  1  -0.110919  0  0.004295  -0.144215  0  3.8731  0
C  C23  1  0.49783407  0.26739718  0.03530287  1  -0.111674  0  0.004066  -0.144362  0  3.873516  0
C  C24  1  0.49290913  0.36577669  0.16257233  1  -0.080873  0  -0.022437  -0.079908  0  4.112999  0
C  C25  1  0.49298562  0.30096630  0.17077888  1  -0.158776  0  -0.02231  -0.079561  0  4.112792  0
S  S26  1  0.49968598  0.29951282  0.55024286  1  0.452749  0  0.165854  0.247582  0  2.801478  0
S  S27  1  0.49980271  0.36710665  0.78302524  1  0.452093  0  0.165969  0.247608  0  2.801129  0
S  S28  1  0.49965969  0.75073322  0.70048591  1  0.420543  0  0.165884  0.247657  0  2.8016  0
S  S29  1  0.49978168  0.91591921  0.63289124  1  0.42176  0  0.165962  0.247648  0  2.801315  0
S  S30  1  0.49967681  0.44975853  0.24927032  1  0.414453  0  0.165844  0.247614  0  2.801475  0
S  S31  1  0.49978814  0.21697730  0.08408005  1  0.41704  0  0.16597  0.247612  0  2.801123  0
N  N32  1  0.51829520  0.50835063  0.73687331  1  0.361928  0  0.055071  0.521318  0  4.233512  0
N  N33  1  0.51826070  0.15825112  0.59640345  1  0.363187  0  0.055178  0.521078  0  4.233275  0
N  N34  1  0.51826813  0.72851845  0.49164546  1  0.339384  0  0.05515  0.521369  0  4.233647  0
N  N35  1  0.51826511  0.93814979  0.84174354  1  0.338656  0  0.055141  0.521049  0  4.233382  0
N  N36  1  0.51830032  0.26312819  0.27147651  1  0.367136  0  0.05506  0.52134  0  4.233233  0
N  N37  1  0.51826142  0.40359892  0.06184970  1  0.365854  0  0.055171  0.520991  0  4.232836  0
O  O38  1  0.71543940  0.58272088  0.57331500  1  -1.239181  0  -0.226934  -0.578038  0  2.358654  0
O  O39  1  0.71544892  0.49059359  0.41727689  1  -1.242959  0  -0.226946  -0.578089  0  2.358816  0
O  O40  1  0.71546326  0.42668302  0.50940589  1  -1.239974  0  -0.226987  -0.578088  0  2.358769  0
O  O41  1  0.24199638  0.58522594  0.51473896  1  -1.24016  0  -0.222235  -0.579347  0  2.391239  0
O  O42  1  0.24200744  0.48526268  0.57048407  1  -1.240874  0  -0.22222  -0.579277  0  2.391229  0
O  O43  1  0.24202044  0.42951742  0.41477852  1  -1.238876  0  -0.222281  -0.579386  0  2.391236  0
O  O44  1  0.71547335  0.17609318  0.91606521  1  -1.243201  0  -0.226926  -0.578101  0  2.358228  0
O  O45  1  0.71547380  0.23997844  0.82391090  1  -1.238603  0  -0.227017  -0.578174  0  2.358282  0
O  O46  1  0.71548287  0.08393435  0.76002192  1  -1.239285  0  -0.226921  -0.578079  0  2.358423  0
O  O47  1  0.24202764  0.23717150  0.91855510  1  -1.238745  0  -0.222143  -0.579485  0  2.391105  0
O  O48  1  0.24203444  0.08144857  0.81861005  1  -1.23986  0  -0.222172  -0.579348  0  2.391126  0
O  O49  1  0.24204064  0.18139168  0.76283447  1  -1.240397  0  -0.222249  -0.579524  0  2.391053  0
O  O50  1  0.47553516  0.52317104  0.80420348  1  -0.443347  0  -0.127338  -0.316601  0  1.865609  0
O  O51  1  0.58234081  0.55550300  0.71635520  1  -0.437272  0  -0.12246  -0.304058  0  1.897931  0
O  O52  1  0.47529556  0.14342119  0.52907916  1  -0.443974  0  -0.127445  -0.316565  0  1.865685  0
O  O53  1  0.58242569  0.11111024  0.61692745  1  -0.438035  0  -0.122572  -0.304069  0  1.897986  0
O  O54  1  0.47548488  0.78102471  0.47682266  1  -0.443377  0  -0.127312  -0.316542  0  1.865683  0
O  O55  1  0.58232094  0.66084770  0.44449451  1  -0.419657  0  -0.122595  -0.304183  0  1.897993  0
O  O56  1  0.47530839  0.88565553  0.85657252  1  -0.443853  0  -0.127493  -0.316598  0  1.865721  0
O  O57  1  0.58244556  0.00581450  0.88888409  1  -0.419951  0  -0.122488  -0.304025  0  1.898054  0
O  O58  1  0.47551714  0.19579835  0.21896584  1  -0.438261  0  -0.127355  -0.316642  0  1.865549  0
O  O59  1  0.58236866  0.28364505  0.33914538  1  -0.447505  0  -0.122392  -0.303993  0  1.897817  0
O  O60  1  0.47528738  0.47092477  0.11434483  1  -0.437714  0  -0.127486  -0.316561  0  1.865361  0
O  O61  1  0.58243728  0.38307483  0.99418546  1  -0.447849  0  -0.122555  -0.304017  0  1.897854  0
