# generated using pymatgen
data_AlH7C14O6F
_symmetry_space_group_name_H-M   'P 1'
_cell_length_a   6.65332537
_cell_length_b   11.12731152
_cell_length_c   17.68910856
_cell_angle_alpha   85.26064906
_cell_angle_beta   82.05525631
_cell_angle_gamma   71.66621168
_symmetry_Int_Tables_number   1
_chemical_formula_structural   AlH7C14O6F
_chemical_formula_sum   'Al2 H14 C28 O12 F2'
_cell_volume   1230.11486328
_cell_formula_units_Z   2
loop_
 _symmetry_equiv_pos_site_id
 _symmetry_equiv_pos_as_xyz
  1  'x, y, z'
loop_
 _atom_site_type_symbol
 _atom_site_label
 _atom_site_symmetry_multiplicity
 _atom_site_fract_x
 _atom_site_fract_y
 _atom_site_fract_z
 _atom_site_occupancy
 _atom_site_pbe_bader_charge
 _atom_site_pbe_bader_spin_density
 _atom_site_pbe_cm5_charge
 _atom_site_pbe_ddec_charge
 _atom_site_pbe_ddec_spin_density
 _atom_site_pbe_ddec_sum_bond_order
 _atom_site_pbe_magmom
Al  Al0  1  0.49245705  0.50523630  0.50230215  1  2.505277  0  0.393855  1.643965  0  2.586146  0
Al  Al1  1  0.99069739  0.50631102  0.50232967  1  2.500802  0  0.395413  1.642056  0  2.58003  0
H  H2  1  0.29135297  0.36537957  0.56041783  1  0.628427  0  0.35901  0.438242  0  0.840402  0
H  H3  1  0.67223644  0.66189803  0.47341243  1  0.634815  0  0.341539  0.411648  0  0.894933  0
H  H4  1  0.66880190  0.44186850  0.28133436  1  0.109505  0  0.115788  0.125665  0  0.986703  0
H  H5  1  0.75887971  0.42537880  0.13999842  1  0.096415  0  0.109078  0.115825  0  0.989468  0
H  H6  1  0.08452549  0.56014244  0.11578706  1  0.12101  0  0.11746  0.142617  0  0.979695  0
H  H7  1  0.90685042  0.44682350  0.88809555  1  0.10453  0  0.114164  0.138881  0  0.988149  0
H  H8  1  0.32216948  0.53642208  0.72470985  1  0.149436  0  0.114472  0.126011  0  0.997995  0
H  H9  1  0.23489802  0.53669845  0.86637246  1  0.067097  0  0.104801  0.109321  0  1.004035  0
H  H10  1  0.23458580  0.23596239  0.39629101  1  0.072588  0  0.10678  0.129359  0  1.03524  0
H  H11  1  0.44177899  0.76573473  0.39981013  1  0.037099  0  0.109162  0.125569  0  1.044777  0
H  H12  1  0.75522085  0.89319736  0.55021183  1  0.072304  0  0.10894  0.114113  0  0.989215  0
H  H13  1  0.64103974  0.12997183  0.54128014  1  0.088227  0  0.106843  0.109123  0  0.997336  0
H  H14  1  0.54550367  0.21199441  0.31779736  1  0.598592  0  0.32882  0.354892  0  0.897306  0
H  H15  1  0.73925421  0.77798667  0.32183602  1  0.629638  0  0.331422  0.364653  0  0.887148  0
C  C16  1  0.86292506  0.27954901  0.48622164  1  1.54353  0  0.270876  0.654167  0  4.077566  0
C  C17  1  0.69800360  0.49812429  0.64100475  1  1.587569  0  0.265919  0.655813  0  4.105172  0
C  C18  1  0.12723616  0.73409051  0.50206428  1  1.564947  0  0.272101  0.6575  0  4.075798  0
C  C19  1  0.28713773  0.50847848  0.36339052  1  1.582978  0  0.25764  0.635759  0  4.139694  0
C  C20  1  0.33048184  0.50222393  0.27852074  1  0.067214  0  -0.024013  -0.164998  0  3.978738  0
C  C21  1  0.54324944  0.46401172  0.24405608  1  -0.03805  0  -0.076687  -0.071069  0  3.996874  0
C  C22  1  0.59326484  0.45643769  0.16553173  1  -0.032211  0  -0.083715  -0.140525  0  3.944857  0
C  C23  1  0.42890348  0.49070403  0.11773741  1  0.10155  0  0.010451  0.177737  0  4.115103  0
C  C24  1  0.21480391  0.53068175  0.15110640  1  0.029369  0  -0.089703  -0.255498  0  3.928968  0
C  C25  1  0.17017809  0.53492446  0.22983538  1  0.393527  0  0.110147  0.288064  0  4.040826  0
C  C26  1  0.47687768  0.48858059  0.03740238  1  0.19247  0  -0.039592  -0.103511  0  4.099535  0
C  C27  1  0.51760740  0.48991007  0.96798264  1  -0.560401  0  -0.035904  -0.092488  0  4.094591  0
C  C28  1  0.56385725  0.49250716  0.88751376  1  0.096037  0  0.007717  0.172682  0  4.122564  0
C  C29  1  0.77602330  0.46862633  0.85331247  1  0.106096  0  -0.094398  -0.263598  0  3.94023  0
C  C30  1  0.81873015  0.47153002  0.77434609  1  0.364998  0  0.11083  0.288975  0  4.047213  0
C  C31  1  0.65801053  0.49651483  0.72621759  1  0.01561  0  -0.018913  -0.154782  0  3.949644  0
C  C32  1  0.44745867  0.51900452  0.76155599  1  0.048297  0  -0.072153  -0.055664  0  3.974879  0
C  C33  1  0.39924345  0.51831238  0.84028874  1  -0.051975  0  -0.087059  -0.145291  0  3.952779  0
C  C34  1  0.93689002  0.13961514  0.47999733  1  0.006043  0  -0.01156  -0.088654  0  3.940935  0
C  C35  1  0.14086368  0.07185675  0.44227254  1  -0.038066  0  -0.003124  0.079137  0  3.977583  0
C  C36  1  0.79797487  0.07551127  0.51518553  1  -0.02757  0  -0.087155  -0.097819  0  4.021097  0
C  C37  1  0.27926011  0.13280223  0.39856690  1  0.059329  0  -0.117535  -0.291439  0  4.005728  0
C  C38  1  0.46807744  0.06525141  0.35803029  1  0.453492  0  0.078118  0.227114  0  4.083362  0
C  C39  1  0.06304184  0.87366817  0.48806818  1  -0.054693  0  -0.010782  -0.084574  0  3.939994  0
C  C40  1  0.86117835  0.94314365  0.51981971  1  0.031696  0  -0.087219  -0.101029  0  4.017261  0
C  C41  1  0.20367308  0.93539350  0.44514295  1  0.014419  0  -0.00296  0.080742  0  3.972971  0
C  C42  1  0.39746495  0.86847070  0.40203478  1  0.077641  0  -0.118214  -0.299787  0  4.014747  0
C  C43  1  0.52822999  0.92998544  0.35935114  1  0.494065  0  0.079393  0.232695  0  4.084786  0
O  O44  1  0.66433099  0.33565946  0.48414493  1  -1.271351  0  -0.237276  -0.600952  0  2.350705  0
O  O45  1  0.87504523  0.50905576  0.60899942  1  -1.244504  0  -0.23718  -0.592852  0  2.346016  0
O  O46  1  0.98447435  0.67964373  0.50233075  1  -1.274306  0  -0.235939  -0.598219  0  2.341163  0
O  O47  1  0.43703426  0.52089931  0.39666707  1  -1.256034  0  -0.235913  -0.584682  0  2.357637  0
O  O48  1  0.31975523  0.67748001  0.51386557  1  -1.266464  0  -0.237815  -0.59727  0  2.356781  0
O  O49  1  0.10862752  0.50012513  0.39530250  1  -1.238645  0  -0.236282  -0.584021  0  2.361935  0
O  O50  1  0.99857167  0.33433978  0.49627874  1  -1.264354  0  -0.233878  -0.593325  0  2.359067  0
O  O51  1  0.54694977  0.48820884  0.60712925  1  -1.254062  0  -0.237484  -0.596523  0  2.343486  0
O  O52  1  0.26079177  0.44669676  0.53283474  1  -1.430675  0  -0.447868  -0.99401  0  2.211496  0
O  O53  1  0.71913739  0.56996701  0.47180309  1  -1.443024  0  -0.452673  -0.98849  0  2.199993  0
O  O54  1  0.60351611  0.12021037  0.31423630  1  -1.103968  0  -0.346634  -0.414912  0  2.26709  0
O  O55  1  0.71390795  0.86946005  0.31644430  1  -1.131184  0  -0.347218  -0.419949  0  2.262805  0
F  F56  1  0.96071827  0.57725323  0.25888328  1  -0.633875  0  -0.086856  -0.13528  0  1.360604  0
F  F57  1  0.02682087  0.44521647  0.74485894  1  -0.631226  0  -0.087036  -0.13111  0  1.37495  0
