# generated using pymatgen
data_Cu3H15C17S(IN)3
_symmetry_space_group_name_H-M   'P 1'
_cell_length_a   7.26770683
_cell_length_b   10.11983725
_cell_length_c   14.85573465
_cell_angle_alpha   82.03333709
_cell_angle_beta   88.45545728
_cell_angle_gamma   77.74067410
_symmetry_Int_Tables_number   1
_chemical_formula_structural   Cu3H15C17S(IN)3
_chemical_formula_sum   'Cu6 H30 C34 S2 I6 N6'
_cell_volume   1057.38655328
_cell_formula_units_Z   2
loop_
 _symmetry_equiv_pos_site_id
 _symmetry_equiv_pos_as_xyz
  1  'x, y, z'
loop_
 _atom_site_type_symbol
 _atom_site_label
 _atom_site_symmetry_multiplicity
 _atom_site_fract_x
 _atom_site_fract_y
 _atom_site_fract_z
 _atom_site_occupancy
 _atom_site_pbe_bader_spin_density
 _atom_site_pbe_cm5_charge
 _atom_site_pbe_ddec_charge
 _atom_site_pbe_ddec_spin_density
 _atom_site_pbe_ddec_sum_bond_order
 _atom_site_pbe_magmom
Cu  Cu0  1  0.59556568  0.88929779  0.97484608  1  0  0.29334  0.153302  0  2.750978  0
Cu  Cu1  1  0.40443796  0.11070702  0.02514880  1  0  0.293397  0.153359  0  2.750873  0
Cu  Cu2  1  0.10347907  0.36906597  0.44164334  1  0  0.287375  0.281455  0  2.687664  0
Cu  Cu3  1  0.89653311  0.63093273  0.55835610  1  0  0.287391  0.281412  0  2.687807  0
Cu  Cu4  1  0.46967061  0.41312476  0.56491584  1  0  0.248346  0.17965  0  2.685921  0
Cu  Cu5  1  0.53033693  0.58687597  0.43508008  1  0  0.248395  0.17977  0  2.685719  0
H  H6  1  0.51105414  0.73847608  0.13468069  1  0  0.101557  0.06847  0  1.047815  0
H  H7  1  0.48891699  0.26153699  0.86530828  1  0  0.101613  0.068574  0  1.047745  0
H  H8  1  0.58422557  0.50420130  0.22080944  1  0  0.088552  0.104138  0  1.052483  0
H  H9  1  0.41575453  0.49581380  0.77918397  1  0  0.088554  0.104115  0  1.05243  0
H  H10  1  0.76668468  0.31197916  0.14171199  1  0  0.097093  0.097803  0  1.020109  0
H  H11  1  0.23329902  0.68802781  0.85828622  1  0  0.09706  0.097705  0  1.020168  0
H  H12  1  0.92651573  0.23609015  0.00496154  1  0  0.084064  0.089765  0  1.073746  0
H  H13  1  0.07347104  0.76391486  0.99504828  1  0  0.08401  0.089804  0  1.073755  0
H  H14  1  0.03291145  0.29212393  0.84582925  1  0  0.087248  0.095936  0  1.03974  0
H  H15  1  0.96709389  0.70787385  0.15418044  1  0  0.087187  0.095859  0  1.039757  0
H  H16  1  0.92038394  0.52387704  0.76286363  1  0  0.082178  0.090406  0  1.070857  0
H  H17  1  0.07961842  0.47611760  0.23713359  1  0  0.082159  0.09039  0  1.070938  0
H  H18  1  0.54697533  0.77350126  0.81866454  1  0  0.089071  0.110812  0  1.022736  0
H  H19  1  0.45302158  0.22650261  0.18133587  1  0  0.089078  0.110802  0  1.022732  0
H  H20  1  0.74529481  0.72828776  0.74595656  1  0  0.090277  0.113243  0  1.035368  0
H  H21  1  0.25470105  0.27171508  0.25404261  1  0  0.090268  0.113228  0  1.035308  0
H  H22  1  0.84707657  0.14417016  0.83876419  1  0  0.09876  0.120078  0  1.035791  0
H  H23  1  0.15293354  0.85582647  0.16123008  1  0  0.098743  0.120065  0  1.035731  0
H  H24  1  0.73734120  0.34691194  0.72269107  1  0  0.100648  0.079634  0  1.040567  0
H  H25  1  0.26266574  0.65309083  0.27730533  1  0  0.100681  0.079631  0  1.040514  0
H  H26  1  0.48794370  0.12260433  0.56822786  1  0  0.099842  0.068958  0  1.028317  0
H  H27  1  0.51204497  0.87739957  0.43177195  1  0  0.099826  0.068842  0  1.028478  0
H  H28  1  0.58485074  0.91052904  0.67621091  1  0  0.09472  0.109674  0  1.053158  0
H  H29  1  0.41514063  0.08947487  0.32379089  1  0  0.0947  0.10964  0  1.053209  0
H  H30  1  0.73782066  0.02089946  0.40724691  1  0  0.109616  0.163214  0  0.989042  0
H  H31  1  0.26219445  0.97907886  0.59275783  1  0  0.109598  0.16316  0  0.98915  0
H  H32  1  0.96429246  0.91889687  0.38869844  1  0  0.108504  0.171511  0  0.991549  0
H  H33  1  0.03572313  0.08108959  0.61130417  1  0  0.108504  0.171537  0  0.991652  0
H  H34  1  0.83960807  0.03107073  0.29638309  1  0  0.101066  0.163567  0  1.0076  0
H  H35  1  0.16040703  0.96892190  0.70362499  1  0  0.101048  0.163504  0  1.007491  0
C  C36  1  0.72201307  0.57997925  0.96853494  1  0  0.107751  0.141082  0  3.922337  0
C  C37  1  0.27797377  0.42002665  0.03145863  1  0  0.107643  0.140871  0  3.92259  0
C  C38  1  0.58263812  0.65269111  0.10114392  1  0  0.043887  0.109365  0  3.922217  0
C  C39  1  0.41734072  0.34731381  0.89885115  1  0  0.043965  0.109301  0  3.922096  0
C  C40  1  0.62581250  0.52073679  0.14979710  1  0  -0.092753  -0.126009  0  3.974785  0
C  C41  1  0.37417600  0.47926809  0.85019723  1  0  -0.092881  -0.126095  0  3.974761  0
C  C42  1  0.72540695  0.41600040  0.10663563  1  0  -0.065689  -0.059841  0  3.919025  0
C  C43  1  0.27459051  0.58400651  0.89336314  1  0  -0.06556  -0.059663  0  3.918859  0
C  C44  1  0.77751717  0.44314270  0.01464543  1  0  -0.004109  0.042355  0  3.983794  0
C  C45  1  0.22246655  0.55686426  0.98535143  1  0  -0.004197  0.042436  0  3.983753  0
C  C46  1  0.88657266  0.33938038  0.96873419  1  0  -0.088265  -0.114996  0  3.957404  0
C  C47  1  0.11343917  0.66062858  0.03127369  1  0  -0.088138  -0.115088  0  3.95726  0
C  C48  1  0.94163284  0.36962932  0.88033294  1  0  -0.095539  -0.072743  0  4.009866  0
C  C49  1  0.05835691  0.63036545  0.11967380  1  0  -0.095447  -0.072572  0  4.009926  0
C  C50  1  0.88036742  0.50218080  0.83387398  1  0  -0.091159  -0.114194  0  3.966697  0
C  C51  1  0.11964360  0.49781690  0.16612825  1  0  -0.091162  -0.114223  0  3.966846  0
C  C52  1  0.76948458  0.60603205  0.87478609  1  0  -0.016472  0.045206  0  3.943033  0
C  C53  1  0.23053475  0.39396560  0.12521406  1  0  -0.016479  0.045255  0  3.942864  0
C  C54  1  0.70110677  0.73944580  0.81614288  1  0  -0.152479  -0.219189  0  3.903903  0
C  C55  1  0.29889166  0.26055294  0.18385465  1  0  -0.152418  -0.219041  0  3.903608  0
C  C56  1  0.72484308  0.00978696  0.76800037  1  0  -0.001071  0.088623  0  4.025728  0
C  C57  1  0.27515588  0.99021483  0.23199619  1  0  -0.000988  0.088691  0  4.025845  0
C  C58  1  0.76849488  0.13514400  0.77934806  1  0  -0.095767  -0.18239  0  3.964671  0
C  C59  1  0.23150429  0.86485172  0.22065581  1  0  -0.095737  -0.182294  0  3.964656  0
C  C60  1  0.70771528  0.24791409  0.71497402  1  0  0.033625  0.095746  0  3.934906  0
C  C61  1  0.29229850  0.75208360  0.28502820  1  0  0.033619  0.095715  0  3.935007  0
C  C62  1  0.56840816  0.12235403  0.62933632  1  0  0.02993  0.091786  0  3.951646  0
C  C63  1  0.43159416  0.87765493  0.37066558  1  0  0.030031  0.092011  0  3.951488  0
C  C64  1  0.62242465  0.00415089  0.69031635  1  0  -0.099802  -0.18563  0  3.983308  0
C  C65  1  0.37755425  0.99585816  0.30968506  1  0  -0.099871  -0.18571  0  3.983295  0
C  C66  1  0.95315117  0.12837459  0.39123461  1  0  0.198839  0.389531  0  3.927904  0
C  C67  1  0.04685159  0.87159869  0.60877140  1  0  0.198932  0.389497  0  3.928659  0
C  C68  1  0.87031479  0.01890866  0.36964928  1  0  -0.21046  -0.433467  0  3.972771  0
C  C69  1  0.12969641  0.98107376  0.63035511  1  0  -0.210446  -0.433396  0  3.972696  0
S  S70  1  0.80259640  0.87278315  0.85265430  1  0  0.010309  0.090549  0  3.20155  0
S  S71  1  0.19739466  0.12721255  0.14734224  1  0  0.010282  0.090423  0  3.201473  0
I  I72  1  0.11329226  0.39092727  0.61825556  1  0  -0.17854  -0.333781  0  2.229775  0
I  I73  1  0.88673385  0.60908053  0.38174288  1  0  -0.178558  -0.333797  0  2.229634  0
I  I74  1  0.73572111  0.00110306  0.09880362  1  0  -0.213869  -0.383206  0  1.87992  0
I  I75  1  0.26427014  0.99888658  0.90120090  1  0  -0.213886  -0.383231  0  1.879938  0
I  I76  1  0.46386120  0.36067455  0.39430138  1  0  -0.162782  -0.311339  0  2.287704  0
I  I77  1  0.53615607  0.63932610  0.60569042  1  0  -0.1628  -0.311383  0  2.287802  0
N  N78  1  0.62805692  0.68352299  0.01425792  1  0  -0.350865  -0.228741  0  3.578675  0
N  N79  1  0.37193643  0.31648393  0.98573954  1  0  -0.350908  -0.228659  0  3.578721  0
N  N80  1  0.60670939  0.24375448  0.64069290  1  0  -0.374177  -0.195056  0  3.641368  0
N  N81  1  0.39328954  0.75625148  0.35931470  1  0  -0.374302  -0.195148  0  3.641308  0
N  N82  1  0.01732295  0.21740607  0.40990181  1  0  -0.392807  -0.395339  0  3.470242  0
N  N83  1  0.98269610  0.78257738  0.59010779  1  0  -0.392895  -0.395234  0  3.471173  0
