# generated using pymatgen
data_AlH7C12SNClO5
_symmetry_space_group_name_H-M   'P 1'
_cell_length_a   6.63890718
_cell_length_b   12.59102207
_cell_length_c   16.33904749
_cell_angle_alpha   62.60288217
_cell_angle_beta   89.05072998
_cell_angle_gamma   76.25283911
_symmetry_Int_Tables_number   1
_chemical_formula_structural   AlH7C12SNClO5
_chemical_formula_sum   'Al2 H14 C24 S2 N2 Cl2 O10'
_cell_volume   1171.02904764
_cell_formula_units_Z   2
loop_
 _symmetry_equiv_pos_site_id
 _symmetry_equiv_pos_as_xyz
  1  'x, y, z'
loop_
 _atom_site_type_symbol
 _atom_site_label
 _atom_site_symmetry_multiplicity
 _atom_site_fract_x
 _atom_site_fract_y
 _atom_site_fract_z
 _atom_site_occupancy
 _atom_site_pbe_bader_charge
 _atom_site_pbe_bader_spin_density
 _atom_site_pbe_cm5_charge
 _atom_site_pbe_ddec_charge
 _atom_site_pbe_ddec_spin_density
 _atom_site_pbe_ddec_sum_bond_order
 _atom_site_pbe_magmom
Al  Al0  1  0.49987731  0.50026738  0.49984908  1  2.501286  0  0.394636  1.634792  0  2.582738  0
Al  Al1  1  0.99995632  0.50012388  0.49997436  1  2.504709  0  0.393173  1.645508  0  2.575531  0
H  H2  1  0.18520535  0.65841863  0.41701242  1  0.63998  0  0.345609  0.424712  0  0.868399  0
H  H3  1  0.81440003  0.34201867  0.58280927  1  0.644422  0  0.345601  0.424573  0  0.869143  0
H  H4  1  0.98175710  0.38807486  0.76386865  1  0.094892  0  0.111072  0.117014  0  0.994366  0
H  H5  1  0.88789811  0.40141968  0.90889059  1  0.100209  0  0.107  0.11132  0  1.011693  0
H  H6  1  0.36713240  0.58813421  0.88344196  1  0.058688  0  0.105447  0.11272  0  1.00659  0
H  H7  1  0.63341065  0.41134823  0.11680998  1  0.058631  0  0.105607  0.112488  0  1.006178  0
H  H8  1  0.11225753  0.59836616  0.09116964  1  0.098478  0  0.107078  0.111612  0  1.011286  0
H  H9  1  0.01818119  0.61192401  0.23609670  1  0.095308  0  0.111034  0.116849  0  0.994312  0
H  H10  1  0.56985879  0.63670344  0.76411818  1  0.026075  0  0.087481  0.122619  0  1.006523  0
H  H11  1  0.44164047  0.67447071  0.65562971  1  0.062945  0  0.08854  0.129182  0  1.012286  0
H  H12  1  0.63311644  0.53422161  0.71460623  1  0.0633  0  0.097898  0.147207  0  1.004567  0
H  H13  1  0.36676587  0.46556350  0.28532922  1  0.065986  0  0.097868  0.147219  0  1.003971  0
H  H14  1  0.55826880  0.32533522  0.34449458  1  0.060418  0  0.088479  0.129042  0  1.012001  0
H  H15  1  0.43065958  0.36297375  0.23593637  1  0.026064  0  0.087329  0.122621  0  1.006856  0
C  C16  1  0.66308032  0.70589193  0.48146204  1  1.627579  0  0.262156  0.661865  0  4.135441  0
C  C17  1  0.73904937  0.52902795  0.34484099  1  1.568117  0  0.266491  0.644251  0  4.086427  0
C  C18  1  0.33691819  0.29444356  0.51833507  1  1.627468  0  0.262279  0.660948  0  4.13377  0
C  C19  1  0.26096063  0.47115367  0.65505539  1  1.565712  0  0.266262  0.644028  0  4.085721  0
C  C20  1  0.22625035  0.47993014  0.74245366  1  -0.065701  0  -0.012836  -0.108349  0  3.897442  0
C  C21  1  0.06572672  0.43099943  0.79165643  1  0.01237  0  -0.078835  -0.072348  0  3.997529  0
C  C22  1  0.01276075  0.43850523  0.87137020  1  -0.047337  0  -0.087655  -0.154512  0  3.973713  0
C  C23  1  0.12249266  0.49712157  0.90353060  1  0.344196  0  0.08784  0.180729  0  4.063713  0
C  C24  1  0.28451898  0.54413553  0.85594114  1  -0.012005  0  -0.082928  -0.211498  0  3.906349  0
C  C25  1  0.33915317  0.53826906  0.77470598  1  0.006538  0  0.006121  0.180056  0  3.920233  0
C  C26  1  0.71587521  0.45547381  0.14426475  1  -0.012523  0  -0.083022  -0.211045  0  3.906082  0
C  C27  1  0.87790493  0.50245373  0.09665303  1  0.344028  0  0.087716  0.179896  0  4.065176  0
C  C28  1  0.98745247  0.56122900  0.12872444  1  -0.042159  0  -0.087828  -0.154771  0  3.974409  0
C  C29  1  0.93436731  0.56887370  0.20837294  1  0.012622  0  -0.078685  -0.072054  0  3.998268  0
C  C30  1  0.77384243  0.51999763  0.25755206  1  -0.065497  0  -0.012948  -0.108445  0  3.899207  0
C  C31  1  0.66104148  0.46151438  0.22541303  1  0.00379  0  0.006193  0.179947  0  3.920067  0
C  C32  1  0.59281014  0.08765664  0.54584659  1  0.169731  0  0.009814  0.099669  0  4.088076  0
C  C33  1  0.40676185  0.91245680  0.45421365  1  0.171634  0  0.009931  0.099877  0  4.087785  0
C  C34  1  0.40305204  0.17719743  0.51431889  1  -0.140517  0  -0.02261  -0.191577  0  3.936338  0
C  C35  1  0.59668463  0.82301744  0.48562096  1  -0.140628  0  -0.022901  -0.192561  0  3.937192  0
C  C36  1  0.40528195  0.00918429  0.47603003  1  -0.109983  0  -0.027978  -0.075906  0  4.09982  0
C  C37  1  0.59417393  0.99081759  0.52416286  1  -0.170748  0  -0.028136  -0.076088  0  4.100323  0
C  C38  1  0.50579039  0.59863157  0.72513491  1  -0.047668  0  -0.243268  -0.414369  0  3.963035  0
C  C39  1  0.49436265  0.40113521  0.27492458  1  -0.047292  0  -0.242994  -0.414139  0  3.961447  0
S  S40  1  0.22641986  0.14336258  0.45808269  1  0.31685  0  0.108291  0.173073  0  2.835345  0
S  S41  1  0.77316298  0.85677647  0.54198121  1  0.316997  0  0.108163  0.17307  0  2.836318  0
N  N42  1  0.08210053  0.51378342  0.98266282  1  -0.498572  0  -0.148928  -0.136825  0  3.272546  0
N  N43  1  0.91834109  0.48572591  0.01756478  1  -0.471643  0  -0.14891  -0.135562  0  3.272999  0
Cl  Cl44  1  0.80187734  0.08668732  0.60600969  1  -0.174769  0  0.022403  -0.027224  0  1.559085  0
Cl  Cl45  1  0.19775895  0.91345402  0.39398707  1  -0.174514  0  0.022501  -0.02703  0  1.55869  0
O  O46  1  0.52309461  0.66496863  0.46207942  1  -1.252824  0  -0.233994  -0.592623  0  2.375952  0
O  O47  1  0.88114882  0.55741275  0.37675413  1  -1.278296  0  -0.247232  -0.616089  0  2.36595  0
O  O48  1  0.14176492  0.34705850  0.50042753  1  -1.254277  0  -0.235358  -0.582243  0  2.324773  0
O  O49  1  0.42620386  0.49200340  0.61699114  1  -1.252325  0  -0.230911  -0.576418  0  2.355486  0
O  O50  1  0.47706805  0.33551792  0.53741130  1  -1.253099  0  -0.233796  -0.591641  0  2.374813  0
O  O51  1  0.11899267  0.44264630  0.62317605  1  -1.277455  0  -0.246972  -0.615811  0  2.365619  0
O  O52  1  0.85818996  0.65318001  0.49958899  1  -1.255133  0  -0.235014  -0.581957  0  2.324896  0
O  O53  1  0.57351302  0.50852851  0.38274765  1  -1.25419  0  -0.230958  -0.576265  0  2.355626  0
O  O54  1  0.22130116  0.56870527  0.45026182  1  -1.442506  0  -0.447761  -0.985  0  2.18998  0
O  O55  1  0.77839431  0.43172792  0.54961207  1  -1.44736  0  -0.447554  -0.984535  0  2.189872  0
