# generated using pymatgen
data_DyH14C14N3O9F4
_symmetry_space_group_name_H-M   'P 1'
_cell_length_a   11.33020798
_cell_length_b   12.33108709
_cell_length_c   20.13139214
_cell_angle_alpha   73.71448903
_cell_angle_beta   73.64938323
_cell_angle_gamma   62.64005486
_symmetry_Int_Tables_number   1
_chemical_formula_structural   DyH14C14N3O9F4
_chemical_formula_sum   'Dy4 H56 C56 N12 O36 F16'
_cell_volume   2359.02714392
_cell_formula_units_Z   4
loop_
 _symmetry_equiv_pos_site_id
 _symmetry_equiv_pos_as_xyz
  1  'x, y, z'
loop_
 _atom_site_type_symbol
 _atom_site_label
 _atom_site_symmetry_multiplicity
 _atom_site_fract_x
 _atom_site_fract_y
 _atom_site_fract_z
 _atom_site_occupancy
 _atom_site_pbe_bader_charge
 _atom_site_pbe_bader_spin_density
 _atom_site_pbe_cm5_charge
 _atom_site_pbe_ddec_charge
 _atom_site_pbe_ddec_spin_density
 _atom_site_pbe_ddec_sum_bond_order
 _atom_site_pbe_magmom
Dy  Dy0  1  0.05837697  0.10851454  0.69621927  1  2.184673  0  1.527088  2.035762  0  2.169976  0
Dy  Dy1  1  0.86314054  0.39145934  0.80377216  1  2.177558  0  1.526826  2.034571  0  2.170666  0
Dy  Dy2  1  0.94162344  0.89148394  0.30378065  1  2.184664  0  1.52711  2.035743  0  2.17002  0
Dy  Dy3  1  0.13685862  0.60854193  0.19622698  1  2.177555  0  1.526845  2.034589  0  2.170642  0
H  H4  1  0.40000143  0.02677201  0.61290046  1  0.091706  0  0.128802  0.052068  0  0.983793  0
H  H5  1  0.03976982  0.47317807  0.88702906  1  0.096444  0  0.128992  0.052069  0  0.983365  0
H  H6  1  0.59999672  0.97322740  0.38710065  1  0.09174  0  0.128839  0.052115  0  0.983785  0
H  H7  1  0.96023201  0.52682134  0.11297047  1  0.096456  0  0.128976  0.052094  0  0.983346  0
H  H8  1  0.53917203  0.65645804  0.65952505  1  0.08212  0  0.106695  0.1273  0  0.994467  0
H  H9  1  0.85534335  0.84353947  0.84048376  1  0.076666  0  0.106956  0.128022  0  0.995445  0
H  H10  1  0.46082705  0.34354136  0.34047392  1  0.08223  0  0.106714  0.127309  0  0.994435  0
H  H11  1  0.14465714  0.15646087  0.15951582  1  0.076653  0  0.106949  0.128008  0  0.995451  0
H  H12  1  0.47585201  0.68822859  0.58143102  1  0.072896  0  0.108394  0.12601  0  0.973469  0
H  H13  1  0.74569638  0.81175500  0.91858436  1  0.056297  0  0.109014  0.127198  0  0.973688  0
H  H14  1  0.52414756  0.31177174  0.41856821  1  0.072925  0  0.108405  0.126045  0  0.973453  0
H  H15  1  0.25430453  0.18824440  0.08141582  1  0.056294  0  0.109016  0.127209  0  0.973688  0
H  H16  1  0.36082654  0.74003161  0.65945158  1  0.097038  0  0.114795  0.133773  0  1.011854  0
H  H17  1  0.76037013  0.76011361  0.84052506  1  0.089981  0  0.114372  0.133423  0  1.009588  0
H  H18  1  0.63917387  0.25996687  0.34054785  1  0.097033  0  0.114791  0.133766  0  1.011862  0
H  H19  1  0.23962987  0.23988580  0.15947476  1  0.089978  0  0.114416  0.133515  0  1.009606  0
H  H20  1  0.59685177  0.93526252  0.54825718  1  0.062003  0  0.110205  0.121837  0  0.994522  0
H  H21  1  0.08045991  0.56457839  0.95173897  1  0.0721  0  0.109697  0.122242  0  0.993409  0
H  H22  1  0.40314688  0.06473782  0.45174369  1  0.062002  0  0.110164  0.121777  0  0.994561  0
H  H23  1  0.91954100  0.43542102  0.04826071  1  0.072064  0  0.109682  0.122223  0  0.993427  0
H  H24  1  0.59645413  0.82479891  0.50676423  1  0.05637  0  0.102763  0.117302  0  0.996525  0
H  H25  1  0.92802500  0.67505653  0.99321590  1  0.081299  0  0.103178  0.118197  0  0.995801  0
H  H26  1  0.40354637  0.17520143  0.49323586  1  0.056359  0  0.102768  0.117286  0  0.996508  0
H  H27  1  0.07197633  0.32494195  0.00678387  1  0.081284  0  0.103168  0.118166  0  0.995843  0
H  H28  1  0.68640496  0.77317109  0.57669353  1  0.070645  0  0.106537  0.125266  0  1.01746  0
H  H29  1  0.03636833  0.72669108  0.92334034  1  0.083967  0  0.106593  0.125776  0  1.016664  0
H  H30  1  0.31359411  0.22682832  0.42330694  1  0.070643  0  0.106532  0.125225  0  1.01748  0
H  H31  1  0.96363350  0.27330833  0.07665969  1  0.084241  0  0.106596  0.125778  0  1.016662  0
H  H32  1  0.82915818  0.01024334  0.68100289  1  0.136746  0  0.124026  0.048679  0  1.019033  0
H  H33  1  0.52048500  0.48980324  0.81895430  1  0.115223  0  0.123974  0.048137  0  1.019106  0
H  H34  1  0.17084272  0.98975607  0.31899779  1  0.136743  0  0.124017  0.048667  0  1.019044  0
H  H35  1  0.47951517  0.51019988  0.18104387  1  0.115177  0  0.123963  0.048144  0  1.019112  0
H  H36  1  0.71428019  0.91122244  0.68065685  1  0.043615  0  0.103203  0.11122  0  1.001904  0
H  H37  1  0.30620877  0.58882476  0.81934363  1  0.034904  0  0.10298  0.110567  0  1.002481  0
H  H38  1  0.28572030  0.08877789  0.31934373  1  0.04361  0  0.103206  0.111232  0  1.001898  0
H  H39  1  0.69379080  0.41117558  0.18065759  1  0.034896  0  0.102972  0.110541  0  1.002476  0
H  H40  1  0.77458747  0.75157078  0.72368149  1  0.083728  0  0.110812  0.13332  0  1.004275  0
H  H41  1  0.24985102  0.74848722  0.77631832  1  0.107567  0  0.110341  0.131826  0  1.005689  0
H  H42  1  0.22541210  0.24842956  0.27631874  1  0.083741  0  0.110823  0.133334  0  1.004268  0
H  H43  1  0.75014898  0.25151219  0.22368200  1  0.10755  0  0.110328  0.131798  0  1.005717  0
H  H44  1  0.80788502  0.78859845  0.63039982  1  0.088529  0  0.103655  0.127243  0  1.036954  0
H  H45  1  0.22693232  0.71148090  0.86958624  1  0.059936  0  0.103442  0.126525  0  1.036574  0
H  H46  1  0.19211455  0.21140189  0.36960090  1  0.088498  0  0.103636  0.127206  0  1.036972  0
H  H47  1  0.77306633  0.28851944  0.13041463  1  0.059957  0  0.103464  0.126564  0  1.03655  0
H  H48  1  0.12417002  0.71993314  0.69130652  1  0.083273  0  0.10688  0.124119  0  1.013407  0
H  H49  1  0.53550054  0.78005397  0.80866066  1  0.070117  0  0.107767  0.125233  0  1.012243  0
H  H50  1  0.87582997  0.28006627  0.30869331  1  0.083272  0  0.106878  0.124102  0  1.013416  0
H  H51  1  0.46449677  0.21994730  0.19134125  1  0.070085  0  0.107769  0.125247  0  1.012256  0
H  H52  1  0.07406874  0.68136509  0.62725073  1  0.074529  0  0.106303  0.129604  0  0.982972  0
H  H53  1  0.38276837  0.81861905  0.87273391  1  0.088153  0  0.106547  0.129715  0  0.982953  0
H  H54  1  0.92593084  0.31863524  0.37274950  1  0.074534  0  0.1063  0.129596  0  0.982973  0
H  H55  1  0.61722978  0.18138037  0.12726869  1  0.088218  0  0.106565  0.129748  0  0.982954  0
H  H56  1  0.02186422  0.63300236  0.71860337  1  0.090806  0  0.106723  0.127527  0  1.0259  0
H  H57  1  0.37354652  0.86703624  0.78137983  1  0.093265  0  0.106738  0.127439  0  1.025571  0
H  H58  1  0.97813628  0.36699798  0.28139572  1  0.09073  0  0.106709  0.127505  0  1.025916  0
H  H59  1  0.62645213  0.13296411  0.21862253  1  0.093263  0  0.106745  0.127411  0  1.025595  0
C  C60  1  0.20307251  0.25006179  0.74993768  1  1.671599  0  0.235628  0.691641  0  4.139768  0
C  C61  1  0.79692984  0.74993854  0.25005963  1  1.67174  0  0.235585  0.691542  0  4.139783  0
C  C62  1  0.33680190  0.25009010  0.74988948  1  0.113819  0  -0.024479  -0.205414  0  3.993221  0
C  C63  1  0.66319810  0.74990931  0.25010935  1  0.113736  0  -0.024502  -0.205412  0  3.993231  0
C  C64  1  0.44065703  0.14399764  0.77739231  1  0.52548  0  0.09174  0.152973  0  4.101617  0
C  C65  1  0.36209094  0.35615761  0.72240542  1  0.499542  0  0.091188  0.151976  0  4.100574  0
C  C66  1  0.55934389  0.85600177  0.22260638  1  0.525415  0  0.091719  0.152941  0  4.10179  0
C  C67  1  0.63790772  0.64384272  0.27759346  1  0.499502  0  0.091237  0.152074  0  4.100571  0
C  C68  1  0.56313042  0.14430208  0.77789201  1  0.509262  0  0.0892  0.148071  0  4.103003  0
C  C69  1  0.48532778  0.35587590  0.72197713  1  0.520416  0  0.08981  0.149142  0  4.100907  0
C  C70  1  0.43687100  0.85569826  0.22210644  1  0.509291  0  0.089174  0.148057  0  4.103107  0
C  C71  1  0.51467364  0.64412444  0.27802281  1  0.520431  0  0.089746  0.149079  0  4.100835  0
C  C72  1  0.58901033  0.25007045  0.74993810  1  0.114184  0  -0.023338  -0.208922  0  3.996926  0
C  C73  1  0.41098925  0.74992989  0.25006114  1  0.114189  0  -0.023312  -0.208914  0  3.996866  0
C  C74  1  0.72231568  0.25004338  0.74999411  1  1.689097  0  0.242436  0.696605  0  4.124546  0
C  C75  1  0.27768389  0.74995696  0.25000662  1  1.689096  0  0.242441  0.696612  0  4.124551  0
C  C76  1  0.92704075  0.43846324  0.65237223  1  1.633357  0  0.225859  0.668375  0  4.160683  0
C  C77  1  0.01769398  0.06153652  0.84763201  1  1.619005  0  0.225878  0.667076  0  4.164606  0
C  C78  1  0.07295933  0.56153802  0.34762776  1  1.633356  0  0.225883  0.668371  0  4.160668  0
C  C79  1  0.98230693  0.93846289  0.15236866  1  1.619012  0  0.225824  0.666911  0  4.164771  0
C  C80  1  0.96499966  0.46938953  0.57376869  1  0.063312  0  -0.020748  -0.202271  0  4.001427  0
C  C81  1  0.00803972  0.03061708  0.92623437  1  0.033679  0  -0.018984  -0.199429  0  4.00295  0
C  C82  1  0.03499992  0.53061081  0.42623055  1  0.06306  0  -0.020763  -0.202341  0  4.001505  0
C  C83  1  0.99196170  0.96938325  0.07376606  1  0.03393  0  -0.018952  -0.199454  0  4.003029  0
C  C84  1  0.09627012  0.45530656  0.54197495  1  0.583457  0  0.095242  0.16311  0  4.08403  0
C  C85  1  0.09345999  0.04475223  0.95796667  1  0.566731  0  0.096182  0.164537  0  4.086648  0
C  C86  1  0.90373088  0.54469470  0.45802440  1  0.58375  0  0.095282  0.163172  0  4.084089  0
C  C87  1  0.90653958  0.95524811  0.04203356  1  0.566552  0  0.096205  0.164559  0  4.086665  0
C  C88  1  0.13036948  0.48589871  0.46936397  1  0.548076  0  0.095851  0.161386  0  4.080629  0
C  C89  1  0.08566024  0.01415628  0.03057614  1  0.601021  0  0.094264  0.15872  0  4.086542  0
C  C90  1  0.86962977  0.51410440  0.53063484  1  0.548225  0  0.09584  0.161305  0  4.080725  0
C  C91  1  0.91434025  0.98584406  0.96942394  1  0.601027  0  0.094241  0.158645  0  4.086637  0
C  C92  1  0.37995748  0.94272276  0.63282306  1  1.394506  0  0.188242  0.325853  0  4.094415  0
C  C93  1  0.95554615  0.55724911  0.86715171  1  1.379365  0  0.188526  0.326738  0  4.092344  0
C  C94  1  0.62004242  0.05727480  0.36717660  1  1.394341  0  0.188224  0.325817  0  4.094352  0
C  C95  1  0.04445384  0.44275030  0.13284862  1  1.37934  0  0.188476  0.326577  0  4.092518  0
C  C96  1  0.46161512  0.72446157  0.62843155  1  0.255286  0  -0.130534  -0.272287  0  3.879595  0
C  C97  1  0.81463485  0.77557664  0.87155133  1  0.28323  0  -0.130944  -0.274176  0  3.877385  0
C  C98  1  0.53838437  0.27553691  0.37156802  1  0.255119  0  -0.130546  -0.272279  0  3.879629  0
C  C99  1  0.18536698  0.22442276  0.12844870  1  0.283223  0  -0.130987  -0.274278  0  3.877498  0
C  C100  1  0.59471212  0.84427343  0.55714661  1  0.298838  0  -0.131018  -0.284868  0  3.936776  0
C  C101  1  0.99622934  0.65560234  0.94284969  1  0.253688  0  -0.130563  -0.286653  0  3.935029  0
C  C102  1  0.40528745  0.15572691  0.44285362  1  0.298821  0  -0.130966  -0.284696  0  3.936771  0
C  C103  1  0.00377249  0.34439707  0.05715034  1  0.253402  0  -0.130539  -0.286601  0  3.935052  0
C  C104  1  0.92647870  0.92841564  0.68133671  1  1.345687  0  0.183247  0.325669  0  4.087715  0
C  C105  1  0.53628602  0.57161763  0.81861797  1  1.36359  0  0.183171  0.324441  0  4.086518  0
C  C106  1  0.07352129  0.07158377  0.31866411  1  1.345684  0  0.183243  0.325659  0  4.087718  0
C  C107  1  0.46371540  0.42838270  0.18138048  1  1.36384  0  0.183103  0.324339  0  4.086715  0
C  C108  1  0.79696686  0.81861194  0.67893236  1  0.269077  0  -0.132519  -0.285004  0  3.892213  0
C  C109  1  0.29454999  0.68144398  0.82105543  1  0.285389  0  -0.131927  -0.28351  0  3.892292  0
C  C110  1  0.20303312  0.18138747  0.32106846  1  0.269069  0  -0.132519  -0.285008  0  3.892219  0
C  C111  1  0.70544999  0.31855543  0.17894539  1  0.285386  0  -0.131934  -0.283489  0  3.892269  0
C  C112  1  0.04344502  0.70682524  0.67958465  1  0.262974  0  -0.134785  -0.272877  0  3.869785  0
C  C113  1  0.42993532  0.79317880  0.82038768  1  0.253856  0  -0.135681  -0.275121  0  3.868005  0
C  C114  1  0.95655364  0.29317510  0.32041523  1  0.263044  0  -0.134764  -0.27283  0  3.869734  0
C  C115  1  0.57006241  0.20682155  0.17961432  1  0.253849  0  -0.135708  -0.275139  0  3.868024  0
N  N116  1  0.47495979  0.84193237  0.60745282  1  -1.223324  0  -0.275762  0.039017  0  3.71  0
N  N117  1  0.92446644  0.65804231  0.89250443  1  -1.220459  0  -0.276181  0.03907  0  3.703272  0
N  N118  1  0.52503836  0.15806704  0.39254780  1  -1.223236  0  -0.275793  0.038885  0  3.710136  0
N  N119  1  0.07553539  0.34195710  0.10749560  1  -1.220384  0  -0.276185  0.039086  0  3.70332  0
N  N120  1  0.92228186  0.82253088  0.68095623  1  -1.218147  0  -0.274717  0.04446  0  3.708616  0
N  N121  1  0.42581097  0.67752150  0.81899481  1  -1.210947  0  -0.273393  0.049623  0  3.703383  0
N  N122  1  0.07771813  0.17746853  0.31904409  1  -1.218108  0  -0.274705  0.044489  0  3.708568  0
N  N123  1  0.57418819  0.32247976  0.18100533  1  -1.211177  0  -0.273387  0.049618  0  3.703409  0
N  N124  1  0.06262667  0.18884779  0.54624608  1  0.826029  0  0.081711  0.727251  0  4.43325  0
N  N125  1  0.79779888  0.31103198  0.95372272  1  0.827538  0  0.080588  0.724433  0  4.437965  0
N  N126  1  0.93737106  0.81115255  0.45375394  1  0.826169  0  0.08172  0.727195  0  4.433407  0
N  N127  1  0.20220069  0.68896836  0.04627751  1  0.827458  0  0.080679  0.724528  0  4.43794  0
O  O128  1  0.21049534  0.16593592  0.72256786  1  -1.167203  0  -0.378184  -0.647171  0  2.273171  0
O  O129  1  0.09904177  0.33413396  0.77738367  1  -1.185282  0  -0.377311  -0.645289  0  2.272986  0
O  O130  1  0.78950599  0.83406256  0.27743192  1  -1.167175  0  -0.378101  -0.647043  0  2.273199  0
O  O131  1  0.90095864  0.66586452  0.22261575  1  -1.185334  0  -0.377362  -0.645345  0  2.273054  0
O  O132  1  0.82714335  0.15842624  0.73037866  1  -1.181611  0  -0.377825  -0.637951  0  2.33285  0
O  O133  1  0.71596005  0.34157333  0.76966162  1  -1.175355  0  -0.377922  -0.638492  0  2.334609  0
O  O134  1  0.17285622  0.84157410  0.26962207  1  -1.181629  0  -0.377833  -0.63793  0  2.332841  0
O  O135  1  0.28403953  0.65842700  0.23033811  1  -1.175336  0  -0.377919  -0.638492  0  2.334564  0
O  O136  1  0.96305436  0.32469941  0.68136471  1  -1.204572  0  -0.417056  -0.728111  0  2.483054  0
O  O137  1  0.96908688  0.17529731  0.81863477  1  -1.202229  0  -0.417092  -0.728153  0  2.484312  0
O  O138  1  0.03694430  0.67530092  0.31863368  1  -1.204624  0  -0.417098  -0.72813  0  2.483058  0
O  O139  1  0.03091361  0.82470303  0.18136581  1  -1.202235  0  -0.417103  -0.728146  0  2.484459  0
O  O140  1  0.86219036  0.52487268  0.68749330  1  -1.151659  0  -0.341849  -0.577411  0  2.149504  0
O  O141  1  0.07431433  0.97511680  0.81252155  1  -1.13893  0  -0.342461  -0.5776  0  2.152108  0
O  O142  1  0.13781197  0.47512765  0.31250600  1  -1.151637  0  -0.341859  -0.577402  0  2.149494  0
O  O143  1  0.92568524  0.02488354  0.18747868  1  -1.138945  0  -0.34242  -0.577463  0  2.152116  0
O  O144  1  0.27528965  0.94404270  0.67606929  1  -1.172935  0  -0.367353  -0.547785  0  2.419935  0
O  O145  1  0.89539711  0.55596933  0.82392613  1  -1.166276  0  -0.367567  -0.548525  0  2.421034  0
O  O146  1  0.72470933  0.05595485  0.32393201  1  -1.17282  0  -0.367364  -0.547744  0  2.419824  0
O  O147  1  0.10460380  0.44403008  0.17607454  1  -1.166257  0  -0.367519  -0.548412  0  2.42116  0
O  O148  1  0.03178444  0.93745122  0.68313883  1  -1.168249  0  -0.382149  -0.561825  0  2.369982  0
O  O149  1  0.65245137  0.56257818  0.81677036  1  -1.169869  0  -0.38298  -0.562417  0  2.371118  0
O  O150  1  0.96821422  0.06254911  0.31686204  1  -1.168253  0  -0.382154  -0.56184  0  2.369964  0
O  O151  1  0.34755014  0.43742400  0.18322627  1  -1.169887  0  -0.382902  -0.562332  0  2.371146  0
O  O152  1  0.95904813  0.17826890  0.58855906  1  -0.558171  0  -0.238652  -0.507994  0  1.988094  0
O  O153  1  0.72576297  0.32187620  0.91144695  1  -0.560504  0  -0.238108  -0.506562  0  1.99144  0
O  O154  1  0.04094869  0.82173144  0.41143962  1  -0.558268  0  -0.238629  -0.507953  0  1.988186  0
O  O155  1  0.27423619  0.67812507  0.08855319  1  -0.560503  0  -0.238138  -0.506579  0  1.991494  0
O  O156  1  0.06600051  0.22461037  0.48222541  1  -0.478995  0  -0.152813  -0.38655  0  1.965976  0
O  O157  1  0.77296643  0.27518060  0.01773895  1  -0.481949  0  -0.153179  -0.386743  0  1.965406  0
O  O158  1  0.93399681  0.77539089  0.51777452  1  -0.478978  0  -0.152803  -0.386512  0  1.965994  0
O  O159  1  0.22703449  0.72481880  0.98226073  1  -0.481868  0  -0.153221  -0.386803  0  1.965387  0
O  O160  1  0.16472698  0.16042100  0.57476377  1  -0.600842  0  -0.257478  -0.555658  0  2.026685  0
O  O161  1  0.90009558  0.33930106  0.92518628  1  -0.596403  0  -0.256696  -0.553714  0  2.027541  0
O  O162  1  0.83527167  0.83957934  0.42523660  1  -0.600879  0  -0.257493  -0.555654  0  2.02676  0
O  O163  1  0.09990400  0.66069927  0.07481345  1  -0.596412  0  -0.256715  -0.55373  0  2.027495  0
F  F164  1  0.42337519  0.03799654  0.80607374  1  -0.614446  0  -0.077179  -0.0987  0  1.432289  0
F  F165  1  0.26747732  0.46219053  0.69370860  1  -0.62581  0  -0.076595  -0.098295  0  1.431633  0
F  F166  1  0.57662388  0.96200286  0.19392524  1  -0.614445  0  -0.077144  -0.098662  0  1.432394  0
F  F167  1  0.73252318  0.53780980  0.30629099  1  -0.625787  0  -0.076617  -0.098339  0  1.431543  0
F  F168  1  0.65667807  0.03877871  0.80803272  1  -0.625361  0  -0.076797  -0.102609  0  1.42363  0
F  F169  1  0.50347674  0.46142506  0.69188168  1  -0.62362  0  -0.077298  -0.103161  0  1.424269  0
F  F170  1  0.34332276  0.96121884  0.19196680  1  -0.625358  0  -0.076785  -0.102601  0  1.423734  0
F  F171  1  0.49652325  0.53857435  0.30811963  1  -0.623614  0  -0.077266  -0.103162  0  1.424149  0
F  F172  1  0.19212916  0.41280224  0.58190415  1  -0.621267  0  -0.083539  -0.104554  0  1.379923  0
F  F173  1  0.18668412  0.08728750  0.91797862  1  -0.623122  0  -0.084892  -0.105963  0  1.3802  0
F  F174  1  0.80787226  0.58719809  0.41809480  1  -0.621265  0  -0.083536  -0.104546  0  1.379907  0
F  F175  1  0.81331679  0.91271191  0.08202205  1  -0.623127  0  -0.084909  -0.105965  0  1.380209  0
F  F176  1  0.25860373  0.47299401  0.44040088  1  -0.621454  0  -0.082532  -0.110536  0  1.381332  0
F  F177  1  0.17205760  0.02713519  0.05946739  1  -0.624338  0  -0.081973  -0.109743  0  1.383438  0
F  F178  1  0.74139768  0.52700632  0.55959807  1  -0.621502  0  -0.082565  -0.110536  0  1.381376  0
F  F179  1  0.82794331  0.97286422  0.94053329  1  -0.624322  0  -0.081962  -0.109726  0  1.383511  0
