# generated using pymatgen
data_SmH22C21S3N3O8
_symmetry_space_group_name_H-M   'P 1'
_cell_length_a   9.07282382
_cell_length_b   11.73370031
_cell_length_c   12.05826956
_cell_angle_alpha   80.17861822
_cell_angle_beta   74.17167810
_cell_angle_gamma   84.41227407
_symmetry_Int_Tables_number   1
_chemical_formula_structural   SmH22C21S3N3O8
_chemical_formula_sum   'Sm2 H44 C42 S6 N6 O16'
_cell_volume   1215.17157574
_cell_formula_units_Z   2
loop_
 _symmetry_equiv_pos_site_id
 _symmetry_equiv_pos_as_xyz
  1  'x, y, z'
loop_
 _atom_site_type_symbol
 _atom_site_label
 _atom_site_symmetry_multiplicity
 _atom_site_fract_x
 _atom_site_fract_y
 _atom_site_fract_z
 _atom_site_occupancy
 _atom_site_hle17_bader_spin_density
 _atom_site_hle17_ddec_charge
 _atom_site_hle17_ddec_spin_density
 _atom_site_hle17_ddec_sum_bond_order
 _atom_site_hle17_magmom
 _atom_site_hse06_10hf_bader_spin_density
 _atom_site_hse06_10hf_ddec_charge
 _atom_site_hse06_10hf_ddec_spin_density
 _atom_site_hse06_10hf_ddec_sum_bond_order
 _atom_site_hse06_10hf_magmom
 _atom_site_hse06_bader_spin_density
 _atom_site_hse06_ddec_charge
 _atom_site_hse06_ddec_spin_density
 _atom_site_hse06_ddec_sum_bond_order
 _atom_site_hse06_magmom
 _atom_site_pbe_bader_spin_density
 _atom_site_pbe_cm5_charge
 _atom_site_pbe_ddec_charge
 _atom_site_pbe_ddec_spin_density
 _atom_site_pbe_ddec_sum_bond_order
 _atom_site_pbe_magmom
Sm  Sm0  1  0.23308188  0.51427115  0.49162536  1  0  2.309909  0  1.581697  0  0  2.221174  0  1.919173  0  0  2.265511  0  1.878319  0  0  1.487964  2.120767  0  2.075032  0
Sm  Sm1  1  0.76691812  0.48572914  0.50837572  1  0  2.309922  0  1.581669  0  0  2.221188  0  1.919143  0  0  2.265522  0  1.878293  0  0  1.487987  2.120843  0  2.074887  0
H  H2  1  0.60720739  0.36806146  0.92164495  1  0  0.104146  0  1.008353  0  0  0.1066  0  1.082939  0  0  0.11076  0  1.081305  0  0  0.093005  0.103436  0  1.084473  0
H  H3  1  0.39279725  0.63193794  0.07835366  1  0  0.10417  0  1.008381  0  0  0.106634  0  1.082933  0  0  0.110794  0  1.081289  0  0  0.09302  0.103431  0  1.084489  0
H  H4  1  0.45747257  0.47063725  0.79205663  1  0  0.083751  0  0.975592  0  0  0.092904  0  1.038623  0  0  0.095997  0  1.035965  0  0  0.116796  0.09054  0  1.040822  0
H  H5  1  0.54252962  0.52936476  0.20794371  1  0  0.083736  0  0.975578  0  0  0.092882  0  1.038623  0  0  0.095976  0  1.035967  0  0  0.116792  0.090518  0  1.040824  0
H  H6  1  0.04582971  0.40997847  0.04441664  1  0  0.06062  0  0.954539  0  0  0.068874  0  1.024212  0  0  0.071329  0  1.021375  0  0  0.104087  0.066904  0  1.026561  0
H  H7  1  0.95417390  0.59001920  0.95558331  1  0  0.060625  0  0.954486  0  0  0.068886  0  1.024151  0  0  0.071343  0  1.021312  0  0  0.10409  0.066889  0  1.026527  0
H  H8  1  0.17954926  0.30967079  0.18915392  1  0  0.117972  0  0.947163  0  0  0.130888  0  1.001723  0  0  0.13402  0  1.001146  0  0  0.109542  0.128373  0  1.002924  0
H  H9  1  0.82045544  0.69032774  0.81084483  1  0  0.117976  0  0.947134  0  0  0.13089  0  1.00169  0  0  0.134031  0  1.001111  0  0  0.109525  0.128376  0  1.002893  0
H  H10  1  0.30874028  0.16863259  0.29302303  1  0  0.128622  0  0.997592  0  0  0.126858  0  1.077044  0  0  0.131442  0  1.073267  0  0  0.100376  0.123648  0  1.079911  0
H  H11  1  0.69126202  0.83136768  0.70697426  1  0  0.128603  0  0.997644  0  0  0.126841  0  1.077087  0  0  0.131426  0  1.07331  0  0  0.100387  0.123631  0  1.079954  0
H  H12  1  0.47630534  0.16640311  0.34298114  1  0  0.130376  0  0.922713  0  0  0.147099  0  0.976395  0  0  0.148445  0  0.977625  0  0  0.110079  0.146191  0  0.975649  0
H  H13  1  0.52369473  0.83359631  0.65701841  1  0  0.130374  0  0.922725  0  0  0.147087  0  0.976414  0  0  0.148434  0  0.977643  0  0  0.11007  0.14618  0  0.975666  0
H  H14  1  0.32967130  0.91976067  0.99585759  1  0  0.088119  0  1.008427  0  0  0.089893  0  1.088431  0  0  0.093665  0  1.086812  0  0  0.089012  0.087023  0  1.089982  0
H  H15  1  0.67032865  0.08024048  0.00414169  1  0  0.088128  0  1.008411  0  0  0.089895  0  1.088434  0  0  0.093666  0  1.086816  0  0  0.089025  0.087026  0  1.089988  0
H  H16  1  0.37542464  0.07638796  0.09484334  1  0  0.056579  0  0.973132  0  0  0.060273  0  1.048369  0  0  0.062929  0  1.046285  0  0  0.097759  0.058454  0  1.049409  0
H  H17  1  0.62457537  0.92361232  0.90515608  1  0  0.056619  0  0.973062  0  0  0.060298  0  1.048316  0  0  0.062955  0  1.046229  0  0  0.097775  0.058478  0  1.049357  0
H  H18  1  0.05905558  0.95431841  0.40148148  1  0  0.065831  0  0.937686  0  0  0.075427  0  1.001006  0  0  0.077567  0  0.999299  0  0  0.108407  0.073679  0  1.002946  0
H  H19  1  0.94094328  0.04568188  0.59851817  1  0  0.065826  0  0.937687  0  0  0.075428  0  1.001002  0  0  0.077568  0  0.999296  0  0  0.108398  0.073678  0  1.002943  0
H  H20  1  0.99332591  0.79711258  0.31673024  1  0  0.122527  0  0.948779  0  0  0.13511  0  1.004007  0  0  0.138487  0  1.002634  0  0  0.113776  0.132781  0  1.004846  0
H  H21  1  0.00667295  0.20288770  0.68326858  1  0  0.122498  0  0.948848  0  0  0.135125  0  1.004013  0  0  0.138502  0  1.002639  0  0  0.113786  0.132796  0  1.004851  0
H  H22  1  0.90378884  0.67448284  0.23390647  1  0  0.137121  0  0.973373  0  0  0.139491  0  1.050111  0  0  0.143319  0  1.047759  0  0  0.106554  0.136756  0  1.051514  0
H  H23  1  0.09621116  0.32551745  0.76609377  1  0  0.137127  0  0.973374  0  0  0.139498  0  1.050118  0  0  0.143326  0  1.047767  0  0  0.106552  0.136762  0  1.051521  0
H  H24  1  0.99910726  0.56365294  0.15574277  1  0  0.133169  0  0.943817  0  0  0.146687  0  1.004129  0  0  0.148649  0  1.003535  0  0  0.114029  0.145101  0  1.005039  0
H  H25  1  0.00089274  0.43634735  0.84425831  1  0  0.133146  0  0.943839  0  0  0.146671  0  1.004155  0  0  0.148634  0  1.00356  0  0  0.114013  0.145084  0  1.005066  0
H  H26  1  0.38077204  0.12417884  0.54983902  1  0  0.11186  0  0.965216  0  0  0.123734  0  1.022927  0  0  0.12643  0  1.022963  0  0  0.106981  0.121616  0  1.023398  0
H  H27  1  0.61922682  0.87582145  0.45016146  1  0  0.111879  0  0.965234  0  0  0.123752  0  1.022941  0  0  0.126452  0  1.02297  0  0  0.106985  0.12163  0  1.023418  0
H  H28  1  0.30550597  0.97934930  0.45205830  1  0  0.070885  0  0.963937  0  0  0.077183  0  1.035543  0  0  0.079747  0  1.033228  0  0  0.11009  0.07532  0  1.037225  0
H  H29  1  0.69449169  0.02065186  0.54794228  1  0  0.070855  0  0.963972  0  0  0.077126  0  1.035603  0  0  0.07969  0  1.033287  0  0  0.110089  0.075266  0  1.037285  0
H  H30  1  0.10848737  0.78007807  0.76722902  1  0  0.079929  0  0.924009  0  0  0.090648  0  0.984617  0  0  0.093603  0  0.981561  0  0  0.115702  0.088391  0  0.987072  0
H  H31  1  0.89150800  0.21992309  0.23277120  1  0  0.079934  0  0.923983  0  0  0.090645  0  0.984601  0  0  0.09361  0  0.981531  0  0  0.11569  0.088391  0  0.987056  0
H  H32  1  0.16376837  0.92136933  0.87941378  1  0  0.104831  0  0.972006  0  0  0.114176  0  1.036144  0  0  0.117628  0  1.034767  0  0  0.099579  0.111663  0  1.037387  0
H  H33  1  0.83623043  0.07863183  0.12058739  1  0  0.104842  0  0.972006  0  0  0.114192  0  1.036134  0  0  0.117643  0  1.034759  0  0  0.099587  0.11168  0  1.037378  0
H  H34  1  0.54370873  0.23974659  0.76055269  1  0  0.147762  0  0.922329  0  0  0.16169  0  0.979121  0  0  0.163704  0  0.979479  0  0  0.117906  0.160144  0  0.979289  0
H  H35  1  0.45629133  0.76025283  0.23944852  1  0  0.147749  0  0.922386  0  0  0.161684  0  0.979181  0  0  0.163698  0  0.979539  0  0  0.117892  0.160137  0  0.979351  0
H  H36  1  0.56275978  0.14996425  0.65483030  1  0  0.129453  0  0.938824  0  0  0.142473  0  0.999992  0  0  0.143972  0  1.000228  0  0  0.1113  0.141343  0  0.999999  0
H  H37  1  0.43724148  0.85003431  0.34517081  1  0  0.129439  0  0.938836  0  0  0.142464  0  1.000016  0  0  0.143961  0  1.000254  0  0  0.111302  0.141333  0  1.000022  0
H  H38  1  0.36697609  0.59256263  0.66602252  1  0  0.438233  0  0.859775  0  0  0.406484  0  0.925999  0  0  0.417525  0  0.909767  0  0  0.297719  0.398542  0  0.937398  0
H  H39  1  0.63302277  0.40743766  0.33397796  1  0  0.438232  0  0.859778  0  0  0.406462  0  0.926034  0  0  0.417503  0  0.909803  0  0  0.297686  0.398519  0  0.937433  0
H  H40  1  0.23160792  0.52579491  0.75782563  1  0  0.408559  0  0.895828  0  0  0.371188  0  0.976535  0  0  0.381875  0  0.960764  0  0  0.289943  0.363298  0  0.987945  0
H  H41  1  0.76839214  0.47420451  0.24217475  1  0  0.408531  0  0.895857  0  0  0.371154  0  0.976584  0  0  0.38184  0  0.960814  0  0  0.289928  0.363263  0  0.987996  0
H  H42  1  0.14545961  0.76504394  0.54486912  1  0  0.39964  0  0.916488  0  0  0.358472  0  0.997369  0  0  0.369734  0  0.981267  0  0  0.283145  0.350338  0  1.008819  0
H  H43  1  0.85453925  0.23495635  0.45513136  1  0  0.399641  0  0.916483  0  0  0.358476  0  0.99736  0  0  0.369736  0  0.98126  0  0  0.283151  0.350341  0  1.008811  0
H  H44  1  0.99223451  0.70459358  0.54638656  1  0  0.444174  0  0.846804  0  0  0.416505  0  0.904595  0  0  0.427428  0  0.888406  0  0  0.303034  0.408492  0  0.916296  0
H  H45  1  0.00776555  0.29540583  0.45361299  1  0  0.444178  0  0.846791  0  0  0.416517  0  0.904569  0  0  0.427439  0  0.888384  0  0  0.303042  0.408503  0  0.916272  0
C  C46  1  0.40728040  0.32938989  0.06827251  1  0  0.079397  0  3.788883  0  0  0.097144  0  4.040104  0  0  0.103599  0  4.061143  0  0  0.005012  0.092751  0  4.025765  0
C  C47  1  0.59272545  0.67060864  0.93172684  1  0  0.079465  0  3.789101  0  0  0.097222  0  4.040286  0  0  0.103673  0  4.061332  0  0  0.005033  0.09283  0  4.025943  0
C  C48  1  0.48272955  0.37579426  0.95373920  1  0  -0.16733  0  3.730201  0  0  -0.182241  0  3.975282  0  0  -0.190009  0  3.99486  0  0  -0.098875  -0.176741  0  3.96213  0
C  C49  1  0.51727270  0.62420688  0.04625795  1  0  -0.167478  0  3.730262  0  0  -0.182398  0  3.975347  0  0  -0.190156  0  3.994909  0  0  -0.098912  -0.176861  0  3.962235  0
C  C50  1  0.39738941  0.43306462  0.87998959  1  0  0.11956  0  3.736083  0  0  0.093429  0  3.9893  0  0  0.100253  0  4.005455  0  0  0.032965  0.088844  0  3.978775  0
C  C51  1  0.60261168  0.56693653  0.12000863  1  0  0.119697  0  3.7359  0  0  0.093574  0  3.989122  0  0  0.100394  0  4.005278  0  0  0.032986  0.088988  0  3.978597  0
C  C52  1  0.17131769  0.40082756  0.01987653  1  0  0.117598  0  3.764643  0  0  0.090244  0  4.027935  0  0  0.097079  0  4.045471  0  0  0.032539  0.085708  0  4.016333  0
C  C53  1  0.82868461  0.59917272  0.98012324  1  0  0.117642  0  3.764528  0  0  0.090295  0  4.027795  0  0  0.097126  0  4.045333  0  0  0.032561  0.085782  0  4.016198  0
C  C54  1  0.24639843  0.34299562  0.10184959  1  0  -0.173033  0  3.70456  0  0  -0.18917  0  3.946268  0  0  -0.197104  0  3.967806  0  0  -0.096621  -0.18421  0  3.932342  0
C  C55  1  0.75360398  0.65700292  0.89814880  1  0  -0.173062  0  3.704705  0  0  -0.189203  0  3.946387  0  0  -0.197147  0  3.967937  0  0  -0.096618  -0.184235  0  3.932436  0
C  C56  1  0.40101649  0.22167822  0.29562613  1  0  -0.31456  0  3.631471  0  0  -0.339902  0  3.87844  0  0  -0.345146  0  3.883527  0  0  -0.15541  -0.336813  0  3.875525  0
C  C57  1  0.59898466  0.77832205  0.70437223  1  0  -0.314506  0  3.631527  0  0  -0.339835  0  3.878436  0  0  -0.345081  0  3.883526  0  0  -0.155401  -0.336752  0  3.875528  0
C  C58  1  0.34152235  0.32510485  0.35786990  1  0  0.716065  0  3.864866  0  0  0.66642  0  4.171284  0  0  0.699357  0  4.163725  0  0  0.200346  0.644934  0  4.169314  0
C  C59  1  0.65847886  0.67489456  0.64212942  1  0  0.716054  0  3.864973  0  0  0.666444  0  4.171346  0  0  0.699381  0  4.163788  0  0  0.200338  0.644956  0  4.169381  0
C  C60  1  0.15517588  0.84468525  0.14701595  1  0  0.082351  0  3.790271  0  0  0.099766  0  4.041143  0  0  0.106334  0  4.061192  0  0  0.003564  0.095264  0  4.027037  0
C  C61  1  0.84482304  0.15531417  0.85298383  1  0  0.082379  0  3.790311  0  0  0.099828  0  4.041132  0  0  0.106399  0  4.061178  0  0  0.00359  0.095328  0  4.02702  0
C  C62  1  0.26430114  0.92569064  0.08531523  1  0  -0.19389  0  3.760496  0  0  -0.208486  0  4.00519  0  0  -0.216259  0  4.025281  0  0  -0.105728  -0.203294  0  3.991936  0
C  C63  1  0.73569881  0.07431051  0.91468405  1  0  -0.193886  0  3.760497  0  0  -0.208492  0  4.005177  0  0  -0.216265  0  4.025267  0  0  -0.105716  -0.203302  0  3.991927  0
C  C64  1  0.29097178  0.01270213  0.14134069  1  0  0.119111  0  3.779112  0  0  0.09552  0  4.03666  0  0  0.102214  0  4.053773  0  0  0.029775  0.091108  0  4.024226  0
C  C65  1  0.70902943  0.98729728  0.85865779  1  0  0.119028  0  3.77912  0  0  0.095447  0  4.03667  0  0  0.102144  0  4.05378  0  0  0.029723  0.091035  0  4.024237  0
C  C66  1  0.11624524  0.94538128  0.31088467  1  0  0.129206  0  3.758375  0  0  0.103433  0  4.021275  0  0  0.110009  0  4.038445  0  0  0.037375  0.0983  0  4.011228  0
C  C67  1  0.88375471  0.05461987  0.68911461  1  0  0.129164  0  3.758374  0  0  0.103377  0  4.021298  0  0  0.109953  0  4.038469  0  0  0.037365  0.098244  0  4.01125  0
C  C68  1  0.07921551  0.85594166  0.26294065  1  0  -0.162072  0  3.717275  0  0  -0.180671  0  3.963171  0  0  -0.187985  0  3.984357  0  0  -0.091712  -0.175652  0  3.948498  0
C  C69  1  0.92078450  0.14405862  0.73705877  1  0  -0.162059  0  3.717338  0  0  -0.180698  0  3.963229  0  0  -0.188013  0  3.984416  0  0  -0.091727  -0.175678  0  3.948551  0
C  C70  1  0.01822599  0.63692094  0.19504147  1  0  -0.323203  0  3.644834  0  0  -0.351933  0  3.890926  0  0  -0.357217  0  3.896683  0  0  -0.149358  -0.348423  0  3.887824  0
C  C71  1  0.98177510  0.36308021  0.80495841  1  0  -0.323176  0  3.644833  0  0  -0.351935  0  3.890954  0  0  -0.357219  0  3.896711  0  0  -0.149328  -0.348422  0  3.887846  0
C  C72  1  0.09784623  0.59046992  0.29060424  1  0  0.737535  0  3.851746  0  0  0.695097  0  4.149496  0  0  0.72832  0  4.140876  0  0  0.214454  0.672687  0  4.147168  0
C  C73  1  0.90214799  0.40953126  0.70939787  1  0  0.737593  0  3.851926  0  0  0.695161  0  4.14968  0  0  0.728383  0  4.141058  0  0  0.214461  0.67275  0  4.147356  0
C  C74  1  0.28339342  0.03430928  0.72444228  1  0  0.079997  0  3.798274  0  0  0.093774  0  4.058473  0  0  0.100762  0  4.078995  0  0  0.007442  0.089251  0  4.043064  0
C  C75  1  0.71660653  0.96569188  0.27555783  1  0  0.079971  0  3.798282  0  0  0.093803  0  4.058397  0  0  0.100787  0  4.078923  0  0  0.007454  0.08928  0  4.042991  0
C  C76  1  0.32237428  0.04871188  0.60210429  1  0  -0.179998  0  3.737289  0  0  -0.198657  0  3.989322  0  0  -0.206672  0  4.01112  0  0  -0.096902  -0.193287  0  3.975102  0
C  C77  1  0.67762343  0.95128841  0.39789559  1  0  -0.180033  0  3.737337  0  0  -0.198708  0  3.989353  0  0  -0.206721  0  4.011148  0  0  -0.096912  -0.193336  0  3.975129  0
C  C78  1  0.27998589  0.96681751  0.54717442  1  0  0.113102  0  3.752137  0  0  0.083975  0  4.013611  0  0  0.09071  0  4.030692  0  0  0.037804  0.079607  0  4.002301  0
C  C79  1  0.72001176  0.03318366  0.45282616  1  0  0.113128  0  3.752086  0  0  0.084019  0  4.013574  0  0  0.090755  0  4.03065  0  0  0.037799  0.079649  0  4.002265  0
C  C80  1  0.16731685  0.85834082  0.72184695  1  0  0.131931  0  3.732786  0  0  0.101085  0  3.992542  0  0  0.108637  0  4.007993  0  0  0.04265  0.096389  0  3.982284  0
C  C81  1  0.83267960  0.14166121  0.27815290  1  0  0.131932  0  3.732671  0  0  0.101079  0  3.992453  0  0  0.108625  0  4.007902  0  0  0.042647  0.096385  0  3.982199  0
C  C82  1  0.20064514  0.93682621  0.78455208  1  0  -0.182332  0  3.754462  0  0  -0.199698  0  4.006524  0  0  -0.207363  0  4.026917  0  0  -0.096498  -0.194693  0  3.992862  0
C  C83  1  0.79935492  0.06317321  0.21544830  1  0  -0.182321  0  3.754452  0  0  -0.1997  0  4.006505  0  0  -0.207366  0  4.026904  0  0  -0.096489  -0.194696  0  3.992849  0
C  C84  1  0.48128434  0.20926245  0.70579327  1  0  -0.317823  0  3.61521  0  0  -0.348502  0  3.863901  0  0  -0.352779  0  3.869761  0  0  -0.144884  -0.346158  0  3.861255  0
C  C85  1  0.51871572  0.79073697  0.29420794  1  0  -0.31772  0  3.615282  0  0  -0.34847  0  3.864025  0  0  -0.352744  0  3.869885  0  0  -0.144866  -0.346126  0  3.861374  0
C  C86  1  0.44153985  0.31425302  0.62288435  1  0  0.760967  0  3.838573  0  0  0.715945  0  4.141102  0  0  0.749953  0  4.130255  0  0  0.227101  0.692309  0  4.143452  0
C  C87  1  0.55846027  0.68574554  0.37711617  1  0  0.760947  0  3.838642  0  0  0.715983  0  4.141098  0  0  0.749991  0  4.130251  0  0  0.227112  0.692354  0  4.143436  0
S  S88  1  0.52765399  0.25946554  0.15262912  1  0  0.049735  0  2.492192  0  0  0.049865  0  2.834112  0  0  0.043782  0  2.838105  0  0  0.041308  0.054121  0  2.83172  0
S  S89  1  0.47234956  0.74053300  0.84737069  1  0  0.049728  0  2.492218  0  0  0.04985  0  2.834126  0  0  0.043761  0  2.838131  0  0  0.041321  0.054106  0  2.831731  0
S  S90  1  0.12373998  0.73523706  0.07555056  1  0  0.03762  0  2.479179  0  0  0.034234  0  2.818171  0  0  0.029315  0  2.820043  0  0  0.028079  0.038163  0  2.816395  0
S  S91  1  0.87626352  0.26476235  0.92444829  1  0  0.037554  0  2.479194  0  0  0.034161  0  2.818196  0  0  0.029239  0  2.82007  0  0  0.028029  0.038085  0  2.816432  0
S  S92  1  0.32693605  0.12924386  0.80644984  1  0  0.069898  0  2.395302  0  0  0.071201  0  2.72459  0  0  0.065377  0  2.728271  0  0  0.041908  0.074998  0  2.720449  0
S  S93  1  0.67306527  0.87075383  0.19355140  1  0  0.069866  0  2.39526  0  0  0.071169  0  2.72455  0  0  0.065344  0  2.728235  0  0  0.041897  0.074967  0  2.72041  0
N  N94  1  0.24288945  0.44680841  0.91040690  1  0  -0.362675  0  3.141992  0  0  -0.312686  0  3.407804  0  0  -0.326055  0  3.422539  0  0  -0.331248  -0.303392  0  3.397915  0
N  N95  1  0.75710936  0.55319275  0.08959344  1  0  -0.362804  0  3.142031  0  0  -0.31282  0  3.407847  0  0  -0.326189  0  3.422582  0  0  -0.331289  -0.303528  0  3.397956  0
N  N96  1  0.21969687  0.02356232  0.25290807  1  0  -0.343483  0  3.116543  0  0  -0.300802  0  3.384682  0  0  -0.313073  0  3.399554  0  0  -0.33435  -0.292601  0  3.374493  0
N  N97  1  0.78030313  0.97643797  0.74709218  1  0  -0.343403  0  3.116549  0  0  -0.300717  0  3.384678  0  0  -0.312989  0  3.39955  0  0  -0.334325  -0.292517  0  3.374486  0
N  N98  1  0.20575989  0.87151064  0.60442625  1  0  -0.324322  0  3.146209  0  0  -0.264774  0  3.397753  0  0  -0.278166  0  3.411953  0  0  -0.312598  -0.255969  0  3.388498  0
N  N99  1  0.79423657  0.12849139  0.39557360  1  0  -0.324314  0  3.146128  0  0  -0.264752  0  3.397654  0  0  -0.278144  0  3.411857  0  0  -0.312584  -0.255946  0  3.388404  0
O  O100  1  0.19938514  0.33604184  0.40882590  1  0  -0.693895  0  2.00657  0  0  -0.642366  0  2.239887  0  0  -0.667575  0  2.230884  0  0  -0.351041  -0.618372  0  2.245717  0
O  O101  1  0.80061613  0.66395671  0.59117272  1  0  -0.693874  0  2.006673  0  0  -0.642364  0  2.239979  0  0  -0.667572  0  2.23098  0  0  -0.351042  -0.618375  0  2.245806  0
O  O102  1  0.43409091  0.39875682  0.36106518  1  0  -0.719536  0  2.094837  0  0  -0.668238  0  2.338673  0  0  -0.693597  0  2.33009  0  0  -0.357912  -0.643821  0  2.343273  0
O  O103  1  0.56591019  0.60124432  0.63893304  1  0  -0.719565  0  2.094828  0  0  -0.6683  0  2.338682  0  0  -0.693653  0  2.330088  0  0  -0.35794  -0.643892  0  2.343288  0
O  O104  1  0.01020789  0.54475767  0.38793678  1  0  -0.812769  0  2.113532  0  0  -0.766353  0  2.375646  0  0  -0.792162  0  2.364634  0  0  -0.442935  -0.73249  0  2.382767  0
O  O105  1  0.98979108  0.45524090  0.61206479  1  0  -0.812759  0  2.113509  0  0  -0.766311  0  2.37556  0  0  -0.79212  0  2.364546  0  0  -0.442909  -0.732445  0  2.382685  0
O  O106  1  0.23921327  0.59555962  0.27807680  1  0  -0.654575  0  1.970456  0  0  -0.613631  0  2.206025  0  0  -0.63736  0  2.20043  0  0  -0.336541  -0.591055  0  2.21052  0
O  O107  1  0.76078553  0.40444155  0.72192520  1  0  -0.654632  0  1.970726  0  0  -0.613694  0  2.206308  0  0  -0.637427  0  2.200719  0  0  -0.336561  -0.591125  0  2.210812  0
O  O108  1  0.30539993  0.33630326  0.61506821  1  0  -0.708002  0  2.034639  0  0  -0.663326  0  2.282053  0  0  -0.687718  0  2.273181  0  0  -0.36362  -0.638741  0  2.289368  0
O  O109  1  0.69460013  0.66369616  0.38493217  1  0  -0.708007  0  2.034695  0  0  -0.663327  0  2.282053  0  0  -0.687731  0  2.273208  0  0  -0.363627  -0.638751  0  2.289363  0
O  O110  1  0.55484855  0.37344791  0.56469030  1  0  -0.756802  0  2.05591  0  0  -0.716277  0  2.326002  0  0  -0.740879  0  2.312795  0  0  -0.416415  -0.686313  0  2.334572  0
O  O111  1  0.44515277  0.62654977  0.43530928  1  0  -0.756822  0  2.055947  0  0  -0.716295  0  2.325987  0  0  -0.740897  0  2.31278  0  0  -0.416418  -0.686329  0  2.334562  0
O  O112  1  0.26059789  0.56939628  0.67757855  1  0  -0.903891  0  1.854314  0  0  -0.864576  0  2.048479  0  0  -0.88148  0  2.015512  0  0  -0.634911  -0.843928  0  2.075854  0
O  O113  1  0.73940103  0.43060315  0.32242207  1  0  -0.903865  0  1.854323  0  0  -0.864532  0  2.048529  0  0  -0.881434  0  2.015564  0  0  -0.634873  -0.843892  0  2.075907  0
O  O114  1  0.10418771  0.70524610  0.51168277  1  0  -0.923917  0  1.888786  0  0  -0.88266  0  2.08892  0  0  -0.900848  0  2.056435  0  0  -0.651545  -0.861278  0  2.116813  0
O  O115  1  0.89581126  0.29475247  0.48831881  1  0  -0.923923  0  1.888757  0  0  -0.882672  0  2.088873  0  0  -0.900857  0  2.056379  0  0  -0.651554  -0.861295  0  2.11676  0
