# generated using pymatgen
data_Zr3H14(C13O8)2
_symmetry_space_group_name_H-M   'P 1'
_cell_length_a   15.54230225
_cell_length_b   19.34562823
_cell_length_c   19.33553139
_cell_angle_alpha   91.37463556
_cell_angle_beta   89.89048527
_cell_angle_gamma   90.09285436
_symmetry_Int_Tables_number   1
_chemical_formula_structural   Zr3H14(C13O8)2
_chemical_formula_sum   'Zr6 H28 C52 O32'
_cell_volume   5812.03155206
_cell_formula_units_Z   2
loop_
 _symmetry_equiv_pos_site_id
 _symmetry_equiv_pos_as_xyz
  1  'x, y, z'
loop_
 _atom_site_type_symbol
 _atom_site_label
 _atom_site_symmetry_multiplicity
 _atom_site_fract_x
 _atom_site_fract_y
 _atom_site_fract_z
 _atom_site_occupancy
 _atom_site_pbe_bader_charge
 _atom_site_pbe_bader_spin_density
 _atom_site_pbe_cm5_charge
 _atom_site_pbe_ddec_charge
 _atom_site_pbe_ddec_spin_density
 _atom_site_pbe_ddec_sum_bond_order
 _atom_site_pbe_magmom
Zr  Zr0  1  0.00826925  0.10053028  0.98994714  1  2.609281  0  1.550793  2.365278  0  2.804771  0
Zr  Zr1  1  0.00408458  0.96197515  0.11146543  1  2.611135  0  1.549287  2.366017  0  2.834367  0
Zr  Zr2  1  0.00585625  0.97502700  0.85027218  1  2.624006  0  1.572619  2.378923  0  2.739832  0
Zr  Zr3  1  0.00495218  0.84056696  0.97103654  1  2.609069  0  1.5609  2.358275  0  2.794763  0
Zr  Zr4  1  0.16611536  0.96863025  0.98175366  1  2.631682  0  1.609179  2.353717  0  2.793826  0
Zr  Zr5  1  0.84532872  0.97013661  0.98110293  1  2.633971  0  1.611498  2.361107  0  2.785188  0
H  H6  1  0.64431237  0.35473173  0.97594006  1  0.102438  0  0.116156  0.125849  0  0.976612  0
H  H7  1  0.50398545  0.16232329  0.98299560  1  0.08396  0  0.122542  0.134197  0  0.965886  0
H  H8  1  0.36664377  0.35608619  0.98918430  1  0.086395  0  0.115562  0.124669  0  0.978127  0
H  H9  1  0.36599528  0.58014154  0.97608496  1  0.111524  0  0.115264  0.124361  0  0.977897  0
H  H10  1  0.50200478  0.77498873  0.97812379  1  0.089215  0  0.123123  0.135725  0  0.964757  0
H  H11  1  0.64365228  0.58347200  0.98540845  1  0.098327  0  0.11587  0.124665  0  0.976726  0
H  H12  1  0.64410585  0.96753924  0.36944302  1  0.09724  0  0.115973  0.125038  0  0.976872  0
H  H13  1  0.50711655  0.97299282  0.17578161  1  0.076234  0  0.12251  0.134699  0  0.96518  0
H  H14  1  0.36622335  0.97443454  0.36852048  1  0.10525  0  0.115108  0.123726  0  0.979121  0
H  H15  1  0.64417118  0.97186289  0.59410527  1  0.095647  0  0.114832  0.123201  0  0.979421  0
H  H16  1  0.50790691  0.96970500  0.78890492  1  0.088802  0  0.12234  0.13493  0  0.965332  0
H  H17  1  0.36623744  0.96687684  0.59704372  1  0.110755  0  0.116847  0.126081  0  0.9755  0
H  H18  1  0.88722858  0.07659149  0.08987224  1  0.633184  0  0.330192  0.436041  0  0.845276  0
H  H19  1  0.12601620  0.85810476  0.08193045  1  0.596693  0  0.328622  0.426833  0  0.863038  0
H  H20  1  0.87906204  0.86557958  0.87510400  1  0.612589  0  0.330175  0.424371  0  0.856484  0
H  H21  1  0.13287201  0.07432102  0.88162666  1  0.614365  0  0.335303  0.434183  0  0.839032  0
H  H22  1  0.06329953  0.87764842  0.20953930  1  0.588943  0  0.290967  0.39801  0  0.899891  0
H  H23  1  0.94759035  0.72775750  0.03731869  1  0.65032  0  0.331408  0.424919  0  0.869664  0
H  H24  1  0.05083326  0.75101336  0.87181284  1  0.579741  0  0.295796  0.391125  0  0.911657  0
H  H25  1  0.00552271  0.83210984  0.81815704  1  0.635114  0  0.28176  0.404785  0  0.934982  0
H  H26  1  0.96057698  0.07057883  0.76204582  1  0.584251  0  0.29889  0.392678  0  0.907979  0
H  H27  1  0.00389654  0.12839989  0.84840481  1  0.650862  0  0.283674  0.404775  0  0.933951  0
H  H28  1  0.04217057  0.20037177  0.07897932  1  0.584458  0  0.293808  0.399841  0  0.89864  0
H  H29  1  0.95970231  0.03269056  0.23065103  1  0.643375  0  0.338083  0.42361  0  0.860469  0
H  H30  1  0.95734405  0.86892659  0.75361937  1  0.628626  0  0.329767  0.411447  0  0.869106  0
H  H31  1  0.94927126  0.18523667  0.89317256  1  0.629529  0  0.321674  0.411883  0  0.884816  0
H  H32  1  0.05987047  0.04248117  0.21857266  1  0.640655  0  0.329606  0.419928  0  0.874491  0
H  H33  1  0.04851984  0.71305009  0.02945672  1  0.635816  0  0.340552  0.426812  0  0.854955  0
C  C34  1  0.50552593  0.36387259  0.98245452  1  0.12093  0  0.003225  0.14151  0  4.143135  0
C  C35  1  0.58346683  0.32693415  0.97875213  1  -0.070731  0  -0.061648  -0.151928  0  3.834608  0
C  C36  1  0.58312996  0.25430344  0.97874742  1  0.172323  0  0.006629  0.135266  0  4.140461  0
C  C37  1  0.50447780  0.21861178  0.98282897  1  -0.00482  0  -0.05606  -0.141165  0  3.818155  0
C  C38  1  0.42638082  0.25510141  0.98681264  1  0.05558  0  0.006126  0.134036  0  4.143787  0
C  C39  1  0.42704320  0.32770046  0.98638987  1  0.067847  0  -0.061963  -0.152082  0  3.840574  0
C  C40  1  0.50493651  0.57330102  0.98110750  1  0.130807  0  0.004763  0.145915  0  4.139224  0
C  C41  1  0.42622411  0.60899236  0.97783639  1  0.00274  0  -0.061463  -0.151531  0  3.835368  0
C  C42  1  0.42494066  0.68159581  0.97659101  1  0.035464  0  0.005466  0.13138  0  4.138572  0
C  C43  1  0.50287335  0.71873746  0.97895211  1  -0.021884  0  -0.055662  -0.141733  0  3.816072  0
C  C44  1  0.58187889  0.68351663  0.98218482  1  0.204812  0  0.006044  0.132188  0  4.136657  0
C  C45  1  0.58260511  0.61089651  0.98317832  1  -0.041326  0  -0.060517  -0.14926  0  3.831857  0
C  C46  1  0.50504988  0.97071384  0.37745641  1  0.118454  0  0.004122  0.144965  0  4.140152  0
C  C47  1  0.58369071  0.96928217  0.34110911  1  -0.072038  0  -0.061237  -0.150884  0  3.834627  0
C  C48  1  0.58458317  0.97006509  0.26849141  1  0.147814  0  0.006325  0.135259  0  4.143096  0
C  C49  1  0.50645701  0.97246898  0.23207017  1  0.071739  0  -0.05521  -0.140427  0  3.817797  0
C  C50  1  0.42765056  0.97422971  0.26790411  1  0.137539  0  0.004555  0.131033  0  4.141957  0
C  C51  1  0.42712752  0.97326120  0.34056311  1  -0.060796  0  -0.062193  -0.152211  0  3.837891  0
C  C52  1  0.50511332  0.96924169  0.58700121  1  0.091438  0  0.004399  0.145021  0  4.140451  0
C  C53  1  0.58388213  0.97072980  0.62286626  1  0.06162  0  -0.062426  -0.151533  0  3.838107  0
C  C54  1  0.58515487  0.97099938  0.69556350  1  0.069524  0  0.004284  0.129677  0  4.137664  0
C  C55  1  0.50710371  0.96948869  0.73258275  1  -0.068318  0  -0.055933  -0.14291  0  3.814872  0
C  C56  1  0.42802048  0.96778196  0.69719325  1  0.224297  0  0.007311  0.135831  0  4.134184  0
C  C57  1  0.42738776  0.96784485  0.62447737  1  -0.055655  0  -0.060277  -0.149172  0  3.830232  0
C  C58  1  0.21659863  0.12972841  0.99397957  1  1.645105  0  0.237547  0.70662  0  4.193612  0
C  C59  1  0.79514839  0.96593417  0.14330270  1  1.655527  0  0.238952  0.708777  0  4.192039  0
C  C60  1  0.21779834  0.97493409  0.14248285  1  1.66554  0  0.234878  0.706795  0  4.201293  0
C  C61  1  0.79340594  0.12924340  0.97464905  1  1.664891  0  0.236418  0.704916  0  4.198571  0
C  C62  1  0.79929280  0.97497180  0.81618152  1  1.654114  0  0.234658  0.708762  0  4.190677  0
C  C63  1  0.21254019  0.80364674  0.96954862  1  1.644573  0  0.234978  0.709912  0  4.189851  0
C  C64  1  0.79350452  0.80768713  0.98240177  1  1.675406  0  0.239174  0.713568  0  4.179337  0
C  C65  1  0.21477346  0.96599248  0.81993889  1  1.664557  0  0.238732  0.70739  0  4.182857  0
C  C66  1  0.72906029  0.97468337  0.76753090  1  0.229741  0  -0.047031  -0.197316  0  3.955998  0
C  C67  1  0.66396419  0.97292811  0.73252451  1  -0.511187  0  -0.021866  -0.029444  0  4.077711  0
C  C68  1  0.35010023  0.96619680  0.73555976  1  -0.422222  0  -0.025259  -0.04354  0  4.080793  0
C  C69  1  0.28554288  0.96497805  0.77132318  1  0.135636  0  -0.036101  -0.174142  0  3.935676  0
C  C70  1  0.66247220  0.96850423  0.23022236  1  -0.625633  0  -0.026312  -0.043132  0  4.088887  0
C  C71  1  0.72499662  0.96709510  0.19222618  1  0.348421  0  -0.037869  -0.180502  0  3.951071  0
C  C72  1  0.35036624  0.97650425  0.22910747  1  -0.534402  0  -0.02404  -0.034922  0  4.085828  0
C  C73  1  0.28802828  0.97777019  0.19108320  1  0.213432  0  -0.044917  -0.193264  0  3.959047  0
C  C74  1  0.50450176  0.96993088  0.45070450  1  -0.0863  0  -0.040836  -0.102611  0  4.113666  0
C  C75  1  0.50444118  0.96945911  0.51374674  1  -0.30414  0  -0.040766  -0.102178  0  4.113233  0
C  C76  1  0.72321576  0.75901718  0.98489327  1  0.068428  0  -0.042272  -0.191732  0  3.949672  0
C  C77  1  0.65945676  0.72230518  0.98391730  1  -0.394446  0  -0.021849  -0.03225  0  4.077985  0
C  C78  1  0.34644304  0.71869682  0.97299317  1  -0.575054  0  -0.022362  -0.02991  0  4.082322  0
C  C79  1  0.28227870  0.75455990  0.96996595  1  0.347357  0  -0.046791  -0.199003  0  3.95808  0
C  C80  1  0.66039112  0.21547693  0.97524578  1  -0.348377  0  -0.026732  -0.043598  0  4.086145  0
C  C81  1  0.72283757  0.17759013  0.97299668  1  0.055275  0  -0.038839  -0.179461  0  3.948197  0
C  C82  1  0.28641859  0.17883995  0.99401906  1  -0.345338  0  -0.03912  -0.180722  0  3.950223  0
C  C83  1  0.34870148  0.21686984  0.99093373  1  0.084314  0  -0.02432  -0.039132  0  4.084768  0
C  C84  1  0.50590491  0.43710706  0.98216649  1  -0.321101  0  -0.038478  -0.096203  0  4.111838  0
C  C85  1  0.50575048  0.50010417  0.98189771  1  -0.071488  0  -0.042875  -0.107203  0  4.11432  0
O  O86  1  0.14022217  0.15295501  0.99711564  1  -1.162154  0  -0.33957  -0.617204  0  2.245679  0
O  O87  1  0.23941455  0.06624354  0.98964892  1  -1.159333  0  -0.35509  -0.610573  0  2.242997  0
O  O88  1  0.87151284  0.96784911  0.16699238  1  -1.166424  0  -0.338151  -0.60727  0  2.240974  0
O  O89  1  0.77313559  0.96359884  0.07980666  1  -1.150863  0  -0.350286  -0.606594  0  2.248417  0
O  O90  1  0.14148641  0.98216724  0.16561933  1  -1.17635  0  -0.333157  -0.634868  0  2.26153  0
O  O91  1  0.23930407  0.96312100  0.07953473  1  -1.149243  0  -0.352316  -0.603225  0  2.242712  0
O  O92  1  0.86937343  0.15181099  0.96790864  1  -1.167274  0  -0.321234  -0.602787  0  2.242881  0
O  O93  1  0.77112005  0.06633945  0.98442857  1  -1.147122  0  -0.361522  -0.616705  0  2.243446  0
O  O94  1  0.99317968  0.17198863  0.06546929  1  -1.192737  0  -0.704132  -0.948208  0  1.767934  0
O  O95  1  0.00563924  0.16290146  0.89051258  1  -1.262505  0  -0.608649  -0.812676  0  2.000521  0
O  O96  1  0.00282235  0.04969257  0.19831860  1  -1.235361  0  -0.576311  -0.772382  0  2.024836  0
O  O97  1  0.01187583  0.89162327  0.18538567  1  -1.21005  0  -0.709223  -0.964386  0  1.785689  0
O  O98  1  0.07507902  0.02044855  0.03916510  1  -1.223264  0  -0.78208  -1.178397  0  2.076228  0
O  O99  1  0.91786781  0.04425392  0.05952128  1  -1.277618  0  -0.678442  -1.053645  0  2.211678  0
O  O100  1  0.87648651  0.97465790  0.79256546  1  -1.173388  0  -0.35551  -0.657983  0  2.227848  0
O  O101  1  0.77654246  0.97455697  0.87942729  1  -1.143068  0  -0.340512  -0.592118  0  2.244355  0
O  O102  1  0.13526955  0.78031195  0.96612028  1  -1.179827  0  -0.352877  -0.657153  0  2.241372  0
O  O103  1  0.23505709  0.86668839  0.97390882  1  -1.152383  0  -0.336648  -0.585356  0  2.246136  0
O  O104  1  0.87046888  0.78448128  0.98521077  1  -1.182041  0  -0.340462  -0.638456  0  2.233996  0
O  O105  1  0.77161723  0.87056610  0.97594027  1  -1.152186  0  -0.340822  -0.591204  0  2.234431  0
O  O106  1  0.13832730  0.96565165  0.79706126  1  -1.154256  0  -0.336131  -0.598861  0  2.217663  0
O  O107  1  0.23803834  0.96832970  0.88352652  1  -1.154121  0  -0.357972  -0.614929  0  2.245017  0
O  O108  1  0.00665877  0.87376599  0.78423161  1  -1.25342  0  -0.600772  -0.807994  0  2.015325  0
O  O109  1  0.00682726  0.06728587  0.79559247  1  -1.220835  0  -0.659008  -0.929162  0  1.873873  0
O  O110  1  0.00169718  0.78184611  0.87686417  1  -1.223069  0  -0.660402  -0.937255  0  1.878803  0
O  O111  1  0.00563972  0.74652533  0.04548385  1  -1.233067  0  -0.577727  -0.779003  0  2.018133  0
O  O112  1  0.91516022  0.89596129  0.90324790  1  -1.251944  0  -0.690194  -1.053163  0  2.299069  0
O  O113  1  0.07355071  0.91618558  0.92405466  1  -1.214221  0  -0.791464  -1.16532  0  2.104772  0
O  O114  1  0.93886354  0.02266583  0.92989183  1  -1.214567  0  -0.789761  -1.180813  0  2.126414  0
O  O115  1  0.09145655  0.88780202  0.05338893  1  -1.249814  0  -0.680381  -1.065849  0  2.240906  0
O  O116  1  0.09657899  0.04592027  0.91045102  1  -1.251263  0  -0.681104  -1.037585  0  2.233102  0
O  O117  1  0.93537209  0.91168918  0.03380170  1  -1.219674  0  -0.784133  -1.164296  0  2.05822  0
