# generated using pymatgen
data_Zn2H24C27(NO2)4
_symmetry_space_group_name_H-M   'P 1'
_cell_length_a   10.98667705
_cell_length_b   18.23182133
_cell_length_c   18.94717739
_cell_angle_alpha   108.24576287
_cell_angle_beta   90.00007337
_cell_angle_gamma   89.99992067
_symmetry_Int_Tables_number   1
_chemical_formula_structural   Zn2H24C27(NO2)4
_chemical_formula_sum   'Zn8 H96 C108 N16 O32'
_cell_volume   3604.43803257
_cell_formula_units_Z   4
loop_
 _symmetry_equiv_pos_site_id
 _symmetry_equiv_pos_as_xyz
  1  'x, y, z'
loop_
 _atom_site_type_symbol
 _atom_site_label
 _atom_site_symmetry_multiplicity
 _atom_site_fract_x
 _atom_site_fract_y
 _atom_site_fract_z
 _atom_site_occupancy
 _atom_site_pbe_bader_charge
 _atom_site_pbe_bader_spin_density
 _atom_site_pbe_cm5_charge
 _atom_site_pbe_ddec_charge
 _atom_site_pbe_ddec_spin_density
 _atom_site_pbe_ddec_sum_bond_order
 _atom_site_pbe_magmom
Zn  Zn0  1  0.81100529  0.68328560  0.97210813  1  1.304006  0  0.671508  0.860127  0  2.367018  0
Zn  Zn1  1  0.31100451  0.81671475  0.52789279  1  1.304017  0  0.671487  0.860033  0  2.367094  0
Zn  Zn2  1  0.18899494  0.31671474  0.02789244  1  1.304019  0  0.671472  0.860037  0  2.367116  0
Zn  Zn3  1  0.68899480  0.18328444  0.47210742  1  1.304002  0  0.671497  0.860064  0  2.367138  0
Zn  Zn4  1  0.81088491  0.78674347  0.87644439  1  1.30628  0  0.680853  0.864269  0  2.347179  0
Zn  Zn5  1  0.31088368  0.71325630  0.62355582  1  1.306267  0  0.680873  0.864327  0  2.347117  0
Zn  Zn6  1  0.18911622  0.21325630  0.12355494  1  1.306183  0  0.680869  0.864311  0  2.347102  0
Zn  Zn7  1  0.68911564  0.28674346  0.37644456  1  1.306289  0  0.68086  0.864306  0  2.347162  0
H  H8  1  0.48386870  0.38366027  0.32636001  1  0.131179  0  0.12183  0.122305  0  1.008647  0
H  H9  1  0.98386897  0.11634046  0.17364001  1  0.131311  0  0.121823  0.122294  0  1.008673  0
H  H10  1  0.51613061  0.61634008  0.67364003  1  0.131306  0  0.121838  0.122307  0  1.008653  0
H  H11  1  0.01613125  0.88366104  0.82636038  1  0.131179  0  0.121835  0.122304  0  1.008673  0
H  H12  1  0.53368246  0.46433330  0.22684887  1  0.084512  0  0.122649  0.124637  0  1.005926  0
H  H13  1  0.03368287  0.03566772  0.27315090  1  0.084549  0  0.122652  0.124643  0  1.005884  0
H  H14  1  0.46631685  0.53566705  0.77315064  1  0.084548  0  0.122646  0.124657  0  1.005872  0
H  H15  1  0.96631644  0.96433263  0.72684913  1  0.084534  0  0.122664  0.124655  0  1.005907  0
H  H16  1  0.90893995  0.31930711  0.30664321  1  0.131003  0  0.107599  0.174401  0  1.030261  0
H  H17  1  0.40894076  0.18069308  0.19335712  1  0.131051  0  0.107571  0.174346  0  1.030291  0
H  H18  1  0.09106027  0.68069266  0.69335718  1  0.13101  0  0.107608  0.174398  0  1.030251  0
H  H19  1  0.59106037  0.81930727  0.80664291  1  0.13084  0  0.107607  0.174426  0  1.030167  0
H  H20  1  0.93426596  0.34242557  0.22332587  1  0.055494  0  0.098336  0.149962  0  1.018736  0
H  H21  1  0.43426701  0.15757461  0.27667395  1  0.055499  0  0.098337  0.149976  0  1.018716  0
H  H22  1  0.06573426  0.65757478  0.77667417  1  0.055501  0  0.098335  0.149945  0  1.018738  0
H  H23  1  0.56573503  0.84242573  0.72332714  1  0.055547  0  0.098344  0.149977  0  1.018732  0
H  H24  1  0.95099169  0.41434452  0.31077659  1  0.073076  0  0.097756  0.14288  0  1.003933  0
H  H25  1  0.45099362  0.08565565  0.18922376  1  0.07306  0  0.097745  0.14285  0  1.003956  0
H  H26  1  0.04900672  0.58565583  0.68922397  1  0.07308  0  0.09775  0.14285  0  1.00397  0
H  H27  1  0.54900661  0.91434528  0.81077645  1  0.073028  0  0.097741  0.142839  0  1.003979  0
H  H28  1  0.83268369  0.40132957  0.14920979  1  0.08452  0  0.109115  0.081331  0  1.021402  0
H  H29  1  0.33268594  0.09867126  0.35079014  1  0.084474  0  0.109138  0.081357  0  1.021313  0
H  H30  1  0.16731654  0.59867078  0.85079024  1  0.084507  0  0.109128  0.081365  0  1.021332  0
H  H31  1  0.66731519  0.90132851  0.64920972  1  0.084479  0  0.109143  0.081387  0  1.021309  0
H  H32  1  0.71571831  0.46734701  0.14927665  1  0.064685  0  0.115143  0.093419  0  0.968289  0
H  H33  1  0.21571981  0.03265447  0.35072340  1  0.064565  0  0.115139  0.093432  0  0.968245  0
H  H34  1  0.28428191  0.53265276  0.85072268  1  0.064699  0  0.115138  0.093401  0  0.968293  0
H  H35  1  0.78428042  0.96734588  0.64927716  1  0.064729  0  0.115151  0.093454  0  0.968279  0
H  H36  1  0.82406315  0.57311480  0.24048316  1  0.027284  0  0.097006  0.09538  0  0.975761  0
H  H37  1  0.32406172  0.92688597  0.25951700  1  0.026067  0  0.097006  0.095374  0  0.975762  0
H  H38  1  0.17593616  0.42688497  0.75951723  1  0.027281  0  0.09701  0.095366  0  0.975748  0
H  H39  1  0.67593851  0.07311438  0.74048303  1  0.026069  0  0.097002  0.095363  0  0.975776  0
H  H40  1  0.92388688  0.50816219  0.26360900  1  0.07247  0  0.105601  0.111045  0  0.986921  0
H  H41  1  0.42388707  0.99183736  0.23639033  1  0.072455  0  0.105571  0.111045  0  0.986889  0
H  H42  1  0.07611152  0.49183815  0.73639103  1  0.072445  0  0.105582  0.11104  0  0.98691  0
H  H43  1  0.57611315  0.00816242  0.76360953  1  0.072457  0  0.105584  0.111055  0  0.986913  0
H  H44  1  0.01853661  0.46955348  0.13874057  1  0.121543  0  0.115315  0.10994  0  0.997679  0
H  H45  1  0.51853750  0.03044466  0.36125832  1  0.121563  0  0.115287  0.109893  0  0.997627  0
H  H46  1  0.98146452  0.53044687  0.86125947  1  0.121535  0  0.115293  0.109915  0  0.997709  0
H  H47  1  0.48146364  0.96955511  0.63874102  1  0.121557  0  0.115262  0.109884  0  0.997657  0
H  H48  1  0.03188544  0.56982362  0.18414277  1  0.069095  0  0.11315  0.090232  0  0.985667  0
H  H49  1  0.53188530  0.93017503  0.31585653  1  0.06907  0  0.113142  0.090196  0  0.98569  0
H  H50  1  0.96811478  0.43017731  0.81585797  1  0.069109  0  0.113156  0.090263  0  0.985623  0
H  H51  1  0.46811583  0.06982474  0.68414280  1  0.069074  0  0.113151  0.090218  0  0.985636  0
H  H52  1  0.86682670  0.42277667  0.02808531  1  0.124923  0  0.121779  0.12576  0  1.039705  0
H  H53  1  0.36682836  0.07722356  0.47191395  1  0.124916  0  0.121803  0.125792  0  1.039613  0
H  H54  1  0.13317352  0.57722425  0.97191543  1  0.124891  0  0.121791  0.125767  0  1.039691  0
H  H55  1  0.63317277  0.92277679  0.52808609  1  0.124927  0  0.121762  0.125743  0  1.039716  0
H  H56  1  0.76344785  0.50327357  0.93870119  1  0.151238  0  0.120273  0.11745  0  1.004026  0
H  H57  1  0.26344947  0.99672740  0.56129882  1  0.151249  0  0.120276  0.117469  0  1.004016  0
H  H58  1  0.23655146  0.49672735  0.06130007  1  0.151222  0  0.120249  0.117425  0  1.004026  0
H  H59  1  0.73655076  0.00327295  0.43870121  1  0.151265  0  0.120286  0.117477  0  1.004003  0
H  H60  1  0.90881549  0.73194553  0.12267774  1  0.117091  0  0.108793  0.176156  0  1.021445  0
H  H61  1  0.40881559  0.76805403  0.37732264  1  0.117067  0  0.108813  0.17621  0  1.021454  0
H  H62  1  0.09118474  0.26805482  0.87732282  1  0.117091  0  0.108801  0.176166  0  1.021438  0
H  H63  1  0.59118463  0.23194632  0.62267740  1  0.117071  0  0.108791  0.176173  0  1.021422  0
H  H64  1  0.90263449  0.69199207  0.19751682  1  0.065563  0  0.098642  0.139404  0  0.988841  0
H  H65  1  0.40263434  0.80800691  0.30248338  1  0.065586  0  0.098641  0.139411  0  0.988781  0
H  H66  1  0.09736573  0.30800886  0.80248339  1  0.065564  0  0.098638  0.139396  0  0.988814  0
H  H67  1  0.59736588  0.19199228  0.69751630  1  0.065582  0  0.098635  0.139382  0  0.988802  0
H  H68  1  0.03764315  0.68348422  0.14411424  1  0.050492  0  0.099655  0.141567  0  0.985542  0
H  H69  1  0.53764336  0.81651557  0.35588646  1  0.050492  0  0.099644  0.141545  0  0.985554  0
H  H70  1  0.96235798  0.31651670  0.85588597  1  0.050503  0  0.099663  0.141574  0  0.985539  0
H  H71  1  0.46235777  0.18348478  0.64411410  1  0.050495  0  0.09967  0.141574  0  0.985561  0
H  H72  1  0.72285623  0.99615911  0.04418033  1  0.100954  0  0.10969  0.11905  0  0.986957  0
H  H73  1  0.22285530  0.50384056  0.45582047  1  0.100892  0  0.109684  0.119003  0  0.986997  0
H  H74  1  0.27714308  0.00384239  0.95582005  1  0.100941  0  0.109688  0.119034  0  0.986959  0
H  H75  1  0.77714311  0.49615805  0.54417903  1  0.100903  0  0.109668  0.119022  0  0.986991  0
H  H76  1  0.68053611  0.11134707  0.15537816  1  0.088894  0  0.103303  0.104482  0  1.044627  0
H  H77  1  0.18053678  0.38865212  0.34462222  1  0.088884  0  0.10329  0.104463  0  1.044624  0
H  H78  1  0.31946320  0.88865154  0.84462293  1  0.088869  0  0.10329  0.104461  0  1.044633  0
H  H79  1  0.81946162  0.61134824  0.65537623  1  0.088805  0  0.103295  0.104459  0  1.044605  0
H  H80  1  0.76093811  0.97704138  0.29930292  1  0.067426  0  0.097886  0.096509  0  1.02479  0
H  H81  1  0.26093566  0.52295884  0.20069861  1  0.06747  0  0.097863  0.09651  0  1.024787  0
H  H82  1  0.23906393  0.02295723  0.70069711  1  0.067437  0  0.097858  0.096468  0  1.024802  0
H  H83  1  0.73906456  0.47704324  0.79930195  1  0.06747  0  0.097873  0.096519  0  1.024764  0
H  H84  1  0.80078547  0.86092033  0.18756284  1  0.074857  0  0.099566  0.101738  0  1.015843  0
H  H85  1  0.30078118  0.63908045  0.31243731  1  0.074668  0  0.099582  0.101731  0  1.015834  0
H  H86  1  0.19921748  0.13907945  0.81243491  1  0.074878  0  0.099572  0.101746  0  1.015847  0
H  H87  1  0.69921813  0.36092047  0.68756448  1  0.074869  0  0.099576  0.10174  0  1.015843  0
H  H88  1  0.19651531  0.77946722  0.83685766  1  0.093408  0  0.107881  0.113968  0  1.004938  0
H  H89  1  0.69651441  0.72053263  0.66314249  1  0.093383  0  0.107858  0.113908  0  1.004987  0
H  H90  1  0.80348582  0.22053312  0.16314238  1  0.093396  0  0.10787  0.113939  0  1.004962  0
H  H91  1  0.30348490  0.27946772  0.33685754  1  0.093397  0  0.107865  0.113931  0  1.004952  0
H  H92  1  0.42202026  0.76680959  0.82798113  1  0.09262  0  0.107394  0.112641  0  1.021965  0
H  H93  1  0.92202026  0.73319011  0.67202019  1  0.092592  0  0.107384  0.112622  0  1.021968  0
H  H94  1  0.57797996  0.23319134  0.17201908  1  0.092633  0  0.107392  0.112623  0  1.021953  0
H  H95  1  0.07797905  0.26680850  0.32797984  1  0.092625  0  0.107402  0.11264  0  1.02194  0
H  H96  1  0.42866296  0.69876807  0.02550034  1  0.073234  0  0.102024  0.108262  0  1.003309  0
H  H97  1  0.92866165  0.80123205  0.47450075  1  0.0733  0  0.102009  0.108239  0  1.00327  0
H  H98  1  0.57133817  0.30123228  0.97449916  1  0.073254  0  0.102009  0.108265  0  1.003265  0
H  H99  1  0.07133766  0.19876657  0.52549928  1  0.073325  0  0.102027  0.108276  0  1.003295  0
H  H100  1  0.19993866  0.70842264  0.03274982  1  0.062891  0  0.098666  0.099446  0  1.011333  0
H  H101  1  0.69993735  0.79157763  0.46725010  1  0.062856  0  0.098661  0.099447  0  1.011308  0
H  H102  1  0.80006248  0.29157771  0.96725021  1  0.062848  0  0.098671  0.099447  0  1.011326  0
H  H103  1  0.30006196  0.20842215  0.53274924  1  0.06287  0  0.098669  0.099446  0  1.011322  0
C  C104  1  0.56928666  0.39295440  0.30190610  1  0.391526  0  0.001256  -0.018532  0  4.002034  0
C  C105  1  0.06928674  0.10704544  0.19809282  1  0.391376  0  0.001244  -0.018553  0  4.002035  0
C  C106  1  0.43071265  0.60704595  0.69809341  1  0.390924  0  0.001264  -0.018495  0  4.001915  0
C  C107  1  0.93071348  0.89295491  0.80190616  1  0.391514  0  0.001243  -0.018542  0  4.00211  0
C  C108  1  0.59287149  0.43327770  0.25335671  1  0.334796  0  -0.00508  -0.12063  0  3.97084  0
C  C109  1  0.09287359  0.06672328  0.24664309  1  0.334841  0  -0.005032  -0.120571  0  3.970852  0
C  C110  1  0.40712691  0.56672322  0.74664403  1  0.335287  0  -0.005075  -0.120679  0  3.970775  0
C  C111  1  0.90712754  0.93327765  0.75335712  1  0.334791  0  -0.005079  -0.120641  0  3.970866  0
C  C112  1  0.76579647  0.38330102  0.27961500  1  0.970855  0  0.222508  0.34544  0  3.938328  0
C  C113  1  0.26579749  0.11669869  0.22038402  1  0.970498  0  0.222487  0.345341  0  3.938475  0
C  C114  1  0.23420284  0.61669817  0.72038415  1  0.970862  0  0.222376  0.345201  0  3.938663  0
C  C115  1  0.73420455  0.88330223  0.77961619  1  0.971176  0  0.222533  0.345485  0  3.938499  0
C  C116  1  0.89659674  0.36389348  0.27972093  1  -0.077206  0  -0.23745  -0.482601  0  3.938187  0
C  C117  1  0.39659771  0.13610615  0.22027869  1  -0.076908  0  -0.237406  -0.482498  0  3.93829  0
C  C118  1  0.10340257  0.63610630  0.72027840  1  -0.077224  0  -0.237448  -0.482508  0  3.938332  0
C  C119  1  0.60340433  0.86389650  0.77972363  1  -0.077326  0  -0.237455  -0.482615  0  3.938269  0
C  C120  1  0.78326927  0.45188450  0.18486199  1  0.291644  0  -0.049871  -0.048768  0  3.883028  0
C  C121  1  0.28327248  0.04811636  0.31513739  1  0.291914  0  -0.049906  -0.048796  0  3.88298  0
C  C122  1  0.21673004  0.54811527  0.81513734  1  0.29174  0  -0.049892  -0.048789  0  3.883015  0
C  C123  1  0.71672866  0.95188341  0.68486247  1  0.291741  0  -0.049888  -0.048819  0  3.883044  0
C  C124  1  0.87305343  0.51813682  0.21754198  1  -0.01497  0  -0.157627  -0.194351  0  3.921594  0
C  C125  1  0.37305374  0.98186334  0.28245750  1  -0.013761  0  -0.157592  -0.194353  0  3.921575  0
C  C126  1  0.12694679  0.48186411  0.78245823  1  -0.01494  0  -0.157611  -0.194342  0  3.921611  0
C  C127  1  0.62694557  0.01813643  0.71754183  1  -0.013748  0  -0.157644  -0.194419  0  3.92169  0
C  C128  1  0.96639186  0.52352640  0.15936164  1  0.255715  0  -0.051281  -0.065483  0  3.883461  0
C  C129  1  0.46639232  0.97647197  0.34063736  1  0.255713  0  -0.051233  -0.065333  0  3.883319  0
C  C130  1  0.03360745  0.47647395  0.84063944  1  0.2556  0  -0.051215  -0.065413  0  3.883392  0
C  C131  1  0.53360790  0.02352780  0.65936250  1  0.255713  0  -0.051231  -0.065339  0  3.883346  0
C  C132  1  0.85961881  0.48395506  0.03482441  1  0.304234  0  -0.00442  -0.11668  0  3.95908  0
C  C133  1  0.35961969  0.01604459  0.46517519  1  0.303961  0  -0.004419  -0.11666  0  3.958909  0
C  C134  1  0.14038050  0.51604529  0.96517562  1  0.304225  0  -0.004452  -0.116752  0  3.959112  0
C  C135  1  0.64038144  0.98395576  0.53482485  1  0.303943  0  -0.004368  -0.116588  0  3.959219  0
C  C136  1  0.81064141  0.52412400  0.99142535  1  0.363912  0  -0.007053  -0.036502  0  4.029265  0
C  C137  1  0.31064205  0.97587578  0.50857433  1  0.363815  0  -0.007081  -0.036587  0  4.02927  0
C  C138  1  0.18935790  0.47587634  0.00857521  1  0.363913  0  -0.007029  -0.036458  0  4.029172  0
C  C139  1  0.68935636  0.02412341  0.49142693  1  0.363857  0  -0.007098  -0.036601  0  4.029459  0
C  C140  1  0.89225553  0.60996936  0.08786486  1  0.978433  0  0.220253  0.337138  0  3.938104  0
C  C141  1  0.39225634  0.89002962  0.41213481  1  0.978396  0  0.220214  0.337093  0  3.938184  0
C  C142  1  0.10774469  0.39003156  0.91213535  1  0.978419  0  0.220224  0.337055  0  3.938164  0
C  C143  1  0.60774479  0.10996957  0.58786540  1  0.978414  0  0.220172  0.33703  0  3.938227  0
C  C144  1  0.93755401  0.68329142  0.14106419  1  -0.077808  0  -0.229456  -0.469251  0  3.955727  0
C  C145  1  0.43755396  0.81670811  0.35893726  1  -0.077813  0  -0.229449  -0.469275  0  3.955712  0
C  C146  1  0.06244622  0.31670950  0.85893655  1  -0.077785  0  -0.229453  -0.469225  0  3.955679  0
C  C147  1  0.56244535  0.18329166  0.64106312  1  -0.077814  0  -0.229435  -0.469214  0  3.955709  0
C  C148  1  0.78504990  0.85275694  0.04254774  1  1.573495  0  0.215149  0.589817  0  4.183854  0
C  C149  1  0.28504591  0.64724269  0.45745309  1  1.57381  0  0.215168  0.58979  0  4.183893  0
C  C150  1  0.21495214  0.14724283  0.95745106  1  1.573937  0  0.215139  0.589808  0  4.183775  0
C  C151  1  0.71495249  0.35275708  0.54254782  1  1.573496  0  0.215166  0.589804  0  4.183776  0
C  C152  1  0.76332995  0.92186711  0.10950425  1  0.022599  0  -0.0136  -0.022437  0  3.958529  0
C  C153  1  0.26332597  0.57813370  0.39049588  1  0.022567  0  -0.013569  -0.022508  0  3.958693  0
C  C154  1  0.23667391  0.07813325  0.89049420  1  0.022595  0  -0.013617  -0.022585  0  3.958736  0
C  C155  1  0.73667334  0.42186549  0.60950433  1  0.022583  0  -0.013575  -0.022433  0  3.95868  0
C  C156  1  0.73016515  0.99256838  0.10036616  1  -0.038073  0  -0.078882  -0.086181  0  3.951896  0
C  C157  1  0.23016226  0.50743187  0.39963483  1  -0.038024  0  -0.07889  -0.086087  0  3.951891  0
C  C158  1  0.26983598  0.00743197  0.89963335  1  -0.038046  0  -0.078879  -0.086072  0  3.951941  0
C  C159  1  0.76983523  0.49256790  0.60036556  1  -0.038033  0  -0.078884  -0.086192  0  3.951965  0
C  C160  1  0.70692542  0.05642300  0.16213680  1  -0.0307  0  -0.084249  -0.100199  0  3.975706  0
C  C161  1  0.20692503  0.44357733  0.33786395  1  -0.030699  0  -0.084187  -0.100127  0  3.975673  0
C  C162  1  0.29307298  0.94357677  0.83786359  1  -0.030695  0  -0.084192  -0.100183  0  3.975711  0
C  C163  1  0.79307246  0.55642302  0.66213556  1  -0.030621  0  -0.084185  -0.100085  0  3.975601  0
C  C164  1  0.71708235  0.05079700  0.23403292  1  -0.057485  0  -0.018181  -0.033  0  3.967591  0
C  C165  1  0.21708179  0.44920389  0.26596801  1  -0.057475  0  -0.018229  -0.033118  0  3.967598  0
C  C166  1  0.28291605  0.94920219  0.76596729  1  -0.057499  0  -0.018129  -0.032959  0  3.967608  0
C  C167  1  0.78291479  0.55079761  0.73403238  1  -0.057465  0  -0.018195  -0.033009  0  3.967554  0
C  C168  1  0.69186089  0.11936089  0.30092761  1  1.559092  0  0.211195  0.579413  0  4.190387  0
C  C169  1  0.19186307  0.38063771  0.19907207  1  1.559611  0  0.211287  0.579596  0  4.190301  0
C  C170  1  0.30813660  0.88063656  0.69907259  1  1.559597  0  0.211304  0.57965  0  4.190266  0
C  C171  1  0.80813624  0.61936322  0.80092761  1  1.559605  0  0.21122  0.579424  0  4.190455  0
C  C172  1  0.75190984  0.98021202  0.24303577  1  -0.061355  0  -0.09517  -0.114368  0  4.018869  0
C  C173  1  0.25190570  0.51978764  0.25696400  1  -0.061433  0  -0.095187  -0.114432  0  4.018815  0
C  C174  1  0.24809220  0.01978544  0.75696233  1  -0.061458  0  -0.095252  -0.114415  0  4.018977  0
C  C175  1  0.74809270  0.48021444  0.74303656  1  -0.061446  0  -0.095211  -0.114426  0  4.018834  0
C  C176  1  0.77451085  0.91621432  0.18132252  1  -0.070799  0  -0.090852  -0.106553  0  4.004998  0
C  C177  1  0.27450397  0.58378590  0.31867796  1  -0.070567  0  -0.090852  -0.106461  0  4.005015  0
C  C178  1  0.22549392  0.08378488  0.81867611  1  -0.070748  0  -0.09083  -0.106524  0  4.005054  0
C  C179  1  0.72549443  0.41621502  0.68132277  1  -0.070751  0  -0.090851  -0.10656  0  4.005105  0
C  C180  1  0.04825954  0.74194507  0.93414189  1  1.59003  0  0.210107  0.580617  0  4.204917  0
C  C181  1  0.54825834  0.75805431  0.56585800  1  1.589972  0  0.210046  0.580522  0  4.2051  0
C  C182  1  0.95174159  0.25805528  0.06585867  1  1.590039  0  0.210087  0.580569  0  4.20495  0
C  C183  1  0.45174098  0.24194547  0.43414133  1  1.589983  0  0.210067  0.58052  0  4.205023  0
C  C184  1  0.18459830  0.74362698  0.93472897  1  -0.067031  0  -0.019052  -0.032893  0  3.981152  0
C  C185  1  0.68459710  0.75637230  0.56527152  1  -0.067019  0  -0.019029  -0.03298  0  3.981243  0
C  C186  1  0.81540192  0.25637337  0.06527159  1  -0.067003  0  -0.019045  -0.032951  0  3.981258  0
C  C187  1  0.31540130  0.24362632  0.43472746  1  -0.067009  0  -0.019032  -0.032877  0  3.981122  0
C  C188  1  0.24761545  0.76183931  0.87813148  1  -0.054204  0  -0.084114  -0.102836  0  3.968695  0
C  C189  1  0.74761351  0.73815993  0.62186905  1  -0.054186  0  -0.084095  -0.102747  0  3.968667  0
C  C190  1  0.75238568  0.23816103  0.12186908  1  -0.054197  0  -0.084105  -0.102813  0  3.968699  0
C  C191  1  0.25238398  0.26183811  0.37812975  1  -0.054217  0  -0.084105  -0.102805  0  3.968595  0
C  C192  1  0.37382104  0.75524100  0.87356817  1  -0.021982  0  -0.081341  -0.091248  0  3.958175  0
C  C193  1  0.87382091  0.74475931  0.62643278  1  -0.021995  0  -0.081311  -0.091191  0  3.958091  0
C  C194  1  0.62618009  0.24475993  0.12643257  1  -0.022474  0  -0.08131  -0.091154  0  3.958063  0
C  C195  1  0.12617840  0.25523872  0.37356655  1  -0.022387  0  -0.081358  -0.09127  0  3.95808  0
C  C196  1  0.43891178  0.73191790  0.92643667  1  0.023758  0  -0.016057  -0.026036  0  3.955733  0
C  C197  1  0.93891057  0.76808180  0.57356361  1  0.023729  0  -0.016066  -0.026055  0  3.955706  0
C  C198  1  0.56108935  0.26808303  0.07356354  1  0.024259  0  -0.016066  -0.026078  0  3.955688  0
C  C199  1  0.06108874  0.23191624  0.42643572  1  0.024134  0  -0.016031  -0.025933  0  3.955712  0
C  C200  1  0.57503939  0.72515160  0.92238943  1  1.547137  0  0.212265  0.585127  0  4.186196  0
C  C201  1  0.07503881  0.77484891  0.57761083  1  1.547211  0  0.212248  0.585067  0  4.186267  0
C  C202  1  0.42496175  0.27484933  0.07761078  1  1.547136  0  0.212266  0.585153  0  4.186199  0
C  C203  1  0.92496050  0.22514855  0.42238832  1  1.547154  0  0.212281  0.585103  0  4.186254  0
C  C204  1  0.37614766  0.71592881  0.98445630  1  -0.042052  0  -0.089308  -0.100657  0  3.991901  0
C  C205  1  0.87614538  0.78407150  0.51554518  1  -0.042039  0  -0.089319  -0.100671  0  3.99197  0
C  C206  1  0.62385347  0.28407211  0.01554391  1  -0.042095  0  -0.089327  -0.100693  0  3.991858  0
C  C207  1  0.12385302  0.21592712  0.48445433  1  -0.042144  0  -0.089344  -0.100729  0  3.991998  0
C  C208  1  0.24993024  0.72137021  0.98834538  1  -0.044413  0  -0.094036  -0.11526  0  4.017517  0
C  C209  1  0.74992888  0.77862961  0.51165480  1  -0.044421  0  -0.094051  -0.115224  0  4.017503  0
C  C210  1  0.75007089  0.27862957  0.01165395  1  -0.044415  0  -0.094048  -0.115226  0  4.017517  0
C  C211  1  0.25007044  0.22137016  0.48834506  1  -0.044392  0  -0.094035  -0.115244  0  4.017422  0
N  N212  1  0.67718376  0.36202899  0.31756227  1  -1.22438  0  -0.350468  -0.32884  0  3.486942  0
N  N213  1  0.17718464  0.13797079  0.18243670  1  -1.2244  0  -0.350435  -0.328775  0  3.486958  0
N  N214  1  0.32281646  0.63797079  0.68243706  1  -1.224384  0  -0.350402  -0.328754  0  3.487019  0
N  N215  1  0.82281649  0.86202956  0.81756334  1  -1.224398  0  -0.350496  -0.328866  0  3.487026  0
N  N216  1  0.71697361  0.42701138  0.23993822  1  -1.212341  0  -0.244841  -0.021093  0  3.73907  0
N  N217  1  0.21697482  0.07298895  0.26006148  1  -1.212449  0  -0.244862  -0.021115  0  3.739127  0
N  N218  1  0.28302570  0.57298839  0.76006217  1  -1.212469  0  -0.244779  -0.020977  0  3.739177  0
N  N219  1  0.78302632  0.92701140  0.73993803  1  -1.212466  0  -0.244817  -0.02107  0  3.739116  0
N  N220  1  0.91021373  0.53889617  0.09560946  1  -1.201601  0  -0.24503  -0.018023  0  3.741164  0
N  N221  1  0.41021345  0.96110281  0.40439021  1  -1.201204  0  -0.245002  -0.018059  0  3.741178  0
N  N222  1  0.08978740  0.46110476  0.90439127  1  -1.201508  0  -0.245074  -0.018051  0  3.741302  0
N  N223  1  0.58978677  0.03889696  0.59561017  1  -1.201229  0  -0.245007  -0.018072  0  3.741239  0
N  N224  1  0.83174491  0.60213988  0.02463914  1  -1.228421  0  -0.352457  -0.328817  0  3.490123  0
N  N225  1  0.33174493  0.89786088  0.47536102  1  -1.228411  0  -0.352444  -0.328751  0  3.490088  0
N  N226  1  0.16825622  0.39786104  0.97536160  1  -1.228406  0  -0.352406  -0.328728  0  3.490048  0
N  N227  1  0.66825620  0.10213947  0.52463848  1  -1.228449  0  -0.352407  -0.328711  0  3.490037  0
O  O228  1  0.81330603  0.78960303  0.05416610  1  -1.17469  0  -0.317841  -0.557182  0  2.349728  0
O  O229  1  0.31330369  0.71039717  0.44583440  1  -1.174696  0  -0.317825  -0.557098  0  2.349667  0
O  O230  1  0.18669601  0.21039733  0.94583288  1  -1.174683  0  -0.317832  -0.557147  0  2.349629  0
O  O231  1  0.68669654  0.28960144  0.55416616  1  -1.174679  0  -0.317852  -0.557167  0  2.349619  0
O  O232  1  0.77237011  0.86265760  0.97959672  1  -1.159416  0  -0.311883  -0.540329  0  2.33717  0
O  O233  1  0.27236791  0.63734220  0.52040452  1  -1.15974  0  -0.311922  -0.540363  0  2.337193  0
O  O234  1  0.22763102  0.13734217  0.02040261  1  -1.159731  0  -0.311874  -0.54031  0  2.337117  0
O  O235  1  0.72763140  0.36265757  0.47959534  1  -1.159447  0  -0.311904  -0.540332  0  2.337159  0
O  O236  1  0.66938904  0.18340360  0.29004991  1  -1.162395  0  -0.310619  -0.537661  0  2.323019  0
O  O237  1  0.16939412  0.31659733  0.20995099  1  -1.162403  0  -0.310653  -0.537723  0  2.322924  0
O  O238  1  0.33060845  0.81659617  0.70995048  1  -1.162473  0  -0.310671  -0.537783  0  2.323015  0
O  O239  1  0.83060701  0.68340360  0.79004922  1  -1.162451  0  -0.310577  -0.537604  0  2.32302  0
O  O240  1  0.69411461  0.10745885  0.36382034  1  -1.179814  0  -0.319262  -0.569881  0  2.367532  0
O  O241  1  0.19411481  0.39254032  0.13618162  1  -1.180275  0  -0.319333  -0.569963  0  2.367561  0
O  O242  1  0.30588561  0.89253917  0.63618215  1  -1.180229  0  -0.319341  -0.569983  0  2.367449  0
O  O243  1  0.80588633  0.60746061  0.86381806  1  -1.180239  0  -0.319332  -0.569935  0  2.367519  0
O  O244  1  0.99348611  0.78513548  0.90325005  1  -1.178343  0  -0.311319  -0.542599  0  2.328816  0
O  O245  1  0.49348481  0.71486419  0.59674920  1  -1.178308  0  -0.311198  -0.542464  0  2.328803  0
O  O246  1  0.00651502  0.21486487  0.09674998  1  -1.17835  0  -0.311265  -0.542522  0  2.328801  0
O  O247  1  0.50651359  0.28513559  0.40325013  1  -1.178311  0  -0.311233  -0.542493  0  2.328784  0
O  O248  1  0.99890193  0.69432443  0.96251709  1  -1.174025  0  -0.320997  -0.565029  0  2.335424  0
O  O249  1  0.49890120  0.80567523  0.53748270  1  -1.173994  0  -0.321043  -0.565025  0  2.335516  0
O  O250  1  0.00109829  0.30567592  0.03748295  1  -1.174041  0  -0.321023  -0.565039  0  2.335439  0
O  O251  1  0.50109902  0.19432454  0.46251716  1  -1.173985  0  -0.321047  -0.565044  0  2.335498  0
O  O252  1  0.62898919  0.75071538  0.87546313  1  -1.176307  0  -0.311167  -0.552129  0  2.364427  0
O  O253  1  0.12898878  0.74928509  0.62453821  1  -1.176323  0  -0.311184  -0.552135  0  2.364415  0
O  O254  1  0.37101103  0.24928497  0.12453638  1  -1.176293  0  -0.311143  -0.552123  0  2.364408  0
O  O255  1  0.87100962  0.25071294  0.37546217  1  -1.176286  0  -0.311138  -0.552124  0  2.364481  0
O  O256  1  0.62595659  0.69469234  0.96684476  1  -1.166145  0  -0.321189  -0.547884  0  2.31616  0
O  O257  1  0.12595403  0.80530756  0.53315641  1  -1.166192  0  -0.321156  -0.547817  0  2.316265  0
O  O258  1  0.37404454  0.30530801  0.03315580  1  -1.166141  0  -0.321196  -0.547888  0  2.316218  0
O  O259  1  0.87404437  0.19469048  0.46684398  1  -1.166185  0  -0.321225  -0.547897  0  2.316178  0
