# generated using pymatgen
data_ZnH9C17(NO2)3
_symmetry_space_group_name_H-M   'P 1'
_cell_length_a   14.10106034
_cell_length_b   16.03852252
_cell_length_c   17.27678401
_cell_angle_alpha   93.52155881
_cell_angle_beta   91.64033952
_cell_angle_gamma   98.03841033
_symmetry_Int_Tables_number   1
_chemical_formula_structural   ZnH9C17(NO2)3
_chemical_formula_sum   'Zn2 H18 C34 N6 O12'
_cell_volume   3858.88510833
_cell_formula_units_Z   2
loop_
 _symmetry_equiv_pos_site_id
 _symmetry_equiv_pos_as_xyz
  1  'x, y, z'
loop_
 _atom_site_type_symbol
 _atom_site_label
 _atom_site_symmetry_multiplicity
 _atom_site_fract_x
 _atom_site_fract_y
 _atom_site_fract_z
 _atom_site_occupancy
 _atom_site_pbe_bader_charge
 _atom_site_pbe_bader_spin_density
 _atom_site_pbe_cm5_charge
 _atom_site_pbe_ddec_charge
 _atom_site_pbe_ddec_spin_density
 _atom_site_pbe_ddec_sum_bond_order
 _atom_site_pbe_magmom
Zn  Zn0  1  0.49548815  0.41094039  0.49975337  1  1.294534  0  0.670224  0.829657  0  2.393758  0
Zn  Zn1  1  0.50450439  0.58905362  0.50024695  1  1.293272  0  0.670186  0.829603  0  2.393745  0
H  H2  1  0.98269419  0.40336624  0.50524857  1  0.088963  0  0.118861  0.119809  0  0.959069  0
H  H3  1  0.44444946  0.62963356  0.74432223  1  0.099006  0  0.104216  0.110771  0  1.005428  0
H  H4  1  0.44294155  0.09193516  0.39747134  1  0.146167  0  0.121858  0.134881  0  0.995868  0
H  H5  1  0.55708956  0.90806140  0.60252272  1  0.145575  0  0.121809  0.13485  0  0.995924  0
H  H6  1  0.40871213  0.84682095  0.38022059  1  0.091327  0  0.126435  0.136481  0  0.969858  0
H  H7  1  0.59129244  0.15317768  0.61978305  1  0.09119  0  0.126478  0.136636  0  0.969634  0
H  H8  1  0.43089767  0.69424889  0.39474729  1  0.159387  0  0.133646  0.114743  0  0.983101  0
H  H9  1  0.56909710  0.30574579  0.60525425  1  0.159401  0  0.133653  0.114736  0  0.983093  0
H  H10  1  0.40176502  0.25115614  0.26652495  1  0.623257  0  0.351091  0.389484  0  0.842775  0
H  H11  1  0.59823936  0.74883178  0.73346939  1  0.623219  0  0.350997  0.389319  0  0.84304  0
H  H12  1  0.01730079  0.59668636  0.49475112  1  0.088991  0  0.118824  0.119858  0  0.95894  0
H  H13  1  0.57649637  0.40451114  0.75049127  1  0.110653  0  0.103727  0.105615  0  0.998333  0
H  H14  1  0.42349031  0.59548152  0.24950947  1  0.110656  0  0.103688  0.105648  0  0.99834  0
H  H15  1  0.57005311  0.41133164  0.89597921  1  0.10071  0  0.104413  0.104793  0  1.017641  0
H  H16  1  0.42996566  0.58867730  0.10402408  1  0.099922  0  0.104461  0.104819  0  1.017648  0
H  H17  1  0.56407906  0.36439305  0.10970138  1  0.08798  0  0.10556  0.108434  0  0.995963  0
H  H18  1  0.43594349  0.63561785  0.89029975  1  0.08804  0  0.105592  0.108481  0  0.996054  0
H  H19  1  0.55554653  0.37036492  0.25567782  1  0.099179  0  0.104232  0.110849  0  1.005449  0
C  C20  1  0.48923563  0.49051780  0.34782402  1  1.541641  0  0.219986  0.597401  0  4.161114  0
C  C21  1  0.47026218  0.13745791  0.44490403  1  -0.058758  0  -0.063972  -0.197857  0  3.871334  0
C  C22  1  0.48451172  0.88848193  0.48931678  1  0.334018  0  0.109587  0.208332  0  4.034407  0
C  C23  1  0.51550235  0.11151434  0.51067934  1  0.332995  0  0.109711  0.208328  0  4.034615  0
C  C24  1  0.44640515  0.82806023  0.43077801  1  -0.001355  0  -0.058718  -0.172944  0  3.892028  0
C  C25  1  0.55359913  0.17193650  0.56922379  1  -0.001468  0  -0.058867  -0.173271  0  3.891917  0
C  C26  1  0.45874394  0.74434324  0.43839946  1  0.531326  0  0.072032  0.125475  0  3.876981  0
C  C27  1  0.54125512  0.25565152  0.56160331  1  0.531277  0  0.072004  0.125587  0  3.877071  0
C  C28  1  0.31496470  0.49068590  0.50592756  1  1.673399  0  0.216594  0.664396  0  4.238857  0
C  C29  1  0.68502998  0.50931822  0.49407511  1  1.673383  0  0.216447  0.664108  0  4.238896  0
C  C30  1  0.78842184  0.52072409  0.49370294  1  0.145431  0  -0.037217  -0.170981  0  3.936803  0
C  C31  1  0.51075051  0.50947107  0.65217534  1  1.54177  0  0.219986  0.597396  0  4.161288  0
C  C32  1  0.21157677  0.47928765  0.50630197  1  0.145191  0  -0.037134  -0.171035  0  3.937072  0
C  C33  1  0.97604712  0.53394914  0.49733225  1  0.219445  0  -0.060611  -0.044435  0  4.054186  0
C  C34  1  0.02395027  0.46609594  0.50266068  1  0.123677  0  -0.060393  -0.043926  0  4.054254  0
C  C35  1  0.12425466  0.47305764  0.50476325  1  -0.519872  0  -0.037339  -0.017874  0  4.165043  0
C  C36  1  0.87574282  0.52697737  0.49523430  1  -0.520028  0  -0.037282  -0.017783  0  4.16488  0
C  C37  1  0.48972548  0.48374715  0.26091629  1  0.047529  0  -0.010591  -0.015349  0  3.94286  0
C  C38  1  0.51026391  0.51624492  0.73908155  1  0.047174  0  -0.010602  -0.015409  0  3.942827  0
C  C39  1  0.45405192  0.54515355  0.21812081  1  -0.06609  0  -0.081455  -0.081974  0  3.982235  0
C  C40  1  0.54594232  0.45484238  0.78188080  1  -0.065879  0  -0.081579  -0.082067  0  3.982152  0
C  C41  1  0.45772713  0.54174840  0.13791165  1  -0.024089  0  -0.083156  -0.139424  0  3.952218  0
C  C42  1  0.53286887  0.41420090  0.14141037  1  -0.056867  0  -0.083215  -0.145175  0  3.969124  0
C  C43  1  0.54228328  0.45825662  0.86209071  1  -0.02502  0  -0.083081  -0.139265  0  3.95225  0
C  C44  1  0.49904516  0.47676513  0.09902776  1  0.355881  0  0.0847  0.171116  0  4.04552  0
C  C45  1  0.50097182  0.52324630  0.90097564  1  0.336571  0  0.0847  0.170974  0  4.045575  0
C  C46  1  0.40306786  0.24976009  0.37581635  1  1.571947  0  0.23975  0.549456  0  4.129142  0
C  C47  1  0.59694739  0.75022865  0.62418629  1  1.571418  0  0.239453  0.549121  0  4.13014  0
C  C48  1  0.46714537  0.58580607  0.85859332  1  -0.037801  0  -0.083332  -0.145407  0  3.969458  0
C  C49  1  0.52808522  0.41759231  0.22187770  1  -0.082299  0  -0.088183  -0.099897  0  3.989559  0
C  C50  1  0.47191281  0.58240558  0.77812176  1  -0.081584  0  -0.088074  -0.099547  0  3.989381  0
C  C51  1  0.53983740  0.77775931  0.55758992  1  0.555709  0  0.14046  0.153074  0  3.903893  0
C  C52  1  0.46017005  0.22223496  0.44240888  1  0.555255  0  0.140368  0.153067  0  3.903806  0
C  C53  1  0.52975333  0.86253838  0.55509327  1  -0.058738  0  -0.063894  -0.197821  0  3.871233  0
N  N54  1  0.50995945  0.46886185  0.01801399  1  -0.464624  0  -0.152587  -0.142472  0  3.288503  0
N  N55  1  0.49006474  0.53115033  0.98198956  1  -0.512567  0  -0.15258  -0.14236  0  3.288409  0
N  N56  1  0.50604227  0.71967752  0.49980634  1  -1.204463  0  -0.292851  -0.199966  0  3.425182  0
N  N57  1  0.49395721  0.28031536  0.50019459  1  -1.204188  0  -0.29271  -0.19986  0  3.425105  0
N  N58  1  0.47249789  0.97331557  0.47839096  1  -0.449078  0  -0.12411  -0.108084  0  3.21905  0
N  N59  1  0.52752064  0.02668204  0.52160645  1  -0.402691  0  -0.124128  -0.108088  0  3.219208  0
O  O60  1  0.49503969  0.42328049  0.38222100  1  -1.169119  0  -0.314347  -0.549082  0  2.357289  0
O  O61  1  0.44144349  0.23057909  0.30679736  1  -1.111926  0  -0.33095  -0.477878  0  2.214432  0
O  O62  1  0.67033286  0.71969919  0.61653183  1  -1.090487  0  -0.260351  -0.427587  0  2.086385  0
O  O63  1  0.55856065  0.76940694  0.69319860  1  -1.111722  0  -0.330779  -0.477678  0  2.214976  0
O  O64  1  0.50496424  0.57670869  0.61777977  1  -1.16894  0  -0.314305  -0.549038  0  2.35729  0
O  O65  1  0.48441048  0.56309148  0.38041872  1  -1.163855  0  -0.31563  -0.553135  0  2.326429  0
O  O66  1  0.51556804  0.43689348  0.61958204  1  -1.164192  0  -0.315696  -0.553198  0  2.326356  0
O  O67  1  0.35511824  0.42461514  0.51020580  1  -1.13564  0  -0.310437  -0.532812  0  2.295714  0
O  O68  1  0.64487134  0.57538386  0.48978724  1  -1.135722  0  -0.310222  -0.53256  0  2.295917  0
O  O69  1  0.35605619  0.56608885  0.50119291  1  -1.128329  0  -0.317363  -0.54704  0  2.258564  0
O  O70  1  0.64394046  0.43390839  0.49881576  1  -1.128346  0  -0.317459  -0.547135  0  2.258303  0
O  O71  1  0.32967093  0.28029943  0.38346717  1  -1.090727  0  -0.260533  -0.427886  0  2.085672  0
