# generated using pymatgen
data_CoH12C18N2(O3F2)2
_symmetry_space_group_name_H-M   'P 1'
_cell_length_a   7.14421606
_cell_length_b   11.08760828
_cell_length_c   11.08716422
_cell_angle_alpha   91.59361396
_cell_angle_beta   96.60000598
_cell_angle_gamma   96.59221139
_symmetry_Int_Tables_number   1
_chemical_formula_structural   CoH12C18N2(O3F2)2
_chemical_formula_sum   'Co2 H24 C36 N4 O12 F8'
_cell_volume   865.90247816
_cell_formula_units_Z   2
loop_
 _symmetry_equiv_pos_site_id
 _symmetry_equiv_pos_as_xyz
  1  'x, y, z'
loop_
 _atom_site_type_symbol
 _atom_site_label
 _atom_site_symmetry_multiplicity
 _atom_site_fract_x
 _atom_site_fract_y
 _atom_site_fract_z
 _atom_site_occupancy
 _atom_site_hse06_10hf_ddec_charge
 _atom_site_hse06_10hf_ddec_spin_density
 _atom_site_hse06_10hf_ddec_sum_bond_order
 _atom_site_hse06_10hf_magmom
 _atom_site_hse06_ddec_charge
 _atom_site_hse06_ddec_spin_density
 _atom_site_hse06_ddec_sum_bond_order
 _atom_site_hse06_magmom
 _atom_site_pbe_cm5_charge
 _atom_site_pbe_ddec_charge
 _atom_site_pbe_ddec_spin_density
 _atom_site_pbe_ddec_sum_bond_order
 _atom_site_pbe_magmom
Co  Co0  1  0.99999431  0.49999724  0.99999939  1  0.726913  1.023637  2.728835  0.963  0.814991  1.024829  2.641761  0.97  0.605712  0.680911  1.022357  2.780631  0.952
Co  Co1  1  0.50001066  0.00000538  0.50000095  1  0.726885  1.023621  2.729657  0.963  0.81482  1.024877  2.642539  0.97  0.605875  0.68083  1.022328  2.781414  0.952
H  H2  1  0.95145977  0.30454713  0.81514958  1  0.101782  -0.000142  1.031429  0.0  0.104744  -3e-05  1.027429  0.0  0.119576  0.099553  -0.000195  1.034387  0.0
H  H3  1  0.54876941  0.18482381  0.69544920  1  0.101637  -0.000143  1.031727  0.0  0.104603  -3e-05  1.027724  0.0  0.119465  0.099405  -0.000195  1.034693  0.0
H  H4  1  0.04851582  0.69544289  0.18484990  1  0.101759  -0.000142  1.031329  0.0  0.104721  -3e-05  1.027331  0.0  0.119627  0.099531  -0.000194  1.034288  0.0
H  H5  1  0.45122233  0.81518339  0.30455288  1  0.101608  -0.000143  1.031821  0.0  0.104573  -3e-05  1.027821  0.0  0.119444  0.09938  -0.000195  1.034778  0.0
H  H6  1  0.95776796  0.08468850  0.80370349  1  0.126253  0.000111  1.007576  0.0  0.129474  6.7e-05  1.006249  0.0  0.110793  0.123723  0.000175  1.008749  0.0
H  H7  1  0.54244499  0.19627855  0.91532177  1  0.126505  0.00011  1.007507  0.0  0.129737  6.7e-05  1.006185  0.0  0.110862  0.123984  0.000175  1.008684  0.0
H  H8  1  0.04222667  0.91530503  0.19629667  1  0.126277  0.000111  1.007603  0.0  0.129496  6.7e-05  1.006278  0.0  0.110784  0.123752  0.000175  1.008771  0.0
H  H9  1  0.45754152  0.80373051  0.08467723  1  0.126537  0.00011  1.007553  0.0  0.129767  6.7e-05  1.006228  0.0  0.110889  0.124016  0.000175  1.008731  0.0
H  H10  1  0.03874560  0.09863857  0.19858247  1  0.126014  -3.7e-05  1.022437  0.0  0.129107  -5.6e-05  1.021589  0.0  0.108625  0.123652  -2.3e-05  1.023283  0.0
H  H11  1  0.46124002  0.80142275  0.90134894  1  0.125953  -3.7e-05  1.022544  0.0  0.129047  -5.6e-05  1.02169  0.0  0.108574  0.123589  -2.2e-05  1.023397  0.0
H  H12  1  0.96126028  0.90135488  0.80141858  1  0.126017  -3.7e-05  1.02245  0.0  0.129115  -5.6e-05  1.021592  0.0  0.108598  0.123652  -2.3e-05  1.023302  0.0
H  H13  1  0.53876639  0.19858707  0.09865075  1  0.126029  -3.7e-05  1.02251  0.0  0.129121  -5.6e-05  1.021662  0.0  0.108628  0.123665  -2.3e-05  1.023361  0.0
H  H14  1  0.04188333  0.31786390  0.19072362  1  0.087881  -0.000158  1.052188  0.0  0.090231  -5e-05  1.04903  0.0  0.112682  0.085792  -0.000214  1.055067  0.0
H  H15  1  0.45809410  0.80928778  0.68210846  1  0.087943  -0.000158  1.052276  0.0  0.090291  -5e-05  1.049121  0.0  0.112687  0.08586  -0.000214  1.055139  0.0
H  H16  1  0.95810868  0.68213055  0.80927545  1  0.087817  -0.000158  1.052289  0.0  0.090168  -5e-05  1.049136  0.0  0.11265  0.085724  -0.000214  1.055174  0.0
H  H17  1  0.54191953  0.19072290  0.31789092  1  0.087779  -0.000158  1.052328  0.0  0.090124  -5e-05  1.049168  0.0  0.112634  0.085699  -0.000214  1.055188  0.0
H  H18  1  0.38809799  0.49784211  0.12457178  1  0.383073  0.00037  0.94382  0.001  0.393044  0.000207  0.929257  0.001  0.286454  0.37661  0.00054  0.953196  0.001
H  H19  1  0.11189708  0.87545279  0.50211329  1  0.383031  0.000372  0.943876  0.001  0.392996  0.000209  0.929321  0.001  0.286447  0.376568  0.000541  0.95325  0.001
H  H20  1  0.61188790  0.50215694  0.87542693  1  0.383222  0.00037  0.943652  0.001  0.393192  0.000207  0.929091  0.001  0.286552  0.376758  0.00054  0.95303  0.001
H  H21  1  0.88813623  0.12454412  0.49789450  1  0.383051  0.000371  0.943851  0.001  0.393015  0.000209  0.929298  0.001  0.286447  0.376589  0.000541  0.953224  0.001
H  H22  1  0.35441400  0.57182242  0.00725234  1  0.362702  -0.000277  0.989862  0.0  0.37396  -0.000396  0.973359  0.0  0.280281  0.355002  -0.00018  1.001115  0.0
H  H23  1  0.14564285  0.99279051  0.42817342  1  0.362468  -0.000278  0.990232  0.0  0.373726  -0.000395  0.973734  0.0  0.280199  0.354768  -0.00018  1.001482  0.0
H  H24  1  0.64556944  0.42817847  0.99274712  1  0.362696  -0.000276  0.989895  0.0  0.373955  -0.000397  0.97339  0.0  0.280329  0.354995  -0.00018  1.00115  0.0
H  H25  1  0.85438328  0.00720553  0.57183018  1  0.362408  -0.000278  0.990318  0.0  0.373659  -0.000395  0.973829  0.0  0.280208  0.35471  -0.00018  1.001565  0.0
C  C26  1  0.97599172  0.25551039  0.89764000  1  0.105791  -0.004247  3.911027  -0.003  0.116144  -0.002952  3.928242  -0.002  0.049241  0.098396  -0.005507  3.901092  -0.003
C  C27  1  0.52417099  0.10234637  0.74448304  1  0.106136  -0.004253  3.911041  -0.003  0.116489  -0.002959  3.928256  -0.002  0.04929  0.098736  -0.005514  3.901089  -0.003
C  C28  1  0.02399427  0.74448230  0.10236126  1  0.105953  -0.004249  3.910964  -0.003  0.116307  -0.002952  3.928178  -0.002  0.049111  0.098553  -0.00551  3.901036  -0.003
C  C29  1  0.47583099  0.89766257  0.25551717  1  0.106061  -0.004253  3.91141  -0.003  0.11641  -0.002957  3.928629  -0.002  0.049262  0.098665  -0.005513  3.901458  -0.003
C  C30  1  0.97816024  0.13030940  0.89325531  1  -0.170649  0.000197  3.946134  0.001  -0.178647  0.000366  3.966609  0.001  -0.080175  -0.165338  0.000109  3.932994  0.001
C  C31  1  0.52201173  0.10673347  0.86969165  1  -0.171303  0.000198  3.946357  0.001  -0.179323  0.000365  3.966851  0.001  -0.080281  -0.166004  0.00011  3.933233  0.001
C  C32  1  0.02182825  0.86968144  0.10674159  1  -0.170859  0.000197  3.94631  0.001  -0.178862  0.000367  3.966792  0.001  -0.080173  -0.165547  0.000109  3.933172  0.001
C  C33  1  0.47798500  0.89327734  0.13030820  1  -0.171236  0.000198  3.946589  0.001  -0.179249  0.000365  3.967085  0.001  -0.080235  -0.165937  0.00011  3.93346  0.001
C  C34  1  0.00089111  0.06717070  0.00071568  1  0.097716  -0.003321  3.986768  -0.002  0.102906  -0.002248  4.007267  -0.001  0.008328  0.09408  -0.004842  3.972893  -0.003
C  C35  1  0.49917010  0.99928525  0.93282781  1  0.098076  -0.003326  3.986829  -0.002  0.103273  -0.002242  4.007322  -0.001  0.008469  0.094437  -0.004845  3.972957  -0.003
C  C36  1  0.99911301  0.93282094  0.99928518  1  0.097977  -0.003323  3.986622  -0.002  0.103167  -0.002251  4.007125  -0.001  0.008527  0.094329  -0.004844  3.972763  -0.003
C  C37  1  0.50083226  0.00072551  0.06717158  1  0.098149  -0.003325  3.986922  -0.002  0.103341  -0.002244  4.007414  -0.001  0.008511  0.094515  -0.004845  3.973044  -0.003
C  C38  1  0.02221970  0.13768441  0.10954204  1  -0.172195  0.000166  3.946573  0.001  -0.18048  0.000256  3.967894  0.001  -0.08164  -0.166622  8.6e-05  3.932556  0.001
C  C39  1  0.47778559  0.89046160  0.86230790  1  -0.172374  0.000168  3.946933  0.001  -0.180654  0.000256  3.96825  0.001  -0.08174  -0.166804  8.8e-05  3.932925  0.001
C  C40  1  0.97777937  0.86230999  0.89045578  1  -0.17235  0.000166  3.946491  0.001  -0.180638  0.000257  3.967811  0.001  -0.081735  -0.166781  8.7e-05  3.932485  0.001
C  C41  1  0.52222222  0.10954822  0.13769189  1  -0.172507  0.000167  3.947103  0.001  -0.180786  0.000255  3.968418  0.001  -0.081834  -0.166934  8.8e-05  3.933088  0.001
C  C42  1  0.02375901  0.26297991  0.10691459  1  0.091743  -0.004384  3.926974  -0.003  0.101241  -0.003417  3.945986  -0.002  0.041897  0.084779  -0.005634  3.916279  -0.004
C  C43  1  0.47627534  0.89309002  0.73700941  1  0.091713  -0.00439  3.927724  -0.003  0.101212  -0.003421  3.946734  -0.002  0.041983  0.084743  -0.005638  3.917008  -0.004
C  C44  1  0.97623387  0.73701180  0.89308358  1  0.091854  -0.004385  3.927263  -0.003  0.10135  -0.003414  3.946282  -0.002  0.041962  0.084915  -0.005636  3.91652  -0.004
C  C45  1  0.52373848  0.10692157  0.26299000  1  0.091842  -0.004389  3.927369  -0.003  0.101346  -0.00342  3.946372  -0.002  0.041975  0.084871  -0.005637  3.916667  -0.004
C  C46  1  0.76984416  0.47325327  0.20215377  1  0.632889  -0.003002  4.166326  -0.002  0.672709  -0.000802  4.154247  0.001  0.22333  0.605108  -0.004718  4.17494  -0.003
C  C47  1  0.73016409  0.79784911  0.52668527  1  0.632908  -0.003005  4.165937  -0.002  0.672738  -0.000811  4.153857  0.001  0.223364  0.605123  -0.004717  4.174536  -0.003
C  C48  1  0.23014453  0.52674576  0.79784696  1  0.632661  -0.003003  4.166799  -0.002  0.672485  -0.000802  4.154726  0.001  0.223205  0.604877  -0.004718  4.175412  -0.003
C  C49  1  0.26985516  0.20215424  0.47330986  1  0.632982  -0.003007  4.166096  -0.002  0.672814  -0.000811  4.154016  0.001  0.223382  0.605194  -0.004719  4.174686  -0.003
C  C50  1  0.76483618  0.50885371  0.33478076  1  -0.254157  -0.001062  4.053737  -0.001  -0.260925  -0.000463  4.066078  0.0  -0.035551  -0.249725  -0.001256  4.045875  -0.001
C  C51  1  0.73518552  0.66522042  0.49110886  1  -0.254496  -0.001061  4.053811  -0.001  -0.261328  -0.000463  4.066262  0.0  -0.035432  -0.250037  -0.001255  4.045882  -0.001
C  C52  1  0.23516638  0.49114432  0.66522194  1  -0.253977  -0.001062  4.053869  -0.001  -0.260749  -0.00046  4.066225  0.0  -0.035516  -0.249529  -0.001256  4.045968  -0.001
C  C53  1  0.26481726  0.33477851  0.50889117  1  -0.254511  -0.001062  4.053651  -0.001  -0.261351  -0.000463  4.066122  0.0  -0.035446  -0.25007  -0.001255  4.045778  -0.001
C  C54  1  0.75001143  0.62815035  0.37181786  1  0.276557  0.000227  4.033488  0.0  0.290969  -3.4e-05  4.038598  0.0  0.103196  0.266473  0.00031  4.030605  0.0
C  C55  1  0.24997568  0.37184779  0.62818093  1  0.276473  0.000227  4.033618  0.0  0.290883  -3.5e-05  4.038726  0.0  0.10323  0.26639  0.00031  4.030727  0.0
C  C56  1  0.76991615  0.42414045  0.42510795  1  0.179035  0.000124  4.11195  0.0  0.19002  -8.8e-05  4.119676  0.0  0.093674  0.171717  0.000199  4.106042  0.0
C  C57  1  0.73003253  0.57490820  0.57584096  1  0.179425  0.000124  4.111275  0.0  0.190422  -8.7e-05  4.119003  0.0  0.093497  0.17211  0.000198  4.105372  0.0
C  C58  1  0.23008259  0.57585942  0.57489178  1  0.178936  0.000124  4.112126  0.0  0.189923  -8.7e-05  4.119852  0.0  0.093546  0.171618  0.000199  4.106218  0.0
C  C59  1  0.26996079  0.42509262  0.42415657  1  0.179525  0.000124  4.11127  0.0  0.190525  -8.4e-05  4.118993  0.0  0.093507  0.172207  0.000198  4.105367  0.0
C  C60  1  0.74993881  0.45459740  0.54540727  1  0.048969  -0.000324  4.148326  0.0  0.056082  -5.1e-05  4.156672  0.0  0.0758  0.045429  -0.000458  4.142061  0.0
C  C61  1  0.25005758  0.54539794  0.45459397  1  0.048806  -0.000325  4.148473  0.0  0.055919  -5.4e-05  4.15682  0.0  0.075706  0.045264  -0.000458  4.142213  0.0
N  N62  1  0.00235306  0.32292020  0.00277339  1  -0.199786  -0.009263  3.602036  -0.006  -0.231272  -0.008376  3.622215  -0.005  -0.330294  -0.182414  -0.008751  3.59108  -0.006
N  N63  1  0.49772280  0.99721409  0.67706470  1  -0.199887  -0.009259  3.602606  -0.006  -0.231338  -0.008376  3.622744  -0.005  -0.330391  -0.182459  -0.008745  3.591567  -0.006
N  N64  1  0.99762592  0.67707253  0.99722462  1  -0.199778  -0.009261  3.602335  -0.006  -0.231265  -0.008378  3.622515  -0.005  -0.330204  -0.182412  -0.00875  3.591388  -0.006
N  N65  1  0.50229205  0.00279567  0.32293475  1  -0.199782  -0.00926  3.602354  -0.006  -0.231228  -0.008379  3.622487  -0.005  -0.33029  -0.182369  -0.008747  3.591338  -0.006
O  O66  1  0.92887847  0.50508779  0.16330898  1  -0.523207  -0.006851  2.497756  -0.006  -0.56393  -0.010543  2.484926  -0.009  -0.287764  -0.496212  -0.005062  2.504999  -0.004
O  O67  1  0.57107851  0.83668924  0.49487007  1  -0.523303  -0.006836  2.496912  -0.005  -0.563978  -0.010525  2.484001  -0.009  -0.287928  -0.496366  -0.005054  2.504324  -0.004
O  O68  1  0.07110886  0.49489761  0.83669221  1  -0.523149  -0.00685  2.497656  -0.006  -0.563854  -0.010542  2.484778  -0.009  -0.287795  -0.49617  -0.005061  2.504935  -0.004
O  O69  1  0.42893802  0.16331506  0.50513298  1  -0.523231  -0.006835  2.497039  -0.005  -0.563898  -0.010524  2.484123  -0.009  -0.287879  -0.496305  -0.005053  2.504481  -0.004
O  O70  1  0.62098563  0.41857677  0.14389368  1  -0.546462  -0.001358  2.178569  -0.001  -0.570422  -0.001276  2.166138  -0.001  -0.296977  -0.530441  -0.001773  2.187235  -0.001
O  O71  1  0.87904027  0.85609319  0.58131426  1  -0.546096  -0.001357  2.178879  -0.001  -0.570045  -0.001266  2.166436  -0.001  -0.296831  -0.530075  -0.001772  2.187553  -0.001
O  O72  1  0.37899378  0.58142505  0.85610459  1  -0.546316  -0.001359  2.178849  -0.001  -0.570274  -0.001277  2.166419  -0.001  -0.296805  -0.530298  -0.001774  2.187517  -0.001
O  O73  1  0.12098885  0.14390280  0.41867334  1  -0.546259  -0.001358  2.17887  -0.001  -0.57021  -0.001267  2.166425  -0.001  -0.296914  -0.530232  -0.001773  2.187548  -0.001
O  O74  1  0.30843842  0.55666476  0.08756718  1  -0.770986  0.021443  2.086844  0.035  -0.794276  0.017469  2.051563  0.029  -0.581153  -0.75258  0.026061  2.10876  0.042
O  O75  1  0.19158313  0.91245623  0.44331704  1  -0.770723  0.021449  2.087333  0.035  -0.794005  0.01747  2.052046  0.029  -0.581059  -0.752334  0.026067  2.109324  0.042
O  O76  1  0.69154409  0.44333159  0.91243300  1  -0.771118  0.021444  2.086713  0.035  -0.794431  0.017468  2.051484  0.029  -0.581287  -0.752713  0.026062  2.108632  0.042
O  O77  1  0.80845210  0.08754341  0.55669459  1  -0.770723  0.021448  2.087237  0.035  -0.794029  0.017469  2.05202  0.029  -0.58107  -0.752291  0.026067  2.109131  0.042
F  F78  1  0.75002967  0.71372038  0.28621229  1  -0.119268  6.1e-05  1.395011  0.0  -0.128278  4.6e-05  1.38477  0.0  -0.074939  -0.112729  7.1e-05  1.402087  0.0
F  F79  1  0.24995814  0.28627411  0.71378466  1  -0.119217  6e-05  1.395039  0.0  -0.128225  4.5e-05  1.384796  0.0  -0.074926  -0.112678  7.2e-05  1.402115  0.0
F  F80  1  0.79778090  0.30872415  0.39615139  1  -0.090895  -4.3e-05  1.438834  0.0  -0.099722  -5.7e-05  1.429077  0.0  -0.063358  -0.084469  -4.5e-05  1.445235  0.0
F  F81  1  0.70220832  0.60392251  0.69125576  1  -0.091162  -4.4e-05  1.43864  0.0  -0.09999  -5.7e-05  1.428874  0.0  -0.063325  -0.084743  -4.5e-05  1.445046  0.0
F  F82  1  0.20223885  0.69128194  0.60384835  1  -0.090894  -4.3e-05  1.438924  0.0  -0.099724  -5.6e-05  1.429169  0.0  -0.063313  -0.084468  -4.5e-05  1.445325  0.0
F  F83  1  0.29778621  0.39607739  0.30874274  1  -0.091157  -4.3e-05  1.438598  0.0  -0.099985  -5.6e-05  1.428833  0.0  -0.063326  -0.084731  -4.5e-05  1.445003  0.0
F  F84  1  0.74985883  0.36994376  0.63006552  1  -0.066246  -0.00013  1.441468  0.0  -0.08153  -5.6e-05  1.440935  0.0  -0.06576  -0.06126  -0.000215  1.447909  0.0
F  F85  1  0.25012635  0.63005165  0.36993124  1  -0.066159  -0.00013  1.441299  0.0  -0.081452  -5.4e-05  1.440781  0.0  -0.065667  -0.061172  -0.000215  1.44774  0.0
