# generated using pymatgen
data_ZnH17C27(NO)6
_symmetry_space_group_name_H-M   'P 1'
_cell_length_a   8.79431584
_cell_length_b   12.10097944
_cell_length_c   12.77887935
_cell_angle_alpha   99.63070951
_cell_angle_beta   93.61321189
_cell_angle_gamma   105.32854462
_symmetry_Int_Tables_number   1
_chemical_formula_structural   ZnH17C27(NO)6
_chemical_formula_sum   'Zn2 H34 C54 N12 O12'
_cell_volume   1284.81220765
_cell_formula_units_Z   2
loop_
 _symmetry_equiv_pos_site_id
 _symmetry_equiv_pos_as_xyz
  1  'x, y, z'
loop_
 _atom_site_type_symbol
 _atom_site_label
 _atom_site_symmetry_multiplicity
 _atom_site_fract_x
 _atom_site_fract_y
 _atom_site_fract_z
 _atom_site_occupancy
 _atom_site_hle17_bader_spin_density
 _atom_site_hle17_ddec_charge
 _atom_site_hle17_ddec_spin_density
 _atom_site_hle17_ddec_sum_bond_order
 _atom_site_hle17_magmom
 _atom_site_hse06_10hf_bader_spin_density
 _atom_site_hse06_10hf_ddec_charge
 _atom_site_hse06_10hf_ddec_spin_density
 _atom_site_hse06_10hf_ddec_sum_bond_order
 _atom_site_hse06_10hf_magmom
 _atom_site_hse06_bader_spin_density
 _atom_site_hse06_ddec_charge
 _atom_site_hse06_ddec_spin_density
 _atom_site_hse06_ddec_sum_bond_order
 _atom_site_hse06_magmom
 _atom_site_pbe_bader_spin_density
 _atom_site_pbe_cm5_charge
 _atom_site_pbe_ddec_charge
 _atom_site_pbe_ddec_spin_density
 _atom_site_pbe_ddec_sum_bond_order
 _atom_site_pbe_magmom
Zn  Zn0  1  0.82554693  0.33978745  0.06004485  1  0  1.022771  0  1.820046  0  0  0.832211  0  2.290926  0  0  0.880306  0  2.236068  0  0  0.701043  0.798459  0  2.328866  0
Zn  Zn1  1  0.17443234  0.66019823  0.93994206  1  0  1.02279  0  1.8201  0  0  0.832184  0  2.290976  0  0  0.880282  0  2.236112  0  0  0.700985  0.798432  0  2.32892  0
H  H2  1  0.77448273  0.10133147  0.40869291  1  0  0.35966  0  0.933477  0  0  0.318321  0  1.03384  0  0  0.331198  0  1.020979  0  0  0.289518  0.309421  0  1.042407  0
H  H3  1  0.22552321  0.89867881  0.59130529  1  0  0.359679  0  0.933397  0  0  0.318325  0  1.033775  0  0  0.331201  0  1.020914  0  0  0.289503  0.309427  0  1.042343  0
H  H4  1  0.02824583  0.70098674  0.59531531  1  0  0.104829  0  0.944164  0  0  0.116689  0  1.002741  0  0  0.120217  0  1.000244  0  0  0.104909  0.114332  0  1.004331  0
H  H5  1  0.97175862  0.29901948  0.40467576  1  0  0.104685  0  0.944517  0  0  0.116644  0  1.00296  0  0  0.120173  0  1.000462  0  0  0.104895  0.114286  0  1.004549  0
H  H6  1  0.06013720  0.61453267  0.24519812  1  0  0.105316  0  0.966848  0  0  0.113104  0  1.034167  0  0  0.116969  0  1.030918  0  0  0.102586  0.110277  0  1.036625  0
H  H7  1  0.93986351  0.38547248  0.75479496  1  0  0.105377  0  0.966767  0  0  0.113147  0  1.034117  0  0  0.117014  0  1.030861  0  0  0.102588  0.110319  0  1.036576  0
H  H8  1  0.95315612  0.93866598  0.23821655  1  0  0.109958  0  0.944077  0  0  0.117444  0  1.008378  0  0  0.122104  0  1.0037  0  0  0.104345  0.114008  0  1.011928  0
H  H9  1  0.04685408  0.06134041  0.76177396  1  0  0.10993  0  0.944117  0  0  0.117488  0  1.008331  0  0  0.122149  0  1.003651  0  0  0.10435  0.11405  0  1.01188  0
H  H10  1  0.84821817  0.77060234  0.50645816  1  0  0.10521  0  0.948623  0  0  0.113745  0  1.012906  0  0  0.118136  0  1.008875  0  0  0.105598  0.11053  0  1.015783  0
H  H11  1  0.15178283  0.22940386  0.49353122  1  0  0.105096  0  0.948628  0  0  0.11366  0  1.012905  0  0  0.118081  0  1.008842  0  0  0.10556  0.110446  0  1.015782  0
H  H12  1  0.80815193  0.49787488  0.87635912  1  0  0.123076  0  0.955649  0  0  0.130523  0  1.016654  0  0  0.134026  0  1.013675  0  0  0.122685  0.128001  0  1.018763  0
H  H13  1  0.19183182  0.50212307  0.12364762  1  0  0.123082  0  0.955521  0  0  0.130547  0  1.016496  0  0  0.134053  0  1.013515  0  0  0.1227  0.128005  0  1.018628  0
H  H14  1  0.71831508  0.70052833  0.92507993  1  0  0.119027  0  0.9518  0  0  0.134333  0  1.001305  0  0  0.136837  0  1.000212  0  0  0.130383  0.132505  0  1.002207  0
H  H15  1  0.28167988  0.29946893  0.07492940  1  0  0.119033  0  0.951873  0  0  0.134297  0  1.001431  0  0  0.136799  0  1.000339  0  0  0.130377  0.132469  0  1.002335  0
H  H16  1  0.65820027  0.51758059  0.18315079  1  0  0.107404  0  1.000264  0  0  0.115085  0  1.063995  0  0  0.118273  0  1.060179  0  0  0.136535  0.112561  0  1.067048  0
H  H17  1  0.34180504  0.48241684  0.81686048  1  0  0.107183  0  1.000255  0  0  0.114826  0  1.064082  0  0  0.118028  0  1.060239  0  0  0.136408  0.112304  0  1.067134  0
H  H18  1  0.68654139  0.84964429  0.03211199  1  0  0.12228  0  0.957928  0  0  0.13185  0  1.020929  0  0  0.134567  0  1.020338  0  0  0.116167  0.129895  0  1.021465  0
H  H19  1  0.31343739  0.15034602  0.96788758  1  0  0.122209  0  0.957983  0  0  0.13178  0  1.020976  0  0  0.1345  0  1.020382  0  0  0.116123  0.129822  0  1.021512  0
H  H20  1  0.47491978  0.96434420  0.30835631  1  0  0.129588  0  0.951173  0  0  0.139263  0  1.012655  0  0  0.142574  0  1.010946  0  0  0.121946  0.136891  0  1.013994  0
H  H21  1  0.52509185  0.03565529  0.69165167  1  0  0.129545  0  0.951241  0  0  0.139201  0  1.012737  0  0  0.142513  0  1.011029  0  0  0.121923  0.136829  0  1.014077  0
H  H22  1  0.51536551  0.61331453  0.24558616  1  0  0.120542  0  0.951271  0  0  0.13398  0  1.008222  0  0  0.137104  0  1.006665  0  0  0.117523  0.131706  0  1.009484  0
H  H23  1  0.48464469  0.38668381  0.75442703  1  0  0.120499  0  0.951376  0  0  0.133987  0  1.008267  0  0  0.13711  0  1.006712  0  0  0.117494  0.131712  0  1.00953  0
H  H24  1  0.79785323  0.06428736  0.05933553  1  0  0.122732  0  0.929928  0  0  0.132971  0  0.988837  0  0  0.136517  0  0.983697  0  0  0.145183  0.130281  0  0.992628  0
H  H25  1  0.20213223  0.93570890  0.94067093  1  0  0.122723  0  0.929802  0  0  0.132929  0  0.988756  0  0  0.136481  0  0.983607  0  0  0.145137  0.130238  0  0.992548  0
H  H26  1  0.49420858  0.27175746  0.14897663  1  0  0.10614  0  0.959092  0  0  0.117456  0  1.015336  0  0  0.119896  0  1.013908  0  0  0.122907  0.115674  0  1.016425  0
H  H27  1  0.50577159  0.72823058  0.85101626  1  0  0.106189  0  0.959081  0  0  0.117463  0  1.015356  0  0  0.119902  0  1.013928  0  0  0.122894  0.115682  0  1.016444  0
H  H28  1  0.36652254  0.05275444  0.19779056  1  0  0.134899  0  0.930351  0  0  0.14874  0  0.979937  0  0  0.151533  0  0.978841  0  0  0.136214  0.14666  0  0.980955  0
H  H29  1  0.63346711  0.94723094  0.80220838  1  0  0.134938  0  0.930242  0  0  0.148737  0  0.979874  0  0  0.151529  0  0.978779  0  0  0.136219  0.146658  0  0.980893  0
H  H30  1  0.51735207  0.63077804  0.42760119  1  0  0.115635  0  0.945238  0  0  0.130045  0  0.996431  0  0  0.132709  0  0.995272  0  0  0.125439  0.128104  0  0.997384  0
H  H31  1  0.48267061  0.36923364  0.57241352  1  0  0.115607  0  0.945186  0  0  0.130033  0  0.996357  0  0  0.132698  0  0.995194  0  0  0.125404  0.128094  0  0.997306  0
H  H32  1  0.38021935  0.68215816  0.61275747  1  0  0.111503  0  0.978307  0  0  0.11654  0  1.042752  0  0  0.119867  0  1.040998  0  0  0.111749  0.114103  0  1.044136  0
H  H33  1  0.61979122  0.31785165  0.38725331  1  0  0.111491  0  0.978277  0  0  0.116566  0  1.042689  0  0  0.119897  0  1.040928  0  0  0.111738  0.114127  0  1.044073  0
H  H34  1  0.31328908  0.91090023  0.41184813  1  0  0.101421  0  0.985221  0  0  0.107952  0  1.050798  0  0  0.111176  0  1.047081  0  0  0.132484  0.105605  0  1.053464  0
H  H35  1  0.68670269  0.08909836  0.58814961  1  0  0.101428  0  0.985192  0  0  0.107978  0  1.05076  0  0  0.111205  0  1.047037  0  0  0.132468  0.105632  0  1.053425  0
C  C36  1  0.88111549  0.42503108  0.27605937  1  0  0.657747  0  3.899753  0  0  0.606629  0  4.198111  0  0  0.640274  0  4.190607  0  0  0.20607  0.583799  0  4.202177  0
C  C37  1  0.11887289  0.57497048  0.72394746  1  0  0.657581  0  3.899367  0  0  0.606354  0  4.197983  0  0  0.64  0  4.190484  0  0  0.205908  0.583519  0  4.202049  0
C  C38  1  0.95862622  0.47007418  0.38921434  1  0  -0.085072  0  3.719693  0  0  -0.069778  0  3.96088  0  0  -0.07417  0  3.979776  0  0  -0.015041  -0.067109  0  3.948214  0
C  C39  1  0.04136674  0.52993168  0.61077784  1  0  -0.084912  0  3.719224  0  0  -0.069734  0  3.96062  0  0  -0.07412  0  3.979507  0  0  -0.014967  -0.067056  0  3.947952  0
C  C40  1  0.97132474  0.58514490  0.44200783  1  0  0.04038  0  3.751867  0  0  0.044834  0  3.989352  0  0  0.045542  0  4.013312  0  0  -0.007432  0.044535  0  3.973173  0
C  C41  1  0.02867536  0.41485883  0.55797789  1  0  0.040518  0  3.751833  0  0  0.044978  0  3.989354  0  0  0.04569  0  4.01331  0  0  -0.007347  0.04467  0  3.973174  0
C  C42  1  0.01108511  0.61169467  0.55316720  1  0  -0.118076  0  3.722267  0  0  -0.149896  0  3.976309  0  0  -0.151202  0  3.99511  0  0  -0.087894  -0.148987  0  3.963499  0
C  C43  1  0.98890636  0.38830709  0.44681862  1  0  -0.11793  0  3.722564  0  0  -0.14989  0  3.97655  0  0  -0.151197  0  3.995356  0  0  -0.087919  -0.148971  0  3.963735  0
C  C44  1  0.95594098  0.67873370  0.38393567  1  0  0.046498  0  3.769585  0  0  0.064274  0  4.011799  0  0  0.061589  0  4.036047  0  0  -0.009744  0.065701  0  3.99543  0
C  C45  1  0.04405680  0.32126644  0.61605083  1  0  0.046336  0  3.769834  0  0  0.064248  0  4.011875  0  0  0.061559  0  4.036134  0  0  -0.009711  0.065676  0  3.995504  0
C  C46  1  0.01127124  0.68277695  0.28335293  1  0  -0.09384  0  3.670228  0  0  -0.132174  0  3.926422  0  0  -0.129999  0  3.943706  0  0  -0.082799  -0.133482  0  3.91486  0
C  C47  1  0.98873840  0.31723098  0.71664179  1  0  -0.093883  0  3.670105  0  0  -0.132235  0  3.926209  0  0  -0.13006  0  3.943492  0  0  -0.082802  -0.133542  0  3.914648  0
C  C48  1  0.00860337  0.77473074  0.23031621  1  0  -0.077774  0  3.76709  0  0  -0.052241  0  4.007367  0  0  -0.061428  0  4.030273  0  0  -0.028197  -0.046334  0  3.991946  0
C  C49  1  0.99140283  0.22527706  0.76967915  1  0  -0.077544  0  3.766862  0  0  -0.052034  0  4.007147  0  0  -0.061218  0  4.030053  0  0  -0.028129  -0.04613  0  3.991726  0
C  C50  1  0.95259120  0.86629290  0.27866094  1  0  -0.060711  0  3.699763  0  0  -0.099092  0  3.949269  0  0  -0.095242  0  3.966562  0  0  -0.07909  -0.101411  0  3.937615  0
C  C51  1  0.04742045  0.13371424  0.72133291  1  0  -0.060712  0  3.699813  0  0  -0.099168  0  3.949301  0  0  -0.095318  0  3.966593  0  0  -0.079102  -0.101485  0  3.937644  0
C  C52  1  0.89414323  0.86304322  0.37767830  1  0  -0.076074  0  3.782189  0  0  -0.051557  0  4.020833  0  0  -0.061234  0  4.04541  0  0  -0.023277  -0.045401  0  4.00417  0
C  C53  1  0.10586149  0.13696029  0.62231459  1  0  -0.076118  0  3.782296  0  0  -0.051566  0  4.020884  0  0  -0.061257  0  4.045462  0  0  -0.023132  -0.0454  0  4.00422  0
C  C54  1  0.89538332  0.76990446  0.42954928  1  0  -0.0979  0  3.67351  0  0  -0.135568  0  3.927705  0  0  -0.133422  0  3.945117  0  0  -0.078015  -0.136289  0  3.915457  0
C  C55  1  0.10462774  0.23010087  0.57044574  1  0  -0.097752  0  3.673512  0  0  -0.135508  0  3.927683  0  0  -0.133388  0  3.945089  0  0  -0.078077  -0.136231  0  3.915435  0
C  C56  1  0.06120343  0.77438609  0.12018230  1  0  0.639318  0  3.946685  0  0  0.589629  0  4.243732  0  0  0.623667  0  4.23713  0  0  0.192564  0.566555  0  4.247406  0
C  C57  1  0.93880244  0.22561738  0.87981219  1  0  0.63917  0  3.946985  0  0  0.589528  0  4.243966  0  0  0.623562  0  4.237374  0  0  0.192552  0.566455  0  4.247636  0
C  C58  1  0.82491167  0.95590929  0.42903152  1  0  0.64049  0  3.824915  0  0  0.592016  0  4.123631  0  0  0.624339  0  4.116761  0  0  0.2217  0.5701  0  4.12789  0
C  C59  1  0.17511735  0.04411197  0.57096885  1  0  0.640477  0  3.825406  0  0  0.59199  0  4.124092  0  0  0.624345  0  4.117175  0  0  0.221423  0.570057  0  4.128376  0
C  C60  1  0.75774062  0.53056354  0.94613632  1  0  0.025325  0  3.703365  0  0  -0.009841  0  3.972562  0  0  -0.006615  0  3.990048  0  0  0.006463  -0.011893  0  3.960681  0
C  C61  1  0.24225256  0.46942859  0.05386958  1  0  0.025305  0  3.703058  0  0  -0.00987  0  3.97225  0  0  -0.006645  0  3.989733  0  0  0.006513  -0.011906  0  3.960377  0
C  C62  1  0.71316352  0.63128757  0.96941663  1  0  -0.05748  0  3.644936  0  0  -0.098302  0  3.903998  0  0  -0.097852  0  3.922946  0  0  0.00372  -0.098546  0  3.891203  0
C  C63  1  0.28683339  0.36870570  0.03058570  1  0  -0.05734  0  3.645095  0  0  -0.098144  0  3.904154  0  0  -0.097685  0  3.923099  0  0  0.003737  -0.098389  0  3.891355  0
C  C64  1  0.67881856  0.53755035  0.10491564  1  0  0.171519  0  3.644294  0  0  0.105731  0  3.913113  0  0  0.120183  0  3.925459  0  0  0.143795  0.096249  0  3.904762  0
C  C65  1  0.32118184  0.46244631  0.89509062  1  0  0.171805  0  3.64441  0  0  0.106034  0  3.913201  0  0  0.120484  0  3.925537  0  0  0.143925  0.09655  0  3.904849  0
C  C66  1  0.60678078  0.72215881  0.13212755  1  0  0.227656  0  3.774726  0  0  0.219246  0  4.026901  0  0  0.227352  0  4.049068  0  0  0.107305  0.21391  0  4.011821  0
C  C67  1  0.39322342  0.27784573  0.86788041  1  0  0.227476  0  3.775047  0  0  0.219088  0  4.027193  0  0  0.227202  0  4.049355  0  0  0.107217  0.213751  0  4.012111  0
C  C68  1  0.62682397  0.83010037  0.10142335  1  0  -0.229572  0  3.684434  0  0  -0.262541  0  3.947226  0  0  -0.269834  0  3.96722  0  0  -0.086437  -0.257856  0  3.933847  0
C  C69  1  0.37316808  0.16989537  0.89857931  1  0  -0.229237  0  3.684419  0  0  -0.262287  0  3.947088  0  0  -0.269582  0  3.96708  0  0  -0.086342  -0.257596  0  3.9337  0
C  C70  1  0.56866800  0.91309956  0.16285351  1  0  0.234679  0  3.782164  0  0  0.225342  0  4.034276  0  0  0.233752  0  4.055298  0  0  0.108309  0.219719  0  4.020131  0
C  C71  1  0.43133207  0.08689278  0.83715187  1  0  0.234249  0  3.782798  0  0  0.22517  0  4.034528  0  0  0.233581  0  4.055552  0  0  0.10831  0.219546  0  4.020381  0
C  C72  1  0.50305711  0.89341796  0.25648786  1  0  -0.232134  0  3.688163  0  0  -0.265566  0  3.945973  0  0  -0.272667  0  3.96477  0  0  -0.087185  -0.260891  0  3.933422  0
C  C73  1  0.49695078  0.10658050  0.74352136  1  0  -0.231993  0  3.688454  0  0  -0.265471  0  3.946142  0  0  -0.272573  0  3.964944  0  0  -0.087178  -0.260797  0  3.93359  0
C  C74  1  0.48750415  0.78607859  0.28730505  1  0  0.237952  0  3.790556  0  0  0.231498  0  4.037478  0  0  0.240055  0  4.058855  0  0  0.113233  0.225823  0  4.02291  0
C  C75  1  0.51250465  0.21392223  0.71271015  1  0  0.23767  0  3.790749  0  0  0.231214  0  4.037674  0  0  0.239768  0  4.059054  0  0  0.113062  0.225539  0  4.023104  0
C  C76  1  0.53421661  0.69835460  0.22348485  1  0  -0.233099  0  3.674816  0  0  -0.267483  0  3.93479  0  0  -0.274951  0  3.954807  0  0  -0.087675  -0.262472  0  3.921168  0
C  C77  1  0.46579507  0.30164814  0.77652848  1  0  -0.2328  0  3.674912  0  0  -0.267275  0  3.934886  0  0  -0.274745  0  3.954904  0  0  -0.087513  -0.262262  0  3.921263  0
C  C78  1  0.69761128  0.09036114  0.08990747  1  0  0.194895  0  3.585829  0  0  0.130019  0  3.849159  0  0  0.145844  0  3.858657  0  0  0.159558  0.119722  0  3.842533  0
C  C79  1  0.30238303  0.90963123  0.91009381  1  0  0.195034  0  3.58554  0  0  0.130178  0  3.848865  0  0  0.145995  0  3.858369  0  0  0.159637  0.119883  0  3.84224  0
C  C80  1  0.53531284  0.19442561  0.13615877  1  0  0.014241  0  3.76884  0  0  -0.020681  0  4.037654  0  0  -0.018194  0  4.057193  0  0  0.00306  -0.02235  0  4.024548  0
C  C81  1  0.46468258  0.80556352  0.86383799  1  0  0.013929  0  3.769328  0  0  -0.02098  0  4.038185  0  0  -0.018491  0  4.057718  0  0  0.002971  -0.02265  0  4.025083  0
C  C82  1  0.47436680  0.08879946  0.16398703  1  0  -0.055665  0  3.648171  0  0  -0.09678  0  3.905128  0  0  -0.096069  0  3.923848  0  0  0.007908  -0.097235  0  3.892677  0
C  C83  1  0.52562454  0.91118442  0.83600775  1  0  -0.05554  0  3.648027  0  0  -0.096613  0  3.904979  0  0  -0.095905  0  3.923695  0  0  0.007982  -0.097072  0  3.892538  0
C  C84  1  0.45312511  0.69426215  0.45094182  1  0  -0.065653  0  3.659956  0  0  -0.104252  0  3.9144  0  0  -0.103574  0  3.934087  0  0  -0.000625  -0.104701  0  3.901079  0
C  C85  1  0.54689006  0.30574391  0.54907700  1  0  -0.065654  0  3.660304  0  0  -0.104299  0  3.914737  0  0  -0.103619  0  3.934432  0  0  -0.000584  -0.104751  0  3.901414  0
C  C86  1  0.38863623  0.72303233  0.54307220  1  0  0.014268  0  3.730149  0  0  -0.017797  0  3.99928  0  0  -0.016996  0  4.019491  0  0  -0.00011  -0.018206  0  3.985579  0
C  C87  1  0.61137002  0.27697459  0.45694179  1  0  0.014151  0  3.730632  0  0  -0.017955  0  3.999767  0  0  -0.017158  0  4.019986  0  0  -0.000222  -0.018361  0  3.986061  0
C  C88  1  0.35166061  0.84231282  0.44092019  1  0  0.169829  0  3.650234  0  0  0.107942  0  3.92158  0  0  0.121168  0  3.933289  0  0  0.142468  0.099549  0  3.913169  0
C  C89  1  0.64834500  0.15768934  0.55908342  1  0  0.169766  0  3.650197  0  0  0.107816  0  3.92156  0  0  0.121041  0  3.933269  0  0  0.142442  0.099424  0  3.913147  0
N  N90  1  0.73582009  0.47309765  0.03165744  1  0  -0.371318  0  3.264737  0  0  -0.29151  0  3.56473  0  0  -0.311172  0  3.576034  0  0  -0.351385  -0.278279  0  3.556953  0
N  N91  1  0.26417799  0.52689926  0.96834252  1  0  -0.371357  0  3.264464  0  0  -0.291551  0  3.564462  0  0  -0.311218  0  3.575769  0  0  -0.35139  -0.278317  0  3.556679  0
N  N92  1  0.66210531  0.63479026  0.07073746  1  0  -0.091736  0  3.584615  0  0  -0.00032  0  3.793974  0  0  -0.016506  0  3.820739  0  0  -0.219597  0.010452  0  3.775704  0
N  N93  1  0.33790089  0.36521358  0.92926808  1  0  -0.091923  0  3.585149  0  0  -0.000501  0  3.7945  0  0  -0.016698  0  3.821265  0  0  -0.219664  0.010272  0  3.776232  0
N  N94  1  0.57902533  0.02337311  0.13514009  1  0  -0.092243  0  3.573268  0  0  -0.003133  0  3.788564  0  0  -0.018516  0  3.813475  0  0  -0.220465  0.007057  0  3.771537  0
N  N95  1  0.42097784  0.97661530  0.86485756  1  0  -0.092101  0  3.573197  0  0  -0.003071  0  3.788407  0  0  -0.018449  0  3.813314  0  0  -0.220417  0.007117  0  3.771385  0
N  N96  1  0.67299222  0.19408464  0.08964192  1  0  -0.374594  0  3.310671  0  0  -0.294049  0  3.611684  0  0  -0.314053  0  3.622978  0  0  -0.352258  -0.280636  0  3.603963  0
N  N97  1  0.32700807  0.80590569  0.91035054  1  0  -0.374558  0  3.310983  0  0  -0.293989  0  3.611964  0  0  -0.313992  0  3.623261  0  0  -0.352234  -0.280575  0  3.604241  0
N  N98  1  0.42914523  0.77111858  0.38578836  1  0  -0.097105  0  3.586202  0  0  -0.008852  0  3.798916  0  0  -0.024946  0  3.824902  0  0  -0.22674  0.001893  0  3.781037  0
N  N99  1  0.57086327  0.22888145  0.61422510  1  0  -0.096811  0  3.58608  0  0  -0.008453  0  3.798659  0  0  -0.024546  0  3.824648  0  0  -0.226561  0.002291  0  3.780779  0
N  N100  1  0.32576290  0.81565712  0.53547687  1  0  -0.354186  0  3.144211  0  0  -0.294984  0  3.408561  0  0  -0.310945  0  3.424674  0  0  -0.32974  -0.284102  0  3.397155  0
N  N101  1  0.67423551  0.18434411  0.46452396  1  0  -0.354189  0  3.144393  0  0  -0.295004  0  3.408781  0  0  -0.310965  0  3.424898  0  0  -0.329752  -0.284122  0  3.397373  0
O  O102  1  0.73465242  0.41363419  0.26207485  1  0  -0.621307  0  1.963088  0  0  -0.570743  0  2.18665  0  0  -0.595081  0  2.178827  0  0  -0.314823  -0.553149  0  2.191256  0
O  O103  1  0.26534328  0.58635217  0.73792528  1  0  -0.621207  0  1.962875  0  0  -0.570564  0  2.186465  0  0  -0.594908  0  2.178647  0  0  -0.314738  -0.55297  0  2.19107  0
O  O104  1  0.96498983  0.39779781  0.20139040  1  0  -0.646648  0  1.986381  0  0  -0.576566  0  2.245626  0  0  -0.605383  0  2.230598  0  0  -0.331351  -0.556209  0  2.255223  0
O  O105  1  0.03497580  0.60220108  0.79860494  1  0  -0.646565  0  1.986477  0  0  -0.576406  0  2.245791  0  0  -0.605223  0  2.230762  0  0  -0.33123  -0.55605  0  2.255389  0
O  O106  1  0.09459806  0.67904772  0.07867295  1  0  -0.660961  0  2.084771  0  0  -0.582585  0  2.365488  0  0  -0.612645  0  2.351222  0  0  -0.339139  -0.561589  0  2.374656  0
O  O107  1  0.90538479  0.32095177  0.92131918  1  0  -0.660869  0  2.084771  0  0  -0.582546  0  2.365498  0  0  -0.612611  0  2.351242  0  0  -0.339133  -0.56155  0  2.374663  0
O  O108  1  0.06664108  0.85939951  0.07542020  1  0  -0.631017  0  1.874511  0  0  -0.591281  0  2.087141  0  0  -0.612854  0  2.07722  0  0  -0.344137  -0.576211  0  2.093524  0
O  O109  1  0.93333538  0.14059489  0.92456521  1  0  -0.630972  0  1.874731  0  0  -0.591254  0  2.087321  0  0  -0.612823  0  2.077407  0  0  -0.34412  -0.576186  0  2.093701  0
O  O110  1  0.83570353  0.04339122  0.37586288  1  0  -0.554603  0  2.107785  0  0  -0.502023  0  2.336609  0  0  -0.524662  0  2.323503  0  0  -0.339555  -0.486274  0  2.344908  0
O  O111  1  0.16430528  0.95662122  0.62412801  1  0  -0.554782  0  2.107983  0  0  -0.502214  0  2.336847  0  0  -0.52487  0  2.323736  0  0  -0.339594  -0.486459  0  2.345156  0
O  O112  1  0.76208134  0.94916853  0.51243166  1  0  -0.558195  0  1.920612  0  0  -0.517888  0  2.132741  0  0  -0.537647  0  2.126358  0  0  -0.300727  -0.504536  0  2.137028  0
O  O113  1  0.23793353  0.05084467  0.48756507  1  0  -0.558026  0  1.920676  0  0  -0.517738  0  2.132848  0  0  -0.537496  0  2.126432  0  0  -0.300521  -0.504382  0  2.13715  0
