# generated using pymatgen
data_Zn4H7C24S4ClO17
_symmetry_space_group_name_H-M   'P 1'
_cell_length_a   19.67103728
_cell_length_b   19.72716117
_cell_length_c   33.37033332
_cell_angle_alpha   79.07424179
_cell_angle_beta   79.24083343
_cell_angle_gamma   63.98717408
_symmetry_Int_Tables_number   1
_chemical_formula_structural   Zn4H7C24S4ClO17
_chemical_formula_sum   'Zn16 H28 C96 S16 Cl4 O68'
_cell_volume   11347.73828554
_cell_formula_units_Z   4
loop_
 _symmetry_equiv_pos_site_id
 _symmetry_equiv_pos_as_xyz
  1  'x, y, z'
loop_
 _atom_site_type_symbol
 _atom_site_label
 _atom_site_symmetry_multiplicity
 _atom_site_fract_x
 _atom_site_fract_y
 _atom_site_fract_z
 _atom_site_occupancy
 _atom_site_pbe_bader_charge
 _atom_site_pbe_bader_spin_density
 _atom_site_pbe_cm5_charge
 _atom_site_pbe_ddec_charge
 _atom_site_pbe_ddec_spin_density
 _atom_site_pbe_ddec_sum_bond_order
 _atom_site_pbe_magmom
Zn  Zn0  1  0.05558728  0.40005825  0.47804113  1  1.316032  0  0.668163  0.971361  0  2.333827  0
Zn  Zn1  1  0.98511416  0.48346943  0.56082961  1  1.305559  0  0.674722  0.961515  0  2.36684  0
Zn  Zn2  1  0.05862629  0.56059071  0.48198348  1  1.321085  0  0.672639  0.964385  0  2.387184  0
Zn  Zn3  1  0.90082109  0.55528898  0.48013115  1  1.31508  0  0.672339  0.963696  0  2.391573  0
Zn  Zn4  1  0.69340770  0.34885593  0.27158511  1  1.314354  0  0.668243  0.966617  0  2.357633  0
Zn  Zn5  1  0.69075128  0.18772819  0.26635048  1  1.312695  0  0.671681  0.967474  0  2.346396  0
Zn  Zn6  1  0.76940490  0.26656457  0.19045027  1  1.319164  0  0.672477  0.964595  0  2.383362  0
Zn  Zn7  1  0.84860967  0.19523924  0.27249545  1  1.318593  0  0.67365  0.956331  0  2.383856  0
Zn  Zn8  1  0.26640479  0.76627855  0.68986682  1  1.321248  0  0.674359  0.955807  0  2.391971  0
Zn  Zn9  1  0.34980774  0.69634697  0.77151190  1  1.320543  0  0.671393  0.966553  0  2.352737  0
Zn  Zn10  1  0.19223914  0.84831164  0.77081452  1  1.316368  0  0.66992  0.96981  0  2.371397  0
Zn  Zn11  1  0.19104918  0.68772713  0.76709488  1  1.31236  0  0.670833  0.962236  0  2.369389  0
Zn  Zn12  1  0.55880182  0.06147106  0.98300096  1  1.319873  0  0.671736  0.962266  0  2.370038  0
Zn  Zn13  1  0.40177147  0.05425156  0.97791602  1  1.320303  0  0.674247  0.956636  0  2.385339  0
Zn  Zn14  1  0.55649623  0.90052474  0.97858901  1  1.317146  0  0.668023  0.967518  0  2.352708  0
Zn  Zn15  1  0.48188298  0.98423873  0.06041493  1  1.31796  0  0.671419  0.963045  0  2.367018  0
H  H16  1  0.95356496  0.24983057  0.35159508  1  0.11577  0  0.111188  0.118742  0  0.989429  0
H  H17  1  0.74656903  0.45443908  0.35010551  1  0.08694  0  0.110059  0.128901  0  0.996258  0
H  H18  1  0.99871144  0.30057670  0.39973097  1  0.125584  0  0.110974  0.11903  0  0.992595  0
H  H19  1  0.09629037  0.59579070  0.69976827  1  0.075566  0  0.110758  0.118227  0  0.990427  0
H  H20  1  0.20181103  0.70122308  0.59909735  1  0.090533  0  0.111449  0.131523  0  0.995175  0
H  H21  1  0.05018789  0.55084678  0.64920506  1  0.096335  0  0.112003  0.120238  0  0.991544  0
H  H22  1  0.54978187  0.05085555  0.15355843  1  0.074949  0  0.110627  0.117815  0  0.990623  0
H  H23  1  0.65079792  0.15192495  0.04843146  1  0.144152  0  0.110543  0.130034  0  0.995153  0
H  H24  1  0.60110475  0.09972981  0.19948876  1  0.077977  0  0.111223  0.119282  0  0.992048  0
H  H25  1  0.50184617  0.79354040  0.89782370  1  0.125053  0  0.110205  0.117296  0  0.991092  0
H  H26  1  0.29859849  0.00177459  0.90023888  1  0.151964  0  0.111302  0.131554  0  0.993336  0
H  H27  1  0.44860178  0.75108889  0.84967474  1  0.132955  0  0.111425  0.119466  0  0.991151  0
H  H28  1  0.32742733  0.54001033  0.39806950  1  0.596822  0  0.342809  0.368651  0  0.864711  0
H  H29  1  0.42276798  0.20916511  0.35242462  1  0.610404  0  0.342444  0.368826  0  0.86545  0
H  H30  1  0.75432259  0.54065491  0.68467750  1  0.613121  0  0.342263  0.367849  0  0.86684  0
H  H31  1  0.49581011  0.70843696  0.56584413  1  0.623217  0  0.343078  0.368527  0  0.864633  0
H  H32  1  0.04139739  0.25406659  0.68379193  1  0.610758  0  0.342385  0.367983  0  0.866546  0
H  H33  1  0.20900135  0.99502118  0.56618364  1  0.589026  0  0.342602  0.368202  0  0.865205  0
H  H34  1  0.74366077  0.81698769  0.38720670  1  0.586048  0  0.342664  0.368757  0  0.864915  0
H  H35  1  0.00569466  0.93196207  0.36289478  1  0.62422  0  0.342789  0.368406  0  0.865392  0
H  H36  1  0.70848503  0.49550677  0.06626556  1  0.617967  0  0.342532  0.367777  0  0.86643  0
H  H37  1  0.54097195  0.75437425  0.18410994  1  0.623294  0  0.342856  0.368761  0  0.865687  0
H  H38  1  0.14965727  0.07561379  0.21945371  1  0.599664  0  0.342  0.367816  0  0.865922  0
H  H39  1  0.10087154  0.17342260  0.03069804  1  0.607428  0  0.342904  0.368192  0  0.866283  0
H  H40  1  0.50671576  0.43248568  0.86268478  1  0.581069  0  0.342373  0.368296  0  0.866134  0
H  H41  1  0.24444732  0.31754937  0.88714984  1  0.626507  0  0.343241  0.369327  0  0.864475  0
H  H42  1  0.92186871  0.70913378  0.85258179  1  0.625815  0  0.342217  0.368576  0  0.866384  0
H  H43  1  0.82787917  0.04020853  0.89775632  1  0.590697  0  0.343539  0.369757  0  0.863891  0
C  C44  1  0.06183520  0.31622546  0.56182716  1  1.599126  0  0.212159  0.620972  0  4.22542  0
C  C45  1  0.06909473  0.57049392  0.56867727  1  1.539786  0  0.227231  0.613963  0  4.164971  0
C  C46  1  0.18365008  0.43993530  0.43833489  1  1.624149  0  0.212089  0.620951  0  4.224558  0
C  C47  1  0.93585671  0.68399204  0.43882545  1  1.60355  0  0.212692  0.620482  0  4.225113  0
C  C48  1  0.93107127  0.43017032  0.43117799  1  1.583038  0  0.226253  0.614658  0  4.163003  0
C  C49  1  0.81718622  0.56097112  0.56282968  1  1.5713  0  0.213246  0.62056  0  4.225288  0
C  C50  1  0.56597463  0.30956431  0.31104408  1  1.581214  0  0.212142  0.621389  0  4.223119  0
C  C51  1  0.68251400  0.17962582  0.18066720  1  1.56583  0  0.22733  0.615522  0  4.160299  0
C  C52  1  0.68971064  0.43335198  0.18823384  1  1.595395  0  0.211997  0.620572  0  4.222219  0
C  C53  1  0.93558550  0.18832876  0.18986144  1  1.565772  0  0.212792  0.619496  0  4.228003  0
C  C54  1  0.81847949  0.32036195  0.31935668  1  1.5787  0  0.229874  0.604361  0  4.162481  0
C  C55  1  0.81326801  0.06555720  0.31150257  1  1.599335  0  0.211808  0.618191  0  4.228696  0
C  C56  1  0.43321983  0.68954236  0.68778935  1  1.570072  0  0.211235  0.619438  0  4.227515  0
C  C57  1  0.31814886  0.82043020  0.81880962  1  1.582186  0  0.227589  0.616473  0  4.159937  0
C  C58  1  0.18802973  0.93312243  0.68799074  1  1.573482  0  0.212006  0.619253  0  4.226693  0
C  C59  1  0.06535798  0.80910689  0.81099162  1  1.584835  0  0.212625  0.621361  0  4.220638  0
C  C60  1  0.18038761  0.67926312  0.68143702  1  1.571991  0  0.229924  0.603964  0  4.165207  0
C  C61  1  0.31426105  0.56598449  0.81122252  1  1.599622  0  0.212533  0.622154  0  4.221949  0
C  C62  1  0.43695653  0.18406017  0.93845502  1  1.585702  0  0.211886  0.617245  0  4.229791  0
C  C63  1  0.43292794  0.92830666  0.93063673  1  1.579465  0  0.23007  0.604727  0  4.161705  0
C  C64  1  0.68378884  0.94063256  0.93878469  1  1.58211  0  0.212386  0.621308  0  4.222129  0
C  C65  1  0.56077365  0.81679797  0.06213617  1  1.570633  0  0.212179  0.621946  0  4.219972  0
C  C66  1  0.56761349  0.07022012  0.06966609  1  1.563727  0  0.230837  0.605409  0  4.163368  0
C  C67  1  0.31498810  0.06200973  0.06037323  1  1.573339  0  0.211881  0.618869  0  4.225602  0
C  C68  1  0.89892876  0.40534847  0.40220549  1  -0.03047  0  -0.014146  -0.0909  0  3.906185  0
C  C69  1  0.84712137  0.34926995  0.34798643  1  -0.050236  0  -0.009959  -0.00614  0  3.969112  0
C  C70  1  0.82701836  0.44893318  0.38776187  1  0.109422  0  0.025358  0.145947  0  3.994499  0
C  C71  1  0.91861563  0.30540506  0.36188765  1  0.015867  0  -0.081696  -0.099903  0  3.974009  0
C  C72  1  0.80200022  0.42057107  0.36096750  1  0.0213  0  -0.087  -0.165752  0  3.952901  0
C  C73  1  0.94340436  0.33364980  0.38851104  1  -0.040268  0  -0.078688  -0.07993  0  3.973474  0
C  C74  1  0.09951030  0.60022091  0.59602033  1  0.05141  0  -0.01458  -0.09194  0  3.910648  0
C  C75  1  0.15183716  0.65134197  0.65232387  1  -0.055459  0  -0.009857  -0.007818  0  3.974735  0
C  C76  1  0.14293513  0.64313311  0.58196803  1  0.041715  0  0.02528  0.145339  0  3.9985  0
C  C77  1  0.10899668  0.60878017  0.66679233  1  -0.011049  0  -0.082906  -0.102842  0  3.983837  0
C  C78  1  0.16846231  0.66820218  0.61010880  1  0.018512  0  -0.086177  -0.1639  0  3.949651  0
C  C79  1  0.08359241  0.58400635  0.63877659  1  0.03846  0  -0.077382  -0.076133  0  3.974232  0
C  C80  1  0.30481194  0.45431640  0.40072166  1  0.590423  0  0.086816  0.280253  0  4.083961  0
C  C81  1  0.44524573  0.29502636  0.34924256  1  0.589928  0  0.086055  0.280913  0  4.085281  0
C  C82  1  0.25835086  0.41549786  0.41384439  1  -0.141094  0  -0.038257  -0.230742  0  3.912044  0
C  C83  1  0.49167715  0.33379230  0.33594178  1  -0.080475  0  -0.039287  -0.232844  0  3.915012  0
C  C84  1  0.37722365  0.33910430  0.37295354  1  -0.1856  0  -0.040037  -0.138596  0  4.15116  0
C  C85  1  0.37308535  0.41010908  0.37716335  1  -0.137719  0  -0.039357  -0.136027  0  4.145654  0
C  C86  1  0.72587682  0.57580241  0.63035455  1  0.615346  0  0.085966  0.279583  0  4.089524  0
C  C87  1  0.52436142  0.67360683  0.62018758  1  0.586131  0  0.086652  0.281937  0  4.084876  0
C  C88  1  0.74303684  0.58509242  0.58773319  1  -0.140922  0  -0.03822  -0.230448  0  3.919676  0
C  C89  1  0.50731939  0.66461220  0.66285987  1  -0.141638  0  -0.038593  -0.231658  0  3.917516  0
C  C90  1  0.60427450  0.64105704  0.60840700  1  -0.117134  0  -0.039836  -0.140527  0  4.152244  0
C  C91  1  0.64597769  0.60816366  0.64209156  1  -0.130226  0  -0.040246  -0.137713  0  4.153686  0
C  C92  1  0.07658297  0.22529860  0.62961693  1  0.574954  0  0.086292  0.280699  0  4.0851  0
C  C93  1  0.17393496  0.02399063  0.62032774  1  0.656074  0  0.086588  0.280917  0  4.089114  0
C  C94  1  0.08611728  0.24215911  0.58693314  1  -0.133303  0  -0.038503  -0.231293  0  3.915716  0
C  C95  1  0.16415471  0.00718126  0.66299388  1  -0.139178  0  -0.038906  -0.231674  0  3.919377  0
C  C96  1  0.14186709  0.10370407  0.60825190  1  -0.19343  0  -0.039624  -0.137939  0  4.150975  0
C  C97  1  0.10872085  0.14558014  0.64169954  1  -0.092197  0  -0.039427  -0.138295  0  4.150388  0
C  C98  1  0.84228479  0.80122124  0.39723466  1  0.551653  0  0.086336  0.280305  0  4.088549  0
C  C99  1  0.90681019  0.94821298  0.35307010  1  0.567608  0  0.086676  0.280596  0  4.087288  0
C  C100  1  0.91079906  0.75816451  0.41397330  1  -0.116645  0  -0.038216  -0.230691  0  3.917165  0
C  C101  1  0.83826635  0.99129773  0.33630762  1  -0.119955  0  -0.038417  -0.230415  0  3.918329  0
C  C102  1  0.90820409  0.87868421  0.37516321  1  -0.135927  0  -0.04029  -0.140522  0  4.153725  0
C  C103  1  0.84114743  0.87048283  0.37488495  1  -0.131678  0  -0.039736  -0.136901  0  4.150684  0
C  C104  1  0.65460863  0.15309539  0.15038840  1  0.008548  0  -0.014735  -0.09253  0  3.905218  0
C  C105  1  0.59728972  0.09852624  0.09809777  1  0.012383  0  -0.00996  -0.008461  0  3.971093  0
C  C106  1  0.66833976  0.16778802  0.10716568  1  0.003549  0  0.025423  0.145407  0  3.994628  0
C  C107  1  0.58301415  0.08355624  0.14085579  1  -0.037341  0  -0.083412  -0.102416  0  3.979289  0
C  C108  1  0.63980540  0.14044278  0.08162929  1  0.015311  0  -0.085819  -0.162662  0  3.947589  0
C  C109  1  0.61151683  0.11066064  0.16619113  1  0.058097  0  -0.076744  -0.075685  0  3.971448  0
C  C110  1  0.67411503  0.52440269  0.12046973  1  0.622459  0  0.086573  0.28088  0  4.083949  0
C  C111  1  0.57569075  0.72567540  0.12989872  1  0.616545  0  0.0861  0.280788  0  4.085116  0
C  C112  1  0.66476356  0.50744997  0.16314862  1  -0.147099  0  -0.038219  -0.23093  0  3.913339  0
C  C113  1  0.58515312  0.74272207  0.08722967  1  -0.142035  0  -0.039255  -0.23338  0  3.914706  0
C  C114  1  0.60812713  0.64592793  0.14191598  1  -0.129632  0  -0.038912  -0.137136  0  4.149828  0
C  C115  1  0.64144757  0.60415748  0.10843080  1  -0.150778  0  -0.039745  -0.13835  0  4.148706  0
C  C116  1  0.08246967  0.12369207  0.17801735  1  0.536912  0  0.085981  0.279862  0  4.086932  0
C  C117  1  0.16806089  0.12579820  0.07216922  1  0.556227  0  0.086762  0.280993  0  4.084845  0
C  C118  1  0.00998570  0.16294295  0.16523094  1  -0.049031  0  -0.03838  -0.230973  0  3.918851  0
C  C119  1  0.24057350  0.08689518  0.08497753  1  -0.102952  0  -0.038846  -0.231721  0  3.91734  0
C  C120  1  0.11043151  0.13911003  0.10623365  1  -0.176373  0  -0.039715  -0.139016  0  4.151035  0
C  C121  1  0.14005713  0.11018635  0.14394234  1  -0.185822  0  -0.039778  -0.13756  0  4.151798  0
C  C122  1  0.34434468  0.85152804  0.84767614  1  -0.021139  0  -0.013971  -0.092991  0  3.906584  0
C  C123  1  0.40324339  0.90051800  0.90193944  1  -0.055744  0  -0.009652  -0.006603  0  3.96676  0
C  C124  1  0.30193600  0.92300327  0.86235800  1  0.078443  0  0.025692  0.146845  0  3.995337  0
C  C125  1  0.44601354  0.82945336  0.88776200  1  -0.059872  0  -0.083707  -0.104662  0  3.979246  0
C  C126  1  0.33159312  0.94665897  0.88915357  1  0.049625  0  -0.08562  -0.162879  0  3.945623  0
C  C127  1  0.41643719  0.80605927  0.86110926  1  -0.046184  0  -0.077757  -0.075496  0  3.968988  0
C  C128  1  0.40785681  0.44863747  0.85287932  1  0.54998  0  0.085586  0.27926  0  4.088783  0
C  C129  1  0.34331751  0.30154606  0.89695556  1  0.579339  0  0.086591  0.280496  0  4.086262  0
C  C130  1  0.33944697  0.49168602  0.83604907  1  -0.116373  0  -0.038409  -0.230835  0  3.917467  0
C  C131  1  0.41182373  0.25842981  0.91374742  1  -0.106182  0  -0.038409  -0.230529  0  3.916517  0
C  C132  1  0.34203778  0.37100536  0.87476839  1  -0.130378  0  -0.040147  -0.139391  0  4.151724  0
C  C133  1  0.40905092  0.37925151  0.87512769  1  -0.136751  0  -0.039503  -0.137266  0  4.148893  0
C  C134  1  0.94459823  0.79488453  0.84937978  1  0.529139  0  0.085883  0.279896  0  4.086652  0
C  C135  1  0.80492082  0.95463773  0.90076499  1  0.580413  0  0.086896  0.281416  0  4.083546  0
C  C136  1  0.99114403  0.83347448  0.83594708  1  -0.074919  0  -0.037645  -0.229609  0  3.914366  0
C  C137  1  0.75821757  0.91613927  0.91407766  1  -0.083465  0  -0.039019  -0.232331  0  3.915118  0
C  C138  1  0.87291628  0.91019783  0.87713052  1  -0.155623  0  -0.039303  -0.136966  0  4.14658  0
C  C139  1  0.87667557  0.83926892  0.87305858  1  -0.117194  0  -0.040116  -0.138437  0  4.149365  0
S  S140  1  0.29825217  0.32539698  0.39758017  1  0.243066  0  0.054998  0.105146  0  2.795997  0
S  S141  1  0.45198729  0.42381038  0.35235579  1  0.233831  0  0.056318  0.107215  0  2.794128  0
S  S142  1  0.66180784  0.63300786  0.56217002  1  0.247965  0  0.059088  0.111186  0  2.795568  0
S  S143  1  0.58859030  0.61651431  0.68835600  1  0.236356  0  0.055674  0.106071  0  2.798336  0
S  S144  1  0.13423831  0.16083989  0.56182921  1  0.236232  0  0.055412  0.105755  0  2.796295  0
S  S145  1  0.11609797  0.08847552  0.68812265  1  0.234118  0  0.056998  0.107977  0  2.795164  0
S  S146  1  0.97341634  0.80215239  0.40240970  1  0.234327  0  0.058953  0.111117  0  2.7966  0
S  S147  1  0.77594379  0.94699318  0.34761919  1  0.243384  0  0.056116  0.106708  0  2.797145  0
S  S148  1  0.61606979  0.58866873  0.18830562  1  0.239314  0  0.056921  0.10783  0  2.794416  0
S  S149  1  0.63361471  0.66147915  0.06204855  1  0.239735  0  0.055984  0.107321  0  2.794071  0
S  S150  1  0.01234529  0.18302247  0.11183439  1  0.276707  0  0.059342  0.111146  0  2.796026  0
S  S151  1  0.23814745  0.06667268  0.13837258  1  0.291524  0  0.056213  0.106928  0  2.796941  0
S  S152  1  0.27695159  0.44753648  0.84743014  1  0.234575  0  0.057308  0.10852  0  2.797185  0
S  S153  1  0.47417243  0.30274449  0.90244870  1  0.237196  0  0.056975  0.108147  0  2.795188  0
S  S154  1  0.95188837  0.92357095  0.85218096  1  0.237478  0  0.058238  0.109196  0  2.795286  0
S  S155  1  0.79758247  0.82599482  0.89788366  1  0.228209  0  0.054938  0.105475  0  2.797955  0
Cl  Cl156  1  0.76471260  0.53818725  0.40086252  1  -0.185645  0  -0.017621  -0.079151  0  1.484258  0
Cl  Cl157  1  0.16862037  0.66787498  0.53076387  1  -0.179619  0  -0.018111  -0.079924  0  1.482447  0
Cl  Cl158  1  0.71946335  0.21906643  0.08210017  1  -0.187456  0  -0.017921  -0.079648  0  1.482691  0
Cl  Cl159  1  0.21264543  0.98658481  0.84933504  1  -0.187564  0  -0.019629  -0.082772  0  1.479798  0
O  O160  1  0.00090593  0.49816300  0.50034127  1  -1.219411  0  -0.570322  -1.030166  0  2.523801  0
O  O161  1  0.07816970  0.31496452  0.52277745  1  -1.1806  0  -0.326489  -0.557066  0  2.322895  0
O  O162  1  0.03299296  0.53057567  0.58662670  1  -1.147478  0  -0.31312  -0.541775  0  2.329349  0
O  O163  1  0.15477589  0.50660080  0.44902928  1  -1.163473  0  -0.31208  -0.52252  0  2.333159  0
O  O164  1  0.02698624  0.37473910  0.58081984  1  -1.168612  0  -0.312196  -0.523386  0  2.33296  0
O  O165  1  0.15409343  0.39160269  0.44666460  1  -1.184  0  -0.325874  -0.55725  0  2.323795  0
O  O166  1  0.08107982  0.58705539  0.53014005  1  -1.148873  0  -0.313249  -0.544432  0  2.43273  0
O  O167  1  0.00348161  0.65688437  0.44903711  1  -1.1717  0  -0.323565  -0.550153  0  2.336787  0
O  O168  1  0.88973147  0.49390945  0.44422125  1  -1.177446  0  -0.313107  -0.544408  0  2.440638  0
O  O169  1  0.88912161  0.65307240  0.44814627  1  -1.156558  0  -0.312721  -0.525103  0  2.329493  0
O  O170  1  0.99779355  0.38487721  0.44057351  1  -1.168135  0  -0.31463  -0.546266  0  2.314792  0
O  O171  1  0.87631956  0.52631075  0.58160551  1  -1.165371  0  -0.313185  -0.526607  0  2.328903  0
O  O172  1  0.81530269  0.57750230  0.52380731  1  -1.141073  0  -0.323888  -0.549547  0  2.335264  0
O  O173  1  0.74966435  0.24972184  0.25068311  1  -1.222977  0  -0.569967  -1.029794  0  2.522252  0
O  O174  1  0.59541070  0.35803967  0.30304837  1  -1.177288  0  -0.325806  -0.554182  0  2.328748  0
O  O175  1  0.66486501  0.16143829  0.21876336  1  -1.162823  0  -0.314247  -0.544673  0  2.321047  0
O  O176  1  0.72689840  0.37479770  0.16939771  1  -1.168584  0  -0.311822  -0.5234  0  2.331742  0
O  O177  1  0.59463903  0.24346155  0.29962474  1  -1.163342  0  -0.313469  -0.527846  0  2.32485  0
O  O178  1  0.67166579  0.43445412  0.22721778  1  -1.178029  0  -0.325313  -0.554927  0  2.324309  0
O  O179  1  0.72125988  0.21791353  0.16635427  1  -1.157228  0  -0.31274  -0.544817  0  2.433893  0
O  O180  1  0.87785030  0.22376233  0.16953344  1  -1.174023  0  -0.32397  -0.550406  0  2.335082  0
O  O181  1  0.86244748  0.25476976  0.30874336  1  -1.171981  0  -0.310004  -0.538626  0  2.339831  0
O  O182  1  0.93438281  0.17339903  0.22879602  1  -1.149582  0  -0.312367  -0.523914  0  2.331868  0
O  O183  1  0.75287773  0.36353940  0.30809208  1  -1.172489  0  -0.312673  -0.54158  0  2.328984  0
O  O184  1  0.74694521  0.09158854  0.29964494  1  -1.170276  0  -0.325179  -0.554839  0  2.329236  0
O  O185  1  0.85902738  0.09758895  0.30391448  1  -1.160583  0  -0.312263  -0.521834  0  2.334117  0
O  O186  1  0.25020410  0.74904274  0.75020711  1  -1.229587  0  -0.569995  -1.029384  0  2.5251  0
O  O187  1  0.37440162  0.72404797  0.66873773  1  -1.156456  0  -0.311723  -0.521792  0  2.334937  0
O  O188  1  0.36473298  0.75548240  0.80786220  1  -1.169309  0  -0.314239  -0.54507  0  2.324678  0
O  O189  1  0.17049487  0.93422980  0.72700261  1  -1.171752  0  -0.325396  -0.553716  0  2.331255  0
O  O190  1  0.43459262  0.67411637  0.72688123  1  -1.168608  0  -0.324911  -0.555234  0  2.330317  0
O  O191  1  0.22373927  0.87452344  0.66909327  1  -1.153739  0  -0.312053  -0.522845  0  2.334084  0
O  O192  1  0.25236638  0.86032599  0.80753258  1  -1.175083  0  -0.314009  -0.546099  0  2.427115  0
O  O193  1  0.09433931  0.85791065  0.80241138  1  -1.167711  0  -0.324715  -0.55289  0  2.329729  0
O  O194  1  0.16501722  0.66136607  0.71972905  1  -1.163571  0  -0.311416  -0.541316  0  2.331225  0
O  O195  1  0.09444888  0.74256463  0.80011142  1  -1.16404  0  -0.313294  -0.526656  0  2.32451  0
O  O196  1  0.21766453  0.71865391  0.66532044  1  -1.172584  0  -0.310599  -0.536654  0  2.34695  0
O  O197  1  0.35994173  0.59812740  0.80299940  1  -1.153877  0  -0.313714  -0.528338  0  2.323347  0
O  O198  1  0.24744306  0.59180989  0.80004680  1  -1.17097  0  -0.324841  -0.552803  0  2.334886  0
O  O199  1  0.50043982  0.99928949  0.00003615  1  -1.23169  0  -0.569801  -1.029601  0  2.52243  0
O  O200  1  0.50337749  0.15812620  0.95018653  1  -1.174234  0  -0.324765  -0.552107  0  2.332823  0
O  O201  1  0.38963542  0.99377699  0.94160479  1  -1.171745  0  -0.310804  -0.537259  0  2.344963  0
O  O202  1  0.65424065  0.89226545  0.94694314  1  -1.180028  0  -0.326028  -0.555877  0  2.32889  0
O  O203  1  0.39144491  0.15174456  0.94610244  1  -1.162424  0  -0.312039  -0.52255  0  2.332888  0
O  O204  1  0.65506502  0.00699629  0.94988419  1  -1.161829  0  -0.313337  -0.525352  0  2.327926  0
O  O205  1  0.49861706  0.88447590  0.94161073  1  -1.17368  0  -0.311752  -0.543116  0  2.323518  0
O  O206  1  0.57836281  0.81542026  0.02313922  1  -1.169007  0  -0.325953  -0.555552  0  2.326404  0
O  O207  1  0.52898458  0.03233251  0.08629225  1  -1.165537  0  -0.311298  -0.541284  0  2.331005  0
O  O208  1  0.52459291  0.87552740  0.08092349  1  -1.157891  0  -0.313527  -0.526332  0  2.326868  0
O  O209  1  0.58355391  0.08646112  0.03125304  1  -1.173951  0  -0.312319  -0.539673  0  2.338557  0
O  O210  1  0.31599086  0.07651395  0.02141825  1  -1.140241  0  -0.312108  -0.52257  0  2.332113  0
O  O211  1  0.37286376  0.02746598  0.08065343  1  -1.176277  0  -0.325359  -0.55392  0  2.332195  0
O  O212  1  0.28605068  0.52503163  0.40966880  1  -1.085523  0  -0.329555  -0.395852  0  2.272184  0
O  O213  1  0.46380550  0.22433814  0.34026929  1  -1.100481  0  -0.33171  -0.398528  0  2.267485  0
O  O214  1  0.77955496  0.54026142  0.65661187  1  -1.122341  0  -0.330813  -0.396352  0  2.268673  0
O  O215  1  0.47069805  0.70912758  0.59394705  1  -1.114866  0  -0.329584  -0.395061  0  2.268931  0
O  O216  1  0.04097180  0.27900932  0.65563026  1  -1.097609  0  -0.330138  -0.395653  0  2.270033  0
O  O217  1  0.20953490  0.97020748  0.59437561  1  -1.083147  0  -0.329622  -0.394883  0  2.270528  0
O  O218  1  0.78504597  0.77863548  0.40206510  1  -1.071504  0  -0.330192  -0.396911  0  2.271418  0
O  O219  1  0.96396637  0.97086373  0.34846206  1  -1.114488  0  -0.330805  -0.396134  0  2.26937  0
O  O220  1  0.70993336  0.47070961  0.09447315  1  -1.105889  0  -0.329518  -0.395086  0  2.27329  0
O  O221  1  0.54002774  0.77933681  0.15594281  1  -1.117496  0  -0.331169  -0.397378  0  2.269635  0
O  O222  1  0.09496817  0.10192154  0.21798699  1  -1.092382  0  -0.329616  -0.395522  0  2.268866  0
O  O223  1  0.15557142  0.14762368  0.03220910  1  -1.09937  0  -0.329213  -0.394227  0  2.270502  0
O  O224  1  0.46505141  0.47127821  0.84817533  1  -1.067338  0  -0.330723  -0.396953  0  2.269005  0
O  O225  1  0.28621760  0.27883217  0.90161835  1  -1.117051  0  -0.329858  -0.395675  0  2.268801  0
O  O226  1  0.96299047  0.72419858  0.84046812  1  -1.119415  0  -0.331068  -0.398048  0  2.269359  0
O  O227  1  0.78656143  0.02530629  0.90965318  1  -1.07992  0  -0.330814  -0.397363  0  2.268028  0
