# generated using pymatgen
data_Zn4H32C40O21
_symmetry_space_group_name_H-M   'P 1'
_cell_length_a   17.81835302
_cell_length_b   18.65282295
_cell_length_c   23.28842904
_cell_angle_alpha   66.56155891
_cell_angle_beta   69.67696395
_cell_angle_gamma   89.95400086
_symmetry_Int_Tables_number   1
_chemical_formula_structural   Zn4H32C40O21
_chemical_formula_sum   'Zn8 H64 C80 O42'
_cell_volume   6574.06714497
_cell_formula_units_Z   2
loop_
 _symmetry_equiv_pos_site_id
 _symmetry_equiv_pos_as_xyz
  1  'x, y, z'
loop_
 _atom_site_type_symbol
 _atom_site_label
 _atom_site_symmetry_multiplicity
 _atom_site_fract_x
 _atom_site_fract_y
 _atom_site_fract_z
 _atom_site_occupancy
 _atom_site_pbe_bader_charge
 _atom_site_pbe_bader_spin_density
 _atom_site_pbe_cm5_charge
 _atom_site_pbe_ddec_charge
 _atom_site_pbe_ddec_spin_density
 _atom_site_pbe_ddec_sum_bond_order
 _atom_site_pbe_magmom
Zn  Zn0  1  0.11928925  0.53209662  0.94341908  1  1.313602  0  0.674532  0.963428  0  2.366258  0
Zn  Zn1  1  0.97508080  0.56189920  0.05003304  1  1.309652  0  0.672627  0.956423  0  2.394743  0
Zn  Zn2  1  0.97606942  0.38859183  0.04930261  1  1.311873  0  0.673586  0.957578  0  2.392812  0
Zn  Zn3  1  0.93644494  0.52805843  0.93713968  1  1.315208  0  0.675246  0.969751  0  2.332495  0
Zn  Zn4  1  0.38498348  0.97981337  0.04907575  1  1.314068  0  0.673315  0.960186  0  2.37316  0
Zn  Zn5  1  0.52785650  0.11661344  0.93837096  1  1.312853  0  0.673897  0.958287  0  2.395084  0
Zn  Zn6  1  0.52422963  0.94420867  0.93887490  1  1.307052  0  0.674486  0.9601  0  2.39103  0
Zn  Zn7  1  0.56946436  0.97192969  0.04988019  1  1.315999  0  0.675325  0.970363  0  2.328141  0
H  H8  1  0.43096862  0.82279087  0.39003697  1  0.078524  0  0.116397  0.126258  0  0.976759  0
H  H9  1  0.19772088  0.79067672  0.37829959  1  0.104427  0  0.116884  0.126628  0  0.975161  0
H  H10  1  0.31428971  0.67389174  0.61242436  1  0.102298  0  0.116225  0.126257  0  0.97474  0
H  H11  1  0.08162772  0.71843301  0.59950019  1  0.082132  0  0.115705  0.125368  0  0.975467  0
H  H12  1  0.68037516  0.08393787  0.60320141  1  0.10238  0  0.116779  0.127029  0  0.972895  0
H  H13  1  0.71493896  0.31090371  0.60672619  1  0.117102  0  0.116371  0.12616  0  0.97517  0
H  H14  1  0.82747481  0.19338675  0.38441153  1  0.060674  0  0.116793  0.126726  0  0.974616  0
H  H15  1  0.78839379  0.42220325  0.38329730  1  0.101907  0  0.116357  0.126331  0  0.974314  0
H  H16  1  0.19604572  0.30326732  0.91127808  1  0.020003  0  0.094073  0.092236  0  0.975841  0
H  H17  1  0.12557881  0.23083604  0.98859744  1  0.034844  0  0.094334  0.093131  0  0.980147  0
H  H18  1  0.21561042  0.14039181  0.98352273  1  0.045842  0  0.094026  0.092964  0  0.981516  0
H  H19  1  0.28659136  0.21402019  0.90740922  1  0.017856  0  0.090777  0.084673  0  0.980444  0
H  H20  1  0.21462717  0.12605620  0.09540807  1  0.045454  0  0.092093  0.093115  0  0.987151  0
H  H21  1  0.28716062  0.18599895  0.09991066  1  0.006351  0  0.087254  0.079267  0  0.983886  0
H  H22  1  0.12738488  0.21950547  0.09996659  1  0.048253  0  0.095752  0.102527  0  0.983917  0
H  H23  1  0.20186520  0.28037175  0.10103223  1  0.0191  0  0.090688  0.087062  0  0.977161  0
H  H24  1  0.30165600  0.39264020  0.91263850  1  0.045047  0  0.094741  0.100223  0  0.981798  0
H  H25  1  0.30340777  0.38546353  0.98970482  1  0.028191  0  0.089566  0.085649  0  0.979973  0
H  H26  1  0.39098482  0.29215690  0.99014539  1  0.019234  0  0.089511  0.085735  0  0.97967  0
H  H27  1  0.39171448  0.30180400  0.91184807  1  0.041424  0  0.091673  0.092146  0  0.984452  0
H  H28  1  0.89013968  0.79637524  0.90966894  1  0.018189  0  0.092574  0.088465  0  0.977821  0
H  H29  1  0.88293506  0.78287216  0.99119874  1  0.032192  0  0.093581  0.092852  0  0.982102  0
H  H30  1  0.79549213  0.87674816  0.98846894  1  0.050915  0  0.093909  0.093689  0  0.982393  0
H  H31  1  0.80022392  0.88667930  0.90842705  1  -0.005288  0  0.089532  0.082555  0  0.981459  0
H  H32  1  0.69331845  0.77214951  0.09439627  1  0.044983  0  0.092577  0.093507  0  0.984338  0
H  H33  1  0.62017631  0.71153759  0.09108015  1  0.00375  0  0.088579  0.081417  0  0.982705  0
H  H34  1  0.77711036  0.67513495  0.09579933  1  0.050495  0  0.09554  0.102623  0  0.987251  0
H  H35  1  0.70623095  0.61833085  0.08718414  1  0.020739  0  0.090797  0.086728  0  0.977036  0
H  H36  1  0.79036593  0.71203890  0.89780202  1  0.057675  0  0.093913  0.097655  0  0.978515  0
H  H37  1  0.71723257  0.63701376  0.96975679  1  0.002529  0  0.090753  0.088138  0  0.980965  0
H  H38  1  0.62570093  0.72606552  0.97524966  1  0.035529  0  0.09047  0.088324  0  0.980003  0
H  H39  1  0.69698679  0.79974454  0.90113207  1  0.029404  0  0.089497  0.088339  0  0.987858  0
H  H40  1  0.16303835  0.79527274  0.93698304  1  0.02073  0  0.091502  0.085699  0  0.978949  0
H  H41  1  0.24715971  0.75943124  0.89536329  1  0.020105  0  0.0915  0.088204  0  0.985174  0
H  H42  1  0.33522886  0.85456151  0.89258653  1  0.062321  0  0.096889  0.101678  0  0.978614  0
H  H43  1  0.25072970  0.89049594  0.93345441  1  0.00813  0  0.091778  0.086419  0  0.978046  0
H  H44  1  0.39572861  0.74738988  0.96111676  1  0.050664  0  0.095  0.097961  0  0.983917  0
H  H45  1  0.35286530  0.70607708  0.05037208  1  0.027419  0  0.089962  0.084297  0  0.977876  0
H  H46  1  0.30859257  0.65263401  0.96211345  1  0.031893  0  0.093905  0.095763  0  0.983235  0
H  H47  1  0.26765781  0.61089321  0.05128752  1  0.005062  0  0.089162  0.081883  0  0.981593  0
H  H48  1  0.10273671  0.73519361  0.06630117  1  0.047514  0  0.091264  0.092012  0  0.986384  0
H  H49  1  0.14700978  0.66131017  0.11242761  1  0.010709  0  0.087369  0.081834  0  0.982099  0
H  H50  1  0.23181337  0.75915657  0.10976315  1  0.046582  0  0.092558  0.097923  0  0.98395  0
H  H51  1  0.18964038  0.83281984  0.06154922  1  0.017378  0  0.092047  0.092325  0  0.97928  0
H  H52  1  0.89733536  0.26483771  0.93096530  1  0.026443  0  0.091136  0.085794  0  0.980821  0
H  H53  1  0.85377576  0.34138226  0.88515683  1  0.032871  0  0.091886  0.088265  0  0.982948  0
H  H54  1  0.76628725  0.24696239  0.88664751  1  0.041427  0  0.097078  0.104323  0  0.980017  0
H  H55  1  0.80996686  0.17088221  0.93266763  1  0.010299  0  0.091183  0.086247  0  0.978695  0
H  H56  1  0.64649394  0.29581444  0.94808390  1  0.035706  0  0.095569  0.099293  0  0.983689  0
H  H57  1  0.60532307  0.25489425  0.03727130  1  0.017579  0  0.088939  0.082134  0  0.98198  0
H  H58  1  0.73487994  0.39048180  0.94586472  1  0.054875  0  0.093943  0.096143  0  0.983538  0
H  H59  1  0.69282814  0.34952056  0.03493230  1  0.028069  0  0.088805  0.082799  0  0.982  0
H  H60  1  0.83743278  0.20430288  0.06015067  1  0.038115  0  0.092144  0.093579  0  0.98657  0
H  H61  1  0.75352457  0.23840898  0.10247239  1  0.015739  0  0.086595  0.079743  0  0.984179  0
H  H62  1  0.66672291  0.14316110  0.10414014  1  0.032002  0  0.092164  0.093952  0  0.978498  0
H  H63  1  0.75058734  0.11009563  0.06089900  1  0.042304  0  0.092163  0.092327  0  0.981801  0
H  H64  1  0.54345293  0.79800662  0.26152259  1  0.629661  0  0.344096  0.378035  0  0.860239  0
H  H65  1  0.21741916  0.94618847  0.24604135  1  0.613404  0  0.344185  0.378484  0  0.858649  0
H  H66  1  0.29351839  0.69867300  0.74345621  1  0.60765  0  0.34386  0.377357  0  0.860783  0
H  H67  1  0.96822598  0.56484920  0.72846576  1  0.605597  0  0.343313  0.377095  0  0.8616  0
H  H68  1  0.70489124  0.97319455  0.73878462  1  0.609871  0  0.343247  0.37539  0  0.863749  0
H  H69  1  0.55645674  0.29326385  0.73079140  1  0.595069  0  0.343774  0.377269  0  0.860396  0
H  H70  1  0.79904258  0.21437734  0.25141542  1  0.617885  0  0.343861  0.377127  0  0.861057  0
H  H71  1  0.94384905  0.53017119  0.25693647  1  0.604315  0  0.344517  0.378728  0  0.858708  0
C  C72  1  0.14383500  0.63754401  0.00286096  1  1.530356  0  0.234041  0.60038  0  4.102801  0
C  C73  1  0.91054649  0.41186688  0.17463539  1  1.547106  0  0.226334  0.599558  0  4.188384  0
C  C74  1  0.14470859  0.36575485  0.00105347  1  1.546019  0  0.238131  0.603966  0  4.09647  0
C  C75  1  0.86006134  0.36411717  0.99081868  1  1.520461  0  0.235571  0.603429  0  4.097734  0
C  C76  1  0.08960258  0.59305182  0.81524589  1  1.576007  0  0.2279  0.603318  0  4.181766  0
C  C77  1  0.85911986  0.64005502  0.99195830  1  1.510169  0  0.238786  0.607086  0  4.089822  0
C  C78  1  0.36009788  0.14428623  0.99592805  1  1.546371  0  0.235462  0.601548  0  4.097225  0
C  C79  1  0.58719498  0.09240609  0.81379609  1  1.540199  0  0.227047  0.601441  0  4.185902  0
C  C80  1  0.35617561  0.86654154  0.99732359  1  1.558687  0  0.23786  0.604105  0  4.094975  0
C  C81  1  0.64196688  0.86079162  0.99447508  1  1.528797  0  0.235916  0.603249  0  4.094838  0
C  C82  1  0.42051242  0.91405114  0.17475024  1  1.611342  0  0.227756  0.603919  0  4.176554  0
C  C83  1  0.64574820  0.13831810  0.99383008  1  1.551421  0  0.238423  0.606443  0  4.090604  0
C  C84  1  0.38296496  0.87472381  0.25028223  1  0.077196  0  -0.007157  -0.07834  0  3.928055  0
C  C85  1  0.43028397  0.86529077  0.28951149  1  -0.033604  0  -0.005195  -0.055203  0  3.99467  0
C  C86  1  0.39417453  0.82914189  0.35994793  1  -0.037958  0  -0.073498  -0.151787  0  3.904873  0
C  C87  1  0.30988035  0.80256019  0.39282778  1  0.181475  0  0.010426  0.162139  0  4.112405  0
C  C88  1  0.26273395  0.81220758  0.35333892  1  -0.056945  0  -0.073919  -0.150709  0  3.907453  0
C  C89  1  0.29881920  0.84731193  0.28296616  1  -0.04594  0  -0.004173  -0.053781  0  3.996372  0
C  C90  1  0.27281611  0.76671574  0.46428362  1  -0.25697  0  -0.033823  -0.093242  0  4.087674  0
C  C91  1  0.23996534  0.73592667  0.52584566  1  -0.172553  0  -0.034695  -0.09428  0  4.088219  0
C  C92  1  0.20251351  0.70043760  0.59726991  1  0.081436  0  0.010053  0.161761  0  4.112074  0
C  C93  1  0.24918491  0.67051945  0.63712760  1  -0.068107  0  -0.073697  -0.151901  0  3.906936  0
C  C94  1  0.21259964  0.63527689  0.70747335  1  0.004869  0  -0.003226  -0.051269  0  3.994606  0
C  C95  1  0.12832483  0.62995816  0.73979237  1  0.064027  0  -0.008014  -0.080636  0  3.933525  0
C  C96  1  0.08147833  0.66012719  0.70020730  1  -0.019068  0  -0.004427  -0.05324  0  3.994922  0
C  C97  1  0.11813205  0.69448229  0.62980619  1  0.02628  0  -0.072886  -0.150069  0  3.902057  0
C  C98  1  0.62732784  0.13012083  0.73865670  1  0.084937  0  -0.008295  -0.079004  0  3.937303  0
C  C99  1  0.63670696  0.08408447  0.70188952  1  0.014092  0  -0.003184  -0.052719  0  3.9964  0
C  C100  1  0.67398200  0.11951018  0.63162008  1  -0.043577  0  -0.072545  -0.150551  0  3.903543  0
C  C101  1  0.70170050  0.20171242  0.59652369  1  0.050062  0  0.010086  0.163129  0  4.113961  0
C  C102  1  0.69224939  0.24754543  0.63352902  1  -0.036338  0  -0.073963  -0.152486  0  3.905402  0
C  C103  1  0.65599488  0.21210835  0.70387669  1  -0.047512  0  -0.003664  -0.053974  0  3.997091  0
C  C104  1  0.73811168  0.23758182  0.52519111  1  -0.424312  0  -0.03384  -0.092759  0  4.094354  0
C  C105  1  0.76858839  0.26817160  0.46355812  1  0.082884  0  -0.034122  -0.095169  0  4.096622  0
C  C106  1  0.80372818  0.30365384  0.39217884  1  0.134751  0  0.010474  0.163684  0  4.115539  0
C  C107  1  0.83187299  0.25700050  0.35646473  1  0.103428  0  -0.072956  -0.150508  0  3.903573  0
C  C108  1  0.86686658  0.29192415  0.28606719  1  -0.07204  0  -0.003559  -0.053402  0  3.995972  0
C  C109  1  0.87328107  0.37422488  0.24995806  1  0.036093  0  -0.007865  -0.0779  0  3.937991  0
C  C110  1  0.84482692  0.42103258  0.28543461  1  -0.103736  0  -0.003478  -0.05359  0  3.998328  0
C  C111  1  0.81097771  0.38608713  0.35585194  1  0.057878  0  -0.073958  -0.152099  0  3.906334  0
C  C112  1  0.18872601  0.26113629  0.96263009  1  -0.015323  0  -0.153843  -0.17163  0  3.843265  0
C  C113  1  0.24846915  0.20101643  0.96008258  1  -0.03126  0  -0.154038  -0.166699  0  3.852121  0
C  C114  1  0.30355953  0.20512773  0.99787824  1  0.063893  0  -0.016851  0.019229  0  3.814743  0
C  C115  1  0.24875167  0.18612112  0.07171504  1  -0.02939  0  -0.159094  -0.170804  0  3.865969  0
C  C116  1  0.19102562  0.24799248  0.07346529  1  -0.018456  0  -0.159141  -0.176054  0  3.858003  0
C  C117  1  0.20446982  0.30762398  0.00077956  1  0.039751  0  -0.015753  0.022318  0  3.814931  0
C  C118  1  0.29261210  0.35030619  0.96422305  1  -0.020074  0  -0.163791  -0.179575  0  3.881412  0
C  C119  1  0.35134096  0.28933685  0.96371677  1  -0.038065  0  -0.163593  -0.174193  0  3.883747  0
C  C120  1  0.84715552  0.78229204  0.96127632  1  -0.020276  0  -0.154936  -0.170361  0  3.846668  0
C  C121  1  0.78807000  0.84343310  0.96056862  1  -0.010172  0  -0.156416  -0.169499  0  3.853387  0
C  C122  1  0.69951948  0.80055990  0.99308407  1  0.054409  0  -0.015426  0.022128  0  3.810527  0
C  C123  1  0.68396891  0.74016130  0.06612586  1  -0.017537  0  -0.158077  -0.171402  0  3.862051  0
C  C124  1  0.74122050  0.67780639  0.06529423  1  -0.022575  0  -0.158134  -0.174661  0  3.850794  0
C  C125  1  0.79901902  0.69802666  0.99189784  1  0.075945  0  -0.015031  0.023862  0  3.810884  0
C  C126  1  0.74917987  0.69729878  0.94996945  1  -0.025451  0  -0.165083  -0.182028  0  3.885312  0
C  C127  1  0.68859874  0.75649557  0.95231116  1  -0.031321  0  -0.16438  -0.174643  0  3.884735  0
C  C128  1  0.21996930  0.77366646  0.93893818  1  -0.006059  0  -0.154403  -0.165603  0  3.85271  0
C  C129  1  0.27829364  0.83689275  0.93689224  1  -0.029202  0  -0.155416  -0.172759  0  3.850128  0
C  C130  1  0.29758548  0.80372077  0.00169276  1  0.022879  0  -0.015961  0.021586  0  3.816712  0
C  C131  1  0.33815787  0.72966197  0.00479194  1  -0.039069  0  -0.157635  -0.173959  0  3.854685  0
C  C132  1  0.28074763  0.66655248  0.00572641  1  -0.000861  0  -0.158235  -0.168814  0  3.864517  0
C  C133  1  0.20049509  0.69684939  0.00464329  1  0.047276  0  -0.016561  0.017503  0  3.818529  0
C  C134  1  0.16104788  0.71596745  0.06590125  1  -0.026151  0  -0.163023  -0.171508  0  3.883143  0
C  C135  1  0.21825111  0.78011980  0.06375054  1  -0.000698  0  -0.16447  -0.181811  0  3.879318  0
C  C136  1  0.83965298  0.28589767  0.93097742  1  -0.034396  0  -0.153239  -0.164716  0  3.848184  0
C  C137  1  0.78136924  0.22336531  0.93194569  1  -0.005651  0  -0.154313  -0.173395  0  3.841131  0
C  C138  1  0.70216494  0.19797261  0.99548723  1  0.032011  0  -0.016548  0.019477  0  3.814479  0
C  C139  1  0.66239851  0.27231492  0.99291799  1  0.002809  0  -0.158467  -0.172927  0  3.857549  0
C  C140  1  0.72078062  0.33501402  0.99154730  1  -0.055293  0  -0.160624  -0.174511  0  3.87117  0
C  C141  1  0.80011314  0.30336621  0.99375487  1  0.063691  0  -0.015739  0.019674  0  3.811514  0
C  C142  1  0.78071608  0.22575856  0.05797413  1  -0.022713  0  -0.163724  -0.172941  0  3.880733  0
C  C143  1  0.72292123  0.16321742  0.05890234  1  -0.031005  0  -0.16315  -0.177057  0  3.883077  0
C  C144  1  0.51931633  0.89968990  0.25847624  1  1.584945  0  0.232584  0.585414  0  4.138901  0
C  C145  1  0.24526313  0.84706086  0.24488028  1  1.563809  0  0.231669  0.583536  0  4.14062  0
C  C146  1  0.26605780  0.59757896  0.74580241  1  1.567985  0  0.230324  0.581771  0  4.142132  0
C  C147  1  0.99233662  0.66391779  0.73077191  1  1.564412  0  0.230195  0.583024  0  4.138884  0
C  C148  1  0.60131762  0.99720508  0.73487745  1  1.563085  0  0.231239  0.583004  0  4.141291  0
C  C149  1  0.65650122  0.26382844  0.73996564  1  1.561783  0  0.232739  0.585695  0  4.138947  0
C  C150  1  0.90348199  0.23906317  0.25203321  1  1.567974  0  0.231478  0.58277  0  4.142403  0
C  C151  1  0.84244383  0.50834414  0.25027450  1  1.568664  0  0.230794  0.58337  0  4.142275  0
O  O152  1  0.00145592  0.50327106  0.99382221  1  -1.228391  0  -0.573381  -1.030457  0  2.536143  0
O  O153  1  0.17469236  0.60568045  0.96228580  1  -1.170632  0  -0.315569  -0.550456  0  2.345251  0
O  O154  1  0.93601484  0.48591161  0.14679656  1  -1.165101  0  -0.299166  -0.529808  0  2.371807  0
O  O155  1  0.07149208  0.33713458  0.04223741  1  -1.174391  0  -0.313184  -0.543415  0  2.35885  0
O  O156  1  0.06914238  0.62560382  0.04050806  1  -1.172663  0  -0.313044  -0.545048  0  2.373003  0
O  O157  1  0.17140069  0.43801026  0.95924999  1  -1.17469  0  -0.310607  -0.541951  0  2.364181  0
O  O158  1  0.91349426  0.36655324  0.14527903  1  -1.169325  0  -0.299704  -0.529864  0  2.36352  0
O  O159  1  0.90324757  0.33733292  0.02599497  1  -1.171529  0  -0.315671  -0.550135  0  2.380415  0
O  O160  1  0.01353414  0.56891864  0.84117698  1  -1.160931  0  -0.299567  -0.532325  0  2.354277  0
O  O161  1  0.86445137  0.43693208  0.95249905  1  -1.17517  0  -0.315128  -0.549823  0  2.329096  0
O  O162  1  0.13681085  0.58944758  0.84629809  1  -1.172932  0  -0.299966  -0.53151  0  2.370643  0
O  O163  1  0.89628609  0.63037835  0.03194741  1  -1.163948  0  -0.315062  -0.547726  0  2.363673  0
O  O164  1  0.86869027  0.60647215  0.95228472  1  -1.168626  0  -0.309487  -0.542281  0  2.352083  0
O  O165  1  0.50180834  0.00243272  0.99537523  1  -1.228296  0  -0.573993  -1.030701  0  2.54101  0
O  O166  1  0.32847879  0.07134095  0.03136118  1  -1.17354  0  -0.317131  -0.551378  0  2.342722  0
O  O167  1  0.55866992  0.13799375  0.84188258  1  -1.166136  0  -0.300941  -0.532379  0  2.361613  0
O  O168  1  0.42625343  0.88565557  0.94994376  1  -1.181097  0  -0.315788  -0.550193  0  2.35754  0
O  O169  1  0.43481240  0.17030205  0.95866842  1  -1.184407  0  -0.312341  -0.544566  0  2.372686  0
O  O170  1  0.33141325  0.89584743  0.04033605  1  -1.172764  0  -0.307728  -0.535377  0  2.363051  0
O  O171  1  0.58501203  0.01802997  0.84291623  1  -1.157128  0  -0.299252  -0.530354  0  2.367146  0
O  O172  1  0.59843317  0.86999002  0.95947403  1  -1.179489  0  -0.313796  -0.546549  0  2.376321  0
O  O173  1  0.49619699  0.91492812  0.14729344  1  -1.168385  0  -0.298828  -0.529704  0  2.336616  0
O  O174  1  0.64142048  0.89771794  0.03058460  1  -1.168891  0  -0.316996  -0.554122  0  2.332791  0
O  O175  1  0.37238445  0.94320496  0.14510242  1  -1.17102  0  -0.302888  -0.537075  0  2.367476  0
O  O176  1  0.61625950  0.16527762  0.94797810  1  -1.177938  0  -0.315737  -0.548163  0  2.365716  0
O  O177  1  0.63267429  0.06655348  0.03720669  1  -1.170239  0  -0.309495  -0.542033  0  2.348665  0
O  O178  1  0.57232962  0.84794640  0.25301126  1  -1.116648  0  -0.333445  -0.468872  0  2.19255  0
O  O179  1  0.54281402  0.96774046  0.24456108  1  -1.099106  0  -0.277495  -0.439165  0  2.029615  0
O  O180  1  0.19836888  0.90505297  0.23606777  1  -1.101115  0  -0.333745  -0.468105  0  2.194573  0
O  O181  1  0.23810825  0.79388114  0.22872535  1  -1.100003  0  -0.275389  -0.439239  0  2.040023  0
O  O182  1  0.31213172  0.64736670  0.75472908  1  -1.09425  0  -0.332962  -0.466845  0  2.194857  0
O  O183  1  0.27385819  0.52847531  0.76220197  1  -1.096935  0  -0.279811  -0.441311  0  2.030217  0
O  O184  1  0.93945017  0.60683587  0.73610520  1  -1.090183  0  -0.332895  -0.467634  0  2.195052  0
O  O185  1  0.96873749  0.71849061  0.74417484  1  -1.101024  0  -0.278741  -0.440005  0  2.025775  0
O  O186  1  0.65410433  0.94525929  0.74537469  1  -1.091654  0  -0.33239  -0.465516  0  2.198316  0
O  O187  1  0.53190330  0.97454561  0.74573943  1  -1.102011  0  -0.279435  -0.439206  0  2.027651  0
O  O188  1  0.59772945  0.31035780  0.74343720  1  -1.073714  0  -0.333114  -0.467416  0  2.194449  0
O  O189  1  0.71036886  0.26959381  0.75922458  1  -1.098496  0  -0.277353  -0.440457  0  2.034429  0
O  O190  1  0.85111475  0.19528758  0.24310381  1  -1.110546  0  -0.333436  -0.467806  0  2.196612  0
O  O191  1  0.97392298  0.23007075  0.23904855  1  -1.097925  0  -0.275744  -0.436681  0  2.031711  0
O  O192  1  0.90136025  0.55900465  0.24577674  1  -1.088884  0  -0.3336  -0.46865  0  2.193073  0
O  O193  1  0.78712420  0.53246318  0.23280676  1  -1.101699  0  -0.276179  -0.439024  0  2.03535  0
