# generated using pymatgen
data_CoH12C12(NO)4
_symmetry_space_group_name_H-M   'P 1'
_cell_length_a   8.49450851
_cell_length_b   8.67119672
_cell_length_c   8.67132367
_cell_angle_alpha   79.06315948
_cell_angle_beta   87.23569416
_cell_angle_gamma   87.23951232
_symmetry_Int_Tables_number   1
_chemical_formula_structural   CoH12C12(NO)4
_chemical_formula_sum   'Co2 H24 C24 N8 O8'
_cell_volume   625.88209353
_cell_formula_units_Z   2
loop_
 _symmetry_equiv_pos_site_id
 _symmetry_equiv_pos_as_xyz
  1  'x, y, z'
loop_
 _atom_site_type_symbol
 _atom_site_label
 _atom_site_symmetry_multiplicity
 _atom_site_fract_x
 _atom_site_fract_y
 _atom_site_fract_z
 _atom_site_occupancy
 _atom_site_hle17_ddec_charge
 _atom_site_hle17_ddec_spin_density
 _atom_site_hle17_ddec_sum_bond_order
 _atom_site_hle17_magmom
 _atom_site_hse06_10hf_ddec_charge
 _atom_site_hse06_10hf_ddec_spin_density
 _atom_site_hse06_10hf_ddec_sum_bond_order
 _atom_site_hse06_10hf_magmom
 _atom_site_hse06_ddec_charge
 _atom_site_hse06_ddec_spin_density
 _atom_site_hse06_ddec_sum_bond_order
 _atom_site_hse06_magmom
 _atom_site_pbe_cm5_charge
 _atom_site_pbe_ddec_charge
 _atom_site_pbe_ddec_spin_density
 _atom_site_pbe_ddec_sum_bond_order
 _atom_site_pbe_magmom
Co  Co0  1  0.24999732  0.16097705  0.83902188  1  0.68756  -1.166648  2.375086  -1.006  0.6789  -1.063813  2.795443  -0.961  0.756497  -1.061942  2.718958  -0.97  0.614661  0.631854  -1.049948  2.84514  -0.94
Co  Co1  1  0.74998142  0.83901951  0.16099387  1  0.687804  1.16661  2.37526  1.006  0.678894  1.063791  2.795517  0.961  0.756467  1.061922  2.719162  0.97  0.614711  0.631816  1.049933  2.84524  0.94
H  H2  1  0.14762335  0.07916641  0.28705694  1  0.123997  0.000207  0.95229  0.0  0.131499  0.000129  1.013105  0.0  0.135486  0.000122  1.011832  0.0  0.106334  0.128735  0.000102  1.013991  0.0
H  H3  1  0.64765929  0.28705964  0.07910052  1  0.123957  -0.000206  0.952426  0.0  0.131492  -0.000128  1.013216  0.0  0.135559  -0.000122  1.01184  0.0  0.106301  0.128714  -0.000102  1.014108  0.0
H  H4  1  0.85235075  0.92104147  0.71284339  1  0.123705  -0.000199  0.952339  0.0  0.131289  -0.000129  1.013106  0.0  0.135283  -0.000122  1.011846  0.0  0.106231  0.128564  -0.000102  1.013942  0.0
H  H5  1  0.35244758  0.71288335  0.92086901  1  0.124158  0.000191  0.952085  0.0  0.131524  0.000128  1.013094  0.0  0.13551  0.000122  1.011828  0.0  0.106314  0.128795  0.000102  1.013928  0.0
H  H6  1  0.90479697  0.25441525  0.26175598  1  0.096072  -0.000109  0.966806  0.0  0.104293  -6.1e-05  1.03246  0.0  0.107554  -5.1e-05  1.029191  0.0  0.102027  0.101384  -4.8e-05  1.035804  0.0
H  H7  1  0.40482310  0.26168791  0.25434610  1  0.096333  9.7e-05  0.966387  0.0  0.10443  6.1e-05  1.032184  0.0  0.107724  5.2e-05  1.028871  0.0  0.102119  0.101521  4.8e-05  1.035529  0.0
H  H8  1  0.09507508  0.74565305  0.73826647  1  0.096016  9e-05  0.966461  0.0  0.104204  6.1e-05  1.03222  0.0  0.107581  5.2e-05  1.028812  0.0  0.101935  0.101287  4.8e-05  1.035577  0.0
H  H9  1  0.59524667  0.73820408  0.74555757  1  0.096068  -0.000117  0.966913  0.0  0.104233  -6.1e-05  1.032629  0.0  0.107507  -5.2e-05  1.029343  0.0  0.101975  0.101322  -4.8e-05  1.035966  0.0
H  H10  1  0.82689864  0.39962004  0.48182922  1  0.098335  0.000111  0.979387  0.0  0.10952  2e-06  1.037744  0.0  0.111988  -3e-06  1.0386  0.0  0.098586  0.107436  -9e-06  1.038076  0.0
H  H11  1  0.32690775  0.48171478  0.39963263  1  0.098536  -0.000112  0.979079  0.0  0.109706  -2e-06  1.037416  0.0  0.112199  3e-06  1.03824  0.0  0.098599  0.107626  9e-06  1.037737  0.0
H  H12  1  0.17304517  0.60045068  0.51818323  1  0.098499  -0.00011  0.979  0.0  0.109522  -2e-06  1.037545  0.0  0.112034  3e-06  1.038346  0.0  0.098556  0.10743  9e-06  1.037886  0.0
H  H13  1  0.67319052  0.51805227  0.60045368  1  0.098396  0.000107  0.979757  0.0  0.10965  2e-06  1.037965  0.0  0.112121  -3e-06  1.038816  0.0  0.098677  0.107609  -9e-06  1.03824  0.0
H  H14  1  0.99274515  0.35708831  0.71622224  1  0.082166  -2.5e-05  0.955513  0.0  0.090055  -1.8e-05  1.020172  0.0  0.092105  -2e-05  1.017343  0.0  0.114995  0.088702  -3.6e-05  1.022449  0.0
H  H15  1  0.49276345  0.71611173  0.35714055  1  0.082342  1.3e-05  0.955282  0.0  0.090113  1.8e-05  1.020068  0.0  0.092157  1.9e-05  1.017244  0.0  0.115063  0.088762  3.5e-05  1.022345  0.0
H  H16  1  0.00719328  0.64294382  0.28380894  1  0.082173  1.5e-05  0.955336  0.0  0.089856  1.8e-05  1.020307  0.0  0.091907  1.9e-05  1.017473  0.0  0.114952  0.088501  3.5e-05  1.022595  0.0
H  H17  1  0.50728118  0.28369757  0.64294319  1  0.082254  -2.7e-05  0.955583  0.0  0.089999  -1.8e-05  1.020399  0.0  0.09204  -2e-05  1.017585  0.0  0.115009  0.08865  -3.5e-05  1.022675  0.0
H  H18  1  0.38288594  0.99595313  0.63288415  1  0.341515  0.000239  0.937305  0.0  0.319619  8.9e-05  1.007556  0.0  0.327402  7.9e-05  1.000553  0.0  0.30363  0.314228  9.3e-05  1.012471  0.0
H  H19  1  0.88294027  0.63288570  0.99598808  1  0.341471  -0.000234  0.937548  0.0  0.319557  -8.9e-05  1.007874  0.0  0.327346  -7.9e-05  1.00086  0.0  0.303596  0.314169  -9.3e-05  1.012791  0.0
H  H20  1  0.61705370  0.00409334  0.36703669  1  0.342093  -0.000234  0.936966  0.0  0.320249  -9e-05  1.007135  0.0  0.328029  -7.9e-05  1.000146  0.0  0.304026  0.314862  -9.3e-05  1.012054  0.0
H  H21  1  0.11712259  0.36707355  0.00403570  1  0.341815  0.000237  0.937078  0.0  0.319951  8.9e-05  1.007288  0.0  0.327737  7.9e-05  1.00028  0.0  0.303744  0.314561  9.3e-05  1.012217  0.0
H  H22  1  0.35774566  0.96914841  0.43968389  1  0.328739  -4.8e-05  0.899916  0.0  0.314789  -3e-05  0.959135  0.0  0.321769  -5e-05  0.953638  0.0  0.306629  0.309831  4e-05  0.963321  0.0
H  H23  1  0.85781242  0.43968609  0.96916784  1  0.328609  4.8e-05  0.900447  0.0  0.314636  2.9e-05  0.959674  0.0  0.32161  5e-05  0.9542  0.0  0.306517  0.309679  -4e-05  0.963852  0.0
H  H24  1  0.64218464  0.03095082  0.56022065  1  0.328342  5.2e-05  0.900401  0.0  0.314481  2.9e-05  0.959456  0.0  0.321446  5e-05  0.954006  0.0  0.306534  0.309527  -4e-05  0.963624  0.0
H  H25  1  0.14229384  0.56025255  0.03087991  1  0.328456  -5e-05  0.900057  0.0  0.314582  -3e-05  0.959178  0.0  0.321556  -5e-05  0.953705  0.0  0.306538  0.309623  4e-05  0.963362  0.0
C  C26  1  0.04547987  0.92779788  0.97791132  1  0.531946  0.001077  3.863136  0.0  0.491137  0.000873  4.162978  0.0  0.524743  0.00026  4.154856  0.0  0.215008  0.466469  0.001629  4.169783  0.001
C  C27  1  0.54550080  0.97783737  0.92778708  1  0.532731  -0.001074  3.861738  0.0  0.491647  -0.000871  4.161915  0.0  0.525261  -0.000261  4.153772  0.0  0.215127  0.466993  -0.001626  4.168707  -0.001
C  C28  1  0.95446763  0.07227645  0.02216362  1  0.532284  -0.001069  3.863017  0.0  0.491398  -0.000867  4.162848  0.0  0.525049  -0.000258  4.154663  0.0  0.215006  0.466706  -0.001619  4.169687  -0.001
C  C29  1  0.45448838  0.02211028  0.07226025  1  0.532091  0.001071  3.863057  0.0  0.491272  0.000869  4.163098  0.0  0.524903  0.000256  4.154937  0.0  0.214965  0.466574  0.001621  4.169939  0.001
C  C30  1  0.19393169  0.11865978  0.51841047  1  0.482946  0.003805  3.80904  0.005  0.460923  0.00181  4.065732  0.003  0.482175  0.001527  4.079852  0.002  0.230171  0.445899  0.002112  4.056543  0.003
C  C31  1  0.69395525  0.51840006  0.11864774  1  0.483147  -0.00381  3.808749  -0.005  0.46094  -0.001809  4.065647  -0.003  0.482227  -0.001529  4.079786  -0.002  0.230079  0.445905  -0.002111  4.05647  -0.003
C  C32  1  0.80603596  0.88147747  0.48150033  1  0.482293  -0.003843  3.810133  -0.005  0.46007  -0.001813  4.06706  -0.003  0.481412  -0.00153  4.081131  -0.002  0.229676  0.445032  -0.002114  4.057895  -0.003
C  C33  1  0.30610373  0.48153773  0.88136574  1  0.481953  0.003814  3.809071  0.005  0.460207  0.001813  4.065573  0.003  0.481454  0.001529  4.079711  0.002  0.229883  0.445214  0.002115  4.056327  0.003
C  C34  1  0.10708479  0.14197169  0.38001599  1  -0.233312  -0.001888  3.689392  -0.003  -0.24585  -7.3e-05  3.939316  0.0  -0.257711  -0.000175  3.957831  0.0  -0.101648  -0.237783  0.000212  3.92634  0.0
C  C35  1  0.60710945  0.37998858  0.14192310  1  -0.23311  0.001916  3.689391  0.003  -0.245635  7.3e-05  3.939317  0.0  -0.257553  0.00018  3.957793  0.0  -0.10161  -0.237547  -0.000212  3.926341  0.0
C  C36  1  0.89286406  0.85819414  0.61991058  1  -0.232057  0.001901  3.688821  0.003  -0.244647  7.5e-05  3.938789  0.0  -0.256532  0.000181  3.95734  0.0  -0.101349  -0.236608  -0.000212  3.925784  0.0
C  C37  1  0.39296949  0.61991915  0.85805871  1  -0.233059  -0.001873  3.689607  -0.003  -0.245626  -7.4e-05  3.939632  0.0  -0.257491  -0.000179  3.958165  0.0  -0.101576  -0.237593  0.000212  3.926618  0.0
C  C38  1  0.97456112  0.24070181  0.36584465  1  0.018929  0.004387  3.765306  0.005  -0.002841  0.001697  4.018831  0.002  0.007846  0.001118  4.031954  0.001  -0.081659  -0.010995  0.002265  4.011156  0.003
C  C39  1  0.47456540  0.36579973  0.24064840  1  0.018457  -0.004387  3.764986  -0.005  -0.003248  -0.001698  4.018586  -0.002  0.00741  -0.001123  4.031718  -0.001  -0.081751  -0.01139  -0.002264  4.01088  -0.003
C  C40  1  0.02536488  0.75939655  0.63413642  1  0.01847  -0.004364  3.764601  -0.005  -0.003244  -0.001704  4.018142  -0.002  0.007357  -0.001127  4.031238  -0.001  -0.081524  -0.011398  -0.00227  4.010471  -0.003
C  C41  1  0.52548300  0.63410136  0.75930177  1  0.018791  0.004425  3.765657  0.005  -0.002924  0.001702  4.019236  0.002  0.00776  0.001124  4.032353  0.001  -0.081629  -0.011084  0.00227  4.011578  0.003
C  C42  1  0.92983158  0.31967231  0.48886179  1  -0.180821  -0.002194  3.813371  -0.003  -0.196041  -0.000451  4.072117  -0.001  -0.207237  -0.000486  4.093999  -0.001  -0.115885  -0.187725  -0.000455  4.057867  -0.001
C  C43  1  0.42984332  0.48877576  0.31966574  1  -0.181255  0.002188  3.812865  0.003  -0.19638  0.000451  4.07158  0.001  -0.207592  0.000487  4.093442  0.001  -0.115982  -0.188055  0.000455  4.057337  0.001
C  C44  1  0.07010708  0.68040765  0.51114092  1  -0.180761  0.002217  3.81312  0.003  -0.195798  0.000453  4.071797  0.001  -0.207018  0.00049  4.093679  0.001  -0.115722  -0.187476  0.000455  4.057549  0.001
C  C45  1  0.57022686  0.51106438  0.68036178  1  -0.180904  -0.0022  3.814179  -0.003  -0.19614  -0.000452  4.072814  -0.001  -0.207339  -0.000487  4.094696  -0.001  -0.115947  -0.187843  -0.000456  4.058541  -0.001
C  C46  1  0.02146839  0.29648721  0.61912985  1  0.120231  0.005169  3.747663  0.007  0.089386  0.001736  4.012224  0.002  0.102055  0.001119  4.029434  0.002  0.029082  0.079898  0.002143  4.001364  0.003
C  C47  1  0.52147933  0.61905484  0.29651269  1  0.120585  -0.00514  3.747134  -0.007  0.089697  -0.001735  4.011773  -0.002  0.102408  -0.001117  4.028989  -0.002  0.029096  0.080224  -0.002143  4.000885  -0.003
C  C48  1  0.97847335  0.70357501  0.38087064  1  0.120692  -0.005202  3.74708  -0.007  0.089821  -0.001741  4.011693  -0.002  0.102547  -0.001122  4.028932  -0.002  0.029203  0.080361  -0.002149  4.000782  -0.003
C  C49  1  0.47856326  0.38079988  0.70354091  1  0.119981  0.005192  3.747679  0.007  0.089304  0.00174  4.012299  0.002  0.10199  0.001121  4.029496  0.002  0.028961  0.079772  0.002149  4.001511  0.003
N  N50  1  0.15116855  0.19767497  0.63730323  1  -0.386453  0.008345  3.302158  0.012  -0.344525  0.004927  3.595052  0.008  -0.377556  0.004854  3.609492  0.008  -0.354044  -0.32297  0.004707  3.584718  0.007
N  N51  1  0.65118534  0.63726922  0.19769027  1  -0.386872  -0.008349  3.302091  -0.012  -0.344661  -0.004927  3.594798  -0.008  -0.377792  -0.004854  3.609341  -0.008  -0.354035  -0.323107  -0.004707  3.584478  -0.007
N  N52  1  0.84877758  0.80239135  0.36266504  1  -0.386919  -0.00832  3.302701  -0.011  -0.344643  -0.004932  3.595396  -0.008  -0.377845  -0.004859  3.609986  -0.008  -0.354251  -0.323096  -0.004714  3.585085  -0.007
N  N53  1  0.34884414  0.36264141  0.80232811  1  -0.385563  0.008335  3.301428  0.012  -0.343862  0.004932  3.594423  0.008  -0.376893  0.00486  3.608879  0.008  -0.35396  -0.322322  0.004713  3.584085  0.007
N  N54  1  0.31955642  0.01655953  0.53376144  1  -0.685106  0.000945  3.128055  0.001  -0.652393  0.00044  3.366128  0.001  -0.673054  0.000295  3.36288  0.0  -0.586007  -0.637545  0.000461  3.369597  0.001
N  N55  1  0.81960240  0.53375450  0.01656428  1  -0.685002  -0.00096  3.128483  -0.001  -0.652262  -0.00044  3.366635  -0.001  -0.672926  -0.000292  3.363388  0.0  -0.585836  -0.63741  -0.000461  3.370099  -0.001
N  N56  1  0.68047414  0.98364803  0.46611180  1  -0.685163  -0.000973  3.128741  -0.001  -0.652563  -0.00044  3.366932  -0.001  -0.67322  -0.000292  3.363663  0.0  -0.586186  -0.637722  -0.000461  3.370395  -0.001
N  N57  1  0.18052164  0.46615774  0.98351805  1  -0.684901  0.000957  3.128027  0.001  -0.652333  0.000442  3.366056  0.001  -0.672993  0.000295  3.362816  0.0  -0.585938  -0.637509  0.000462  3.369528  0.001
O  O58  1  0.16788681  0.95137576  0.88705981  1  -0.505588  0.006123  2.193711  0.009  -0.4774  0.003566  2.466235  0.006  -0.516054  0.003459  2.461894  0.006  -0.286806  -0.450756  0.002627  2.469566  0.004
O  O59  1  0.66790224  0.88702323  0.95137858  1  -0.505711  -0.006119  2.1933  -0.009  -0.477369  -0.003562  2.465967  -0.006  -0.515983  -0.003455  2.461586  -0.006  -0.286758  -0.450736  -0.002624  2.469308  -0.004
O  O60  1  0.83205256  0.04868919  0.11295984  1  -0.505492  -0.006106  2.193548  -0.009  -0.477245  -0.003554  2.46615  -0.006  -0.515868  -0.003447  2.461773  -0.006  -0.286663  -0.450598  -0.002615  2.469493  -0.004
O  O61  1  0.33208051  0.11293740  0.04866984  1  -0.505626  0.006102  2.193704  0.009  -0.47736  0.003556  2.466223  0.006  -0.515999  0.003452  2.461847  0.006  -0.286691  -0.450709  0.002617  2.469569  0.004
O  O62  1  0.99373780  0.79375736  0.03445743  1  -0.577434  0.025542  2.093281  0.04  -0.531593  0.023172  2.334865  0.036  -0.559756  0.019034  2.323856  0.029  -0.287655  -0.510702  0.026836  2.341397  0.041
O  O63  1  0.49375705  0.03439578  0.79373412  1  -0.578069  -0.025543  2.092748  -0.04  -0.532122  -0.023169  2.334411  -0.036  -0.56029  -0.01903  2.323392  -0.029  -0.287839  -0.511224  -0.026835  2.340929  -0.041
O  O64  1  0.00622663  0.20633325  0.96560170  1  -0.577921  -0.025533  2.093238  -0.04  -0.532103  -0.023164  2.334892  -0.036  -0.560289  -0.019027  2.323859  -0.029  -0.287812  -0.511193  -0.026829  2.34143  -0.041
O  O65  1  0.50620852  0.96555164  0.20630642  1  -0.577842  0.025539  2.093702  0.04  -0.532035  0.023169  2.335351  0.036  -0.560219  0.019031  2.324344  0.029  -0.287752  -0.511135  0.026832  2.341892  0.041
