# generated using pymatgen
data_FeH14(C5N2)2
_symmetry_space_group_name_H-M   'P 1'
_cell_length_a   8.36791641
_cell_length_b   8.36615297
_cell_length_c   13.07148553
_cell_angle_alpha   90.00247286
_cell_angle_beta   90.01511907
_cell_angle_gamma   119.99316261
_symmetry_Int_Tables_number   1
_chemical_formula_structural   FeH14(C5N2)2
_chemical_formula_sum   'Fe3 H42 C30 N12'
_cell_volume   792.55353343
_cell_formula_units_Z   3
loop_
 _symmetry_equiv_pos_site_id
 _symmetry_equiv_pos_as_xyz
  1  'x, y, z'
loop_
 _atom_site_type_symbol
 _atom_site_label
 _atom_site_symmetry_multiplicity
 _atom_site_fract_x
 _atom_site_fract_y
 _atom_site_fract_z
 _atom_site_occupancy
 _atom_site_hle17_ddec_charge
 _atom_site_hle17_ddec_spin_density
 _atom_site_hle17_ddec_sum_bond_order
 _atom_site_hle17_magmom
 _atom_site_hse06_10hf_ddec_charge
 _atom_site_hse06_10hf_ddec_spin_density
 _atom_site_hse06_10hf_ddec_sum_bond_order
 _atom_site_hse06_10hf_magmom
 _atom_site_hse06_ddec_charge
 _atom_site_hse06_ddec_spin_density
 _atom_site_hse06_ddec_sum_bond_order
 _atom_site_hse06_magmom
 _atom_site_pbe_cm5_charge
 _atom_site_pbe_ddec_charge
 _atom_site_pbe_ddec_spin_density
 _atom_site_pbe_ddec_sum_bond_order
 _atom_site_pbe_magmom
Fe  Fe0  1  0.00004096  0.47343092  0.66669057  1  0.85155  -3.805727  2.158682  -3.532  0.710671  -3.743396  2.657995  -3.5  0.784556  -3.810414  2.594632  -3.597  0.708482  0.649666  -3.671  2.707318  -3.4
Fe  Fe1  1  0.52687937  0.52663286  0.99986939  1  0.85264  3.817161  2.157454  3.537  0.712085  3.780415  2.655269  3.506  0.78522  3.833052  2.592719  3.6  0.709607  0.652143  3.725161  2.703863  3.414
Fe  Fe2  1  0.47321006  0.99979571  0.33342001  1  0.852739  3.821535  2.154909  3.537  0.71235  3.785919  2.652528  3.507  0.785504  3.838525  2.590026  3.6  0.70905  0.652371  3.730692  2.701086  3.414
H  H3  1  0.01530782  0.12626840  0.57921037  1  0.086807  0.000177  0.982207  0.0  0.09719  0.000132  1.046391  0.0  0.098589  0.00011  1.046755  0.0  0.111327  0.096246  0.00015  1.046176  0.0
H  H4  1  0.87367109  0.88913484  0.91263976  1  0.086259  -0.000124  0.983119  0.0  0.096981  -3.3e-05  1.046994  0.0  0.098334  -3.7e-05  1.047419  0.0  0.111418  0.096091  -2.4e-05  1.046724  0.0
H  H5  1  0.11034083  0.98580657  0.24650382  1  0.086612  4.9e-05  0.983046  0.0  0.09697  0.000206  1.047342  0.001  0.098434  0.000123  1.04759  0.0  0.111077  0.095986  0.000295  1.047195  0.001
H  H6  1  0.12652435  0.01559853  0.42082537  1  0.086667  -0.000123  0.982394  0.0  0.09714  -3.3e-05  1.046441  0.0  0.098512  -3.7e-05  1.04681  0.0  0.111364  0.096229  -2.4e-05  1.046206  0.0
H  H7  1  0.88954862  0.87531506  0.08657948  1  0.086205  4.9e-05  0.983652  0.0  0.096877  0.000207  1.047721  0.001  0.098259  0.000125  1.048081  0.0  0.111102  0.095943  0.000297  1.047493  0.001
H  H8  1  0.98467349  0.11079382  0.75430591  1  0.086611  0.000177  0.982606  0.0  0.097129  0.000133  1.046591  0.0  0.098549  0.000111  1.046922  0.0  0.111287  0.096139  0.000152  1.046423  0.0
H  H9  1  0.79290821  0.92729462  0.41626447  1  0.086039  -9.1e-05  0.983456  0.0  0.095538  -4e-06  1.049094  0.0  0.097174  -1e-05  1.049038  0.0  0.110058  0.094454  1e-06  1.04913  0.0
H  H10  1  0.07256457  0.86592924  0.74968661  1  0.086256  0.000159  0.983358  0.0  0.095422  0.000122  1.04943  0.0  0.09714  9.7e-05  1.049323  0.0  0.109957  0.094283  0.00015  1.049494  0.0
H  H11  1  0.13410335  0.20546515  0.08220072  1  0.086108  -6e-06  0.983661  0.0  0.095174  0.000204  1.049981  0.001  0.096818  0.00012  1.049933  0.0  0.10983  0.094085  0.000297  1.050047  0.001
H  H12  1  0.92756204  0.79333835  0.58371786  1  0.086013  0.00016  0.983645  0.0  0.095526  0.000122  1.04925  0.0  0.097147  9.7e-05  1.04924  0.0  0.11008  0.094441  0.000149  1.049251  0.0
H  H13  1  0.86610167  0.07128813  0.25095544  1  0.085685  -6e-06  0.98421  0.0  0.095096  0.000204  1.050111  0.001  0.096754  0.00012  1.050055  0.0  0.109688  0.093988  0.000296  1.05018  0.001
H  H14  1  0.20715606  0.13445483  0.91723879  1  0.086313  -9.1e-05  0.983326  0.0  0.095232  -4e-06  1.04956  0.0  0.096858  -1e-05  1.049535  0.0  0.110049  0.094164  1e-06  1.049557  0.0
H  H15  1  0.36565136  0.08854315  0.61981864  1  0.09587  3e-06  0.965889  0.0  0.116696  2e-05  1.027134  0.0  0.117724  1.3e-05  1.028558  0.0  0.082343  0.115852  2.6e-05  1.026233  0.0
H  H16  1  0.91135268  0.27701706  0.95299099  1  0.096046  -7e-06  0.965329  0.0  0.116732  -2.4e-05  1.026797  0.0  0.117817  -1.8e-05  1.028159  0.0  0.082269  0.115836  -3e-05  1.025959  0.0
H  H17  1  0.72258015  0.63434472  0.28621950  1  0.09612  -0.000125  0.966266  0.0  0.117038  -0.000152  1.027445  0.0  0.118064  -0.000149  1.028876  0.0  0.082393  0.1162  -0.000148  1.02655  0.0
H  H18  1  0.08849614  0.36565264  0.38012698  1  0.095916  -7e-06  0.965551  0.0  0.116718  -2.5e-05  1.026819  0.0  0.11775  -1.9e-05  1.028235  0.0  0.082326  0.115879  -3e-05  1.025918  0.0
H  H19  1  0.27714474  0.91145790  0.04713251  1  0.096281  -0.000125  0.965279  0.0  0.116854  -0.000152  1.026899  0.0  0.117912  -0.000149  1.028302  0.0  0.082326  0.116002  -0.000149  1.026006  0.0
H  H20  1  0.63439082  0.72274480  0.71368344  1  0.096465  3e-06  0.965313  0.0  0.117194  2e-05  1.02671  0.0  0.118242  1.3e-05  1.028111  0.0  0.082451  0.116323  2.6e-05  1.025835  0.0
H  H21  1  0.36543229  0.30064832  0.62661422  1  0.096078  9e-05  0.968547  0.0  0.117811  0.000137  1.029542  0.0  0.118841  0.000131  1.030628  0.0  0.083248  0.117021  0.000136  1.028805  0.0
H  H22  1  0.69924397  0.06470940  0.95969543  1  0.095766  -8.3e-05  0.969112  0.0  0.117574  -0.000112  1.030009  0.0  0.118595  -0.00012  1.031124  0.0  0.083206  0.116807  -9.7e-05  1.029253  0.0
H  H23  1  0.93488182  0.63456154  0.29303546  1  0.095435  -9.9e-05  0.968524  0.0  0.11746  -0.00012  1.02927  0.0  0.118463  -0.000124  1.030406  0.0  0.082942  0.11669  -0.000107  1.028506  0.0
H  H24  1  0.30057684  0.36540988  0.37338822  1  0.096144  -8.3e-05  0.96889  0.0  0.117821  -0.000112  1.029921  0.0  0.118845  -0.00012  1.031025  0.0  0.083236  0.117042  -9.7e-05  1.02919  0.0
H  H25  1  0.06490446  0.69930175  0.04041612  1  0.095739  -9.9e-05  0.968411  0.0  0.117739  -0.00012  1.029083  0.0  0.11876  -0.000124  1.030216  0.0  0.083258  0.116978  -0.000107  1.028301  0.0
H  H26  1  0.63467118  0.93510400  0.70682108  1  0.095777  9e-05  0.969195  0.0  0.117767  0.000137  1.029802  0.0  0.118761  0.000131  1.030941  0.0  0.083219  0.116985  0.000136  1.029048  0.0
H  H27  1  0.53153339  0.27363560  0.69604693  1  0.093356  0.00017  0.99071  0.0  0.112078  8.8e-05  1.059292  0.0  0.112678  8.6e-05  1.060471  0.0  0.084307  0.111587  9.1e-05  1.058579  0.0
H  H28  1  0.72631716  0.25776622  0.02920554  1  0.093807  -0.000254  0.989762  0.0  0.112442  -0.000221  1.058458  0.0  0.11309  -0.000209  1.059593  0.0  0.084431  0.111893  -0.000229  1.057813  0.0
H  H29  1  0.74188298  0.46866103  0.36258429  1  0.093009  -0.000177  0.99158  0.0  0.112394  -6.6e-05  1.059401  0.0  0.112972  -7.3e-05  1.060604  0.0  0.084217  0.111884  -6.1e-05  1.058731  0.0
H  H30  1  0.27354887  0.53144074  0.30391871  1  0.093628  -0.000254  0.990642  0.0  0.112285  -0.000221  1.059205  0.0  0.112885  -0.000209  1.060396  0.0  0.084356  0.111789  -0.00023  1.058502  0.0
H  H31  1  0.25785956  0.72643941  0.97081982  1  0.093845  -0.000177  0.989805  0.0  0.112371  -6.6e-05  1.058557  0.0  0.113037  -7.3e-05  1.059675  0.0  0.084433  0.11182  -6e-05  1.057916  0.0
H  H32  1  0.46855442  0.74194473  0.63740061  1  0.0932  0.00017  0.991175  0.0  0.112459  8.7e-05  1.05912  0.0  0.11303  8.5e-05  1.060329  0.0  0.084217  0.111956  9.1e-05  1.05843  0.0
H  H33  1  0.50544558  0.29020558  0.46148248  1  0.074246  0.000322  0.956532  0.0  0.089531  0.000867  1.024706  0.0  0.091197  0.000673  1.022833  0.0  0.095631  0.088125  0.001038  1.02646  0.0
H  H34  1  0.70977269  0.21552179  0.79462001  1  0.07487  -0.00032  0.95624  0.0  0.089509  -0.000845  1.024339  0.0  0.091162  -0.000663  1.022528  0.0  0.095647  0.088105  -0.001005  1.026103  0.0
H  H35  1  0.78402255  0.49398532  0.12799513  1  0.074544  0.000277  0.956809  0.0  0.0897  0.000897  1.024732  0.0  0.091427  0.000704  1.022832  0.0  0.095575  0.088271  0.001076  1.026507  0.0
H  H36  1  0.29019531  0.50556194  0.53848835  1  0.074251  -0.000319  0.956756  0.0  0.089486  -0.000844  1.024998  0.0  0.091161  -0.000663  1.023101  0.0  0.095556  0.088087  -0.001004  1.026746  0.0
H  H37  1  0.21603208  0.70991998  0.20541948  1  0.074565  0.000276  0.956568  0.0  0.08947  0.000897  1.024475  0.0  0.091122  0.000704  1.022629  0.0  0.095629  0.088088  0.001076  1.026231  0.0
H  H38  1  0.49448283  0.78462482  0.87196817  1  0.074655  0.000324  0.956497  0.0  0.090047  0.000868  1.024375  0.0  0.091702  0.000675  1.022531  0.0  0.095848  0.088627  0.00104  1.026196  0.0
H  H39  1  0.67732850  0.46217404  0.53978278  1  0.080638  -0.000258  0.935861  0.0  0.099519  -0.000482  0.995076  0.0  0.101028  -0.000379  0.994102  0.0  0.096682  0.098356  -0.00058  0.995874  0.0
H  H40  1  0.53782272  0.21532299  0.87292097  1  0.081322  0.000263  0.935975  0.0  0.099671  0.000502  0.994951  0.0  0.101182  0.000392  0.994027  0.0  0.09701  0.098517  0.000608  0.995773  0.0
H  H41  1  0.78450316  0.32246425  0.20640163  1  0.081129  0.000524  0.93499  0.001  0.100018  0.000965  0.993987  0.001  0.101382  0.000756  0.993197  0.001  0.097021  0.098988  0.001181  0.994643  0.001
H  H42  1  0.46211332  0.67739165  0.46021043  1  0.080644  0.000263  0.936065  0.0  0.099585  0.000503  0.995137  0.0  0.101071  0.000393  0.994212  0.0  0.096806  0.098433  0.000609  0.995938  0.0
H  H43  1  0.21554260  0.53785523  0.12703958  1  0.08166  0.000524  0.93534  0.001  0.100036  0.000964  0.994351  0.001  0.101488  0.000755  0.993471  0.001  0.096996  0.098954  0.00118  0.995137  0.001
H  H44  1  0.32274557  0.78484585  0.79362055  1  0.081004  -0.000258  0.934899  0.0  0.099926  -0.000481  0.994156  0.0  0.101297  -0.000378  0.993322  0.0  0.097034  0.098849  -0.000579  0.994881  0.0
C  C45  1  0.89912391  0.12981363  0.54490040  1  -0.027127  0.00268  3.793673  0.004  -0.052639  -0.000534  4.051306  -0.001  -0.050851  -0.001002  4.074479  -0.002  -0.018596  -0.053956  -3.3e-05  4.034959  -0.001
C  C46  1  0.87028194  0.76947250  0.87832419  1  -0.025943  -0.002591  3.792427  -0.003  -0.051792  0.0007  4.04976  0.001  -0.050017  0.001122  4.072912  0.002  -0.01831  -0.053076  0.000266  4.033441  0.001
C  C47  1  0.23027633  0.10119525  0.21183078  1  -0.026716  0.002825  3.796114  0.005  -0.052398  0.004985  4.05365  0.007  -0.050555  0.003622  4.076648  0.006  -0.018163  -0.053745  0.006499  4.037557  0.009
C  C48  1  0.12988007  0.89927662  0.45510413  1  -0.02693  -0.002587  3.793791  -0.003  -0.052456  0.000704  4.051399  0.001  -0.050674  0.001124  4.074562  0.002  -0.018438  -0.053732  0.00027  4.035054  0.001
C  C49  1  0.76972529  0.87088769  0.12131361  1  -0.027021  0.002844  3.793994  0.005  -0.05313  0.005002  4.0516  0.007  -0.051239  0.003638  4.074634  0.006  -0.019107  -0.054497  0.006516  4.035502  0.009
C  C50  1  0.10083342  0.23059829  0.78857093  1  -0.026617  0.002688  3.794224  0.004  -0.052209  -0.000521  4.051642  -0.001  -0.05042  -0.000991  4.074808  -0.002  -0.018221  -0.053487  -1.8e-05  4.035318  -0.001
C  C51  1  0.69826662  0.22070900  0.51873921  1  0.365516  -0.001309  3.697495  -0.002  0.35168  -0.001053  3.957137  -0.001  0.367398  -0.000791  3.976152  -0.001  0.204812  0.34067  -0.001357  3.942999  -0.002
C  C52  1  0.77943057  0.47772132  0.85200558  1  0.364515  0.001327  3.700089  0.002  0.351262  0.001116  3.957674  0.001  0.366978  0.00084  3.976719  0.001  0.205121  0.340284  0.001424  3.943497  0.002
C  C53  1  0.52196853  0.30138668  0.18537387  1  0.364865  0.01155  3.699774  0.018  0.352759  0.014962  3.957129  0.023  0.368098  0.012394  3.976452  0.019  0.205518  0.342315  0.01766  3.942583  0.026
C  C54  1  0.22060708  0.69826033  0.48127742  1  0.365097  0.001321  3.697591  0.002  0.351368  0.001107  3.957012  0.001  0.367077  0.000831  3.976056  0.001  0.204632  0.340383  0.001413  3.942832  0.002
C  C55  1  0.47806087  0.77941647  0.14791280  1  0.364998  0.011545  3.698465  0.018  0.351429  0.014959  3.95696  0.023  0.366731  0.012391  3.976332  0.019  0.205436  0.341041  0.017655  3.942401  0.026
C  C56  1  0.30170884  0.52238951  0.81467011  1  0.364919  -0.001282  3.698292  -0.002  0.352106  -0.001026  3.95664  -0.001  0.367865  -0.000768  3.975536  -0.001  0.204928  0.341085  -0.001328  3.942595  -0.002
C  C57  1  0.79068342  0.03315286  0.46313483  1  -0.035301  -0.00322  3.801909  -0.004  -0.062644  -0.000125  4.061255  0.001  -0.06141  0.000474  4.084303  0.001  -0.02163  -0.063449  -0.000779  4.045019  0.0
C  C58  1  0.96686761  0.75776135  0.79652742  1  -0.036563  0.003329  3.802449  0.004  -0.06383  0.000317  4.062164  0.0  -0.062648  -0.000345  4.085188  -0.001  -0.022405  -0.064619  0.001056  4.045868  0.001
C  C59  1  0.24217003  0.20859777  0.12950981  1  -0.036896  0.004187  3.804978  0.007  -0.064356  0.005605  4.064739  0.008  -0.063018  0.003992  4.08759  0.006  -0.023113  -0.065313  0.007387  4.048741  0.011
C  C60  1  0.03329130  0.79092348  0.53686940  1  -0.035705  0.003328  3.802784  0.004  -0.063106  0.000314  4.062066  0.0  -0.061846  -0.000346  4.085137  -0.001  -0.021987  -0.063947  0.001052  4.045754  0.001
C  C61  1  0.75795450  0.96640699  0.20368714  1  -0.035806  0.004174  3.803634  0.007  -0.063521  0.005596  4.063413  0.008  -0.062165  0.003983  4.086279  0.006  -0.022121  -0.064473  0.007379  4.047392  0.011
C  C62  1  0.20931170  0.24245572  0.87032614  1  -0.036488  -0.003219  3.802349  -0.004  -0.063501  -0.000117  4.062075  0.001  -0.062283  0.000479  4.085105  0.001  -0.022256  -0.064301  -0.00077  4.045826  0.0
C  C63  1  0.45436084  0.23899836  0.62413149  1  -0.27432  -2.3e-05  3.69077  0.0  -0.346258  -7.1e-05  3.928662  0.0  -0.348976  -3.5e-05  3.940113  0.0  -0.248687  -0.344094  -0.000105  3.920714  0.0
C  C64  1  0.76093340  0.21529153  0.95728603  1  -0.274216  2e-06  3.689767  0.0  -0.346651  6.5e-05  3.926968  0.0  -0.349418  8e-06  3.93835  0.0  -0.248839  -0.344405  0.000129  3.919099  0.0
C  C65  1  0.78432414  0.54562290  0.29061473  1  -0.27345  0.000346  3.691837  0.001  -0.346251  0.000486  3.92919  0.001  -0.348936  0.00035  3.940732  0.001  -0.248313  -0.344072  0.000655  3.921176  0.001
C  C66  1  0.23892957  0.45433943  0.37583920  1  -0.274571  -2e-06  3.690654  0.0  -0.346491  6.3e-05  3.928668  0.0  -0.349216  7e-06  3.940128  0.0  -0.248665  -0.344315  0.000126  3.920728  0.0
C  C67  1  0.21547430  0.76102804  0.04277298  1  -0.27419  0.000348  3.68976  0.001  -0.346339  0.000487  3.926757  0.001  -0.349151  0.000351  3.938162  0.001  -0.248794  -0.344064  0.000656  3.918834  0.001
C  C68  1  0.54570128  0.78453247  0.70932840  1  -0.274729  -2.1e-05  3.691547  0.0  -0.34712  -7e-05  3.929262  0.0  -0.3498  -3.5e-05  3.940685  0.0  -0.248706  -0.344929  -0.000104  3.921327  0.0
C  C69  1  0.58530675  0.31201157  0.53212726  1  -0.159941  0.000127  3.737953  0.0  -0.200171  0.000314  3.994918  0.001  -0.201711  0.000266  4.004535  0.001  -0.156047  -0.19886  0.000346  3.988166  0.001
C  C70  1  0.68797072  0.27342645  0.86531407  1  -0.161207  -0.000119  3.740237  0.0  -0.199479  -0.000272  3.994629  -0.001  -0.201091  -0.000242  4.004331  -0.001  -0.156213  -0.198197  -0.000279  3.987865  -0.001
C  C71  1  0.72619766  0.41435214  0.19871177  1  -0.160767  9.1e-05  3.739713  0.0  -0.201042  0.002134  3.996355  0.002  -0.202598  0.001645  4.006164  0.002  -0.1563  -0.199748  0.002613  3.989365  0.003
C  C72  1  0.31197448  0.58537331  0.46785281  1  -0.159903  -0.000116  3.739184  0.0  -0.20007  -0.000268  3.995785  -0.001  -0.201623  -0.000239  4.005468  -0.001  -0.156014  -0.198764  -0.000275  3.98898  -0.001
C  C73  1  0.27379915  0.68806829  0.13467465  1  -0.162073  9.1e-05  3.740272  0.0  -0.200413  0.002132  3.994873  0.002  -0.201931  0.001644  4.004601  0.002  -0.156331  -0.199231  0.00261  3.988072  0.003
C  C74  1  0.41471135  0.72665748  0.80128694  1  -0.16028  0.000127  3.73722  0.0  -0.201133  0.000317  3.99517  0.001  -0.202576  0.000268  4.004676  0.001  -0.156773  -0.199917  0.00035  3.988482  0.001
N  N75  1  0.84045659  0.24835909  0.58027562  1  -0.457148  -0.026552  3.272838  -0.033  -0.390815  -0.021817  3.573422  -0.018  -0.421008  -0.017702  3.588391  -0.011  -0.390598  -0.367258  -0.025431  3.56182  -0.023
N  N76  1  0.75188965  0.59222280  0.91362370  1  -0.456711  0.026847  3.274135  0.033  -0.390596  0.022228  3.574531  0.018  -0.420675  0.017937  3.589546  0.011  -0.390708  -0.367165  0.026121  3.562714  0.024
N  N77  1  0.40732968  0.15999005  0.24732303  1  -0.45754  0.031629  3.27228  0.041  -0.391418  0.028424  3.571501  0.027  -0.42121  0.022537  3.586516  0.019  -0.390515  -0.36848  0.033938  3.55996  0.035
N  N78  1  0.24822886  0.84040582  0.41973631  1  -0.456811  0.026839  3.273047  0.033  -0.390766  0.022212  3.573834  0.018  -0.420865  0.017924  3.588871  0.011  -0.390752  -0.367318  0.026097  3.562005  0.024
N  N79  1  0.59259672  0.75265921  0.08588250  1  -0.457287  0.031645  3.272276  0.041  -0.390917  0.02845  3.572283  0.027  -0.420653  0.022559  3.587172  0.019  -0.390206  -0.367992  0.033973  3.560738  0.035
N  N80  1  0.15949232  0.40777244  0.75315086  1  -0.456922  -0.026551  3.273286  -0.033  -0.39058  -0.021805  3.573247  -0.018  -0.420798  -0.017694  3.588255  -0.011  -0.390093  -0.366999  -0.025415  3.561575  -0.023
N  N81  1  0.66516921  0.09265729  0.44577735  1  -0.450242  0.02689  3.27968  0.034  -0.382998  0.021881  3.577395  0.018  -0.412964  0.017687  3.593214  0.011  -0.387272  -0.35991  0.025584  3.565595  0.023
N  N82  1  0.90742289  0.57275865  0.77906962  1  -0.449281  -0.026581  3.279439  -0.033  -0.382192  -0.021462  3.576956  -0.017  -0.41229  -0.017436  3.592845  -0.011  -0.386751  -0.358859  -0.024904  3.564994  -0.023
N  N83  1  0.42707393  0.33376268  0.11203185  1  -0.450341  0.031542  3.279577  0.041  -0.383167  0.02852  3.576177  0.028  -0.412867  0.022639  3.592067  0.019  -0.387031  -0.360462  0.033962  3.564299  0.036
N  N84  1  0.09266972  0.66529467  0.55425631  1  -0.449786  -0.026555  3.278452  -0.033  -0.382355  -0.021454  3.576076  -0.017  -0.412435  -0.017433  3.591889  -0.011  -0.386776  -0.359021  -0.024894  3.564125  -0.023
N  N85  1  0.57306604  0.90669297  0.22124939  1  -0.449918  0.031522  3.278161  0.041  -0.382607  0.028494  3.575544  0.028  -0.412268  0.022619  3.591348  0.019  -0.387183  -0.359897  0.033925  3.563623  0.036
N  N86  1  0.33483272  0.42748746  0.88762964  1  -0.449678  0.026935  3.280357  0.034  -0.382505  0.02192  3.577516  0.018  -0.412493  0.017717  3.593379  0.011  -0.387521  -0.3594  0.025637  3.565706  0.023
