# generated using pymatgen
data_V2NiH21C15(NO)6
_symmetry_space_group_name_H-M   'P 1'
_cell_length_a   8.99086251
_cell_length_b   10.53655671
_cell_length_c   11.80672362
_cell_angle_alpha   87.50465472
_cell_angle_beta   81.64585181
_cell_angle_gamma   85.13549925
_symmetry_Int_Tables_number   1
_chemical_formula_structural   V2NiH21C15(NO)6
_chemical_formula_sum   'V4 Ni2 H42 C30 N12 O12'
_cell_volume   1102.07590613
_cell_formula_units_Z   2
loop_
 _symmetry_equiv_pos_site_id
 _symmetry_equiv_pos_as_xyz
  1  'x, y, z'
loop_
 _atom_site_type_symbol
 _atom_site_label
 _atom_site_symmetry_multiplicity
 _atom_site_fract_x
 _atom_site_fract_y
 _atom_site_fract_z
 _atom_site_occupancy
 _atom_site_pbe_bader_charge
 _atom_site_pbe_bader_spin_density
 _atom_site_pbe_cm5_charge
 _atom_site_pbe_ddec_charge
 _atom_site_pbe_ddec_spin_density
 _atom_site_pbe_ddec_sum_bond_order
 _atom_site_pbe_magmom
V  V0  1  0.09190332  0.63690172  0.34958332  1  2.090609  0.05177  1.416581  1.945219  0.033307  3.49792  0.057
V  V1  1  0.90810750  0.36308948  0.65041925  1  2.090847  0.051775  1.416544  1.94526  0.033309  3.497745  0.057
V  V2  1  0.17434233  0.59826604  0.60177819  1  2.094973  0.040487  1.419819  1.943347  0.025652  3.458555  0.044
V  V3  1  0.82565349  0.40174137  0.39822460  1  2.094721  0.040476  1.419869  1.943369  0.025644  3.458758  0.044
Ni  Ni4  1  0.45993233  0.50334231  0.36783384  1  1.190436  1.525537  0.666256  0.88378  1.73568  2.526227  1.511
Ni  Ni5  1  0.54006506  0.49666033  0.63216981  1  1.190363  1.525541  0.666256  0.883802  1.735688  2.526167  1.511
H  H6  1  0.73703170  0.67870859  0.38975617  1  0.15168  0.000647  0.119485  0.112284  0.000109  1.061565  0.001
H  H7  1  0.26296811  0.32129215  0.61024389  1  0.151679  0.000648  0.119492  0.112299  0.000109  1.061528  0.001
H  H8  1  0.76054840  0.90634430  0.26321892  1  0.119628  0.000839  0.129469  0.140301  0.000358  0.985735  0.0
H  H9  1  0.23945141  0.09365644  0.73678199  1  0.119638  0.000839  0.129487  0.140325  0.000358  0.985725  0.0
H  H10  1  0.16886709  0.34837735  0.36004528  1  0.171684  0.000512  0.138127  0.095755  4.1e-05  1.056372  0.0
H  H11  1  0.83113281  0.65162244  0.63995565  1  0.171679  0.000512  0.138118  0.095776  4.1e-05  1.056363  0.0
H  H12  1  0.46650302  0.85992802  0.02464585  1  0.027367  1.1e-05  0.09753  0.09446  -2e-06  0.992772  0.0
H  H13  1  0.53350025  0.14007177  0.97535301  1  0.027345  1.1e-05  0.097539  0.094462  -2e-06  0.992837  0.0
H  H14  1  0.64719185  0.91798291  0.01326049  1  0.035384  1e-05  0.098219  0.095587  -0.0  0.966128  0.0
H  H15  1  0.35281030  0.08201687  0.98674019  1  0.035419  1e-05  0.098234  0.095594  -0.0  0.966114  0.0
H  H16  1  0.33089291  0.77128610  0.25389123  1  0.176354  0.000368  0.130741  0.099894  -3.4e-05  1.060566  0.0
H  H17  1  0.66910690  0.22871464  0.74610883  1  0.176342  0.000368  0.130731  0.09988  -3.4e-05  1.060587  0.0
H  H18  1  0.16115820  0.00904373  0.32072314  1  0.051493  0.000224  0.105946  0.086544  0.000105  0.984231  0.0
H  H19  1  0.83884178  0.99095511  0.67927613  1  0.0515  0.000224  0.105945  0.086533  0.000105  0.984254  0.0
H  H20  1  0.04437978  0.15135177  0.35355102  1  0.110835  5.8e-05  0.115554  0.10471  1.4e-05  0.998156  0.0
H  H21  1  0.95562012  0.84864802  0.64644822  1  0.110834  5.8e-05  0.11556  0.10471  1.4e-05  0.998148  0.0
H  H22  1  0.43241361  0.00609135  0.41809084  1  0.116573  0.000978  0.120134  0.119919  0.000423  1.035753  0.001
H  H23  1  0.56758629  0.99390844  0.58190840  1  0.116571  0.000978  0.120128  0.1199  0.000424  1.035761  0.001
H  H24  1  0.48901540  0.28704307  0.17056290  1  0.076378  0.001131  0.112058  0.098001  0.000366  1.03936  0.001
H  H25  1  0.51098198  0.71295958  0.82943821  1  0.07638  0.001131  0.112073  0.09802  0.000366  1.039428  0.001
H  H26  1  0.68791258  0.63591418  0.16061736  1  0.158567  0.000547  0.131065  0.089514  3.3e-05  1.053  0.0
H  H27  1  0.31208947  0.36408656  0.83938245  1  0.158576  0.000547  0.131101  0.089515  3.3e-05  1.053029  0.0
H  H28  1  0.60845644  0.21229296  0.41329721  1  0.123084  0.00087  0.118086  0.104658  0.000236  1.040836  0.001
H  H29  1  0.39154467  0.78770587  0.58670108  1  0.123082  0.00087  0.118128  0.104689  0.000236  1.04076  0.001
H  H30  1  0.66680212  0.32082712  0.95732633  1  0.116354  0.001232  0.123219  0.122508  0.000515  1.017275  0.001
H  H31  1  0.33319544  0.67917363  0.04267398  1  0.116331  0.001232  0.123206  0.122483  0.000515  1.017288  0.001
H  H32  1  0.06286328  0.10190732  0.56469802  1  0.048238  6e-06  0.094372  0.09393  -1.9e-05  1.013488  0.0
H  H33  1  0.93713661  0.89809247  0.43530122  1  0.048232  6e-06  0.094384  0.093963  -1.9e-05  1.013439  0.0
H  H34  1  0.15766331  0.95142376  0.52534304  1  0.036839  9e-06  0.092871  0.090565  -8e-06  0.984019  0.0
H  H35  1  0.84233650  0.04857698  0.47465617  1  0.036834  9e-06  0.092863  0.090566  -8e-06  0.983996  0.0
H  H36  1  0.55866024  0.05745011  0.18030208  1  0.090765  9.2e-05  0.11545  0.095761  4.1e-05  0.980933  0.0
H  H37  1  0.44133957  0.94255063  0.81969882  1  0.090768  9.2e-05  0.11544  0.095768  4.1e-05  0.980978  0.0
H  H38  1  0.37453560  0.00752897  0.18715696  1  0.06244  9.7e-05  0.113275  0.089903  2.4e-05  0.985056  0.0
H  H39  1  0.62546439  0.99246986  0.81284315  1  0.062438  9.7e-05  0.113283  0.08991  2.4e-05  0.985067  0.0
H  H40  1  0.80307720  0.65289207  0.95630023  1  0.033931  -1e-06  0.109724  0.086477  -1.5e-05  0.965413  0.0
H  H41  1  0.19692503  0.34710676  0.04369963  1  0.033927  -1e-06  0.109729  0.086488  -1.5e-05  0.965392  0.0
H  H42  1  0.77104725  0.53577986  0.86012225  1  0.126109  0.00024  0.11203  0.104531  7.9e-05  1.013188  0.0
H  H43  1  0.22895264  0.46421993  0.13987783  1  0.126123  0.00024  0.112029  0.104527  7.9e-05  1.013204  0.0
H  H44  1  0.04122043  0.53585361  0.87149483  1  0.086572  0.000125  0.09719  0.104008  3.4e-05  1.010696  0.0
H  H45  1  0.95877843  0.46414523  0.12850625  1  0.086557  0.000125  0.097192  0.104025  3.4e-05  1.010778  0.0
H  H46  1  0.97450941  0.38895932  0.92551743  1  0.020212  2.9e-05  0.09315  0.091144  5e-06  0.991777  0.0
H  H47  1  0.02549066  0.61103856  0.07448271  1  0.020247  2.9e-05  0.093152  0.091138  5e-06  0.991786  0.0
C  C48  1  0.65533845  0.73244436  0.34413768  1  0.407786  0.00025  0.00249  -0.022455  -0.000679  3.995864  0.0
C  C49  1  0.34466154  0.26755447  0.65586243  1  0.407767  0.000251  0.002481  -0.022475  -0.000678  3.995971  0.0
C  C50  1  0.66881441  0.84473745  0.28121977  1  0.279309  0.00304  -0.001908  -0.125851  0.001766  3.918304  0.002
C  C51  1  0.33118531  0.15526425  0.71877942  1  0.279294  0.003039  -0.001922  -0.125873  0.001766  3.91842  0.002
C  C52  1  0.26559504  0.28488193  0.37516696  1  0.94842  -0.002802  0.145196  0.092715  -0.003638  3.888863  -0.001
C  C53  1  0.73440598  0.71511786  0.62483215  1  0.948283  -0.002802  0.145148  0.092601  -0.003638  3.888876  -0.001
C  C54  1  0.52577609  0.94420413  0.03757871  1  -0.022799  0.000171  -0.159988  -0.162664  0.000104  3.950226  0.0
C  C55  1  0.47422709  0.05579660  0.96242097  1  0.003894  0.000169  -0.160007  -0.162663  0.000104  3.950246  0.0
C  C56  1  0.44356627  0.77557799  0.27609445  1  0.933637  0.00101  0.136656  0.074307  -0.000102  3.903869  0.001
C  C57  1  0.55643579  0.22442275  0.72390536  1  0.933718  0.001011  0.136643  0.074278  -0.000101  3.903877  0.001
C  C58  1  0.13215815  0.08471747  0.38350047  1  0.292717  0.001079  -0.049864  -0.061017  0.000682  3.872933  0.001
C  C59  1  0.86784278  0.91528327  0.61649946  1  0.29262  0.001079  -0.049884  -0.061025  0.000682  3.872999  0.001
C  C60  1  0.40555134  0.10734225  0.40543749  1  0.221166  0.00318  -0.008916  -0.134472  0.001684  3.958901  0.002
C  C61  1  0.59444864  0.89265659  0.59456092  1  0.221188  0.00318  -0.008875  -0.134368  0.001684  3.959013  0.002
C  C62  1  0.55552680  0.36475064  0.13705541  1  0.426219  0.000128  -0.003676  -0.02729  -0.000556  4.016844  0.0
C  C63  1  0.44447413  0.63525010  0.86294453  1  0.426227  0.000127  -0.003699  -0.027355  -0.000556  4.016911  0.0
C  C64  1  0.65309859  0.54624856  0.13623792  1  0.957469  -0.00279  0.138992  0.081071  -0.003645  3.9351  -0.001
C  C65  1  0.34690019  0.45375123  0.86376314  1  0.957467  -0.00279  0.138947  0.081035  -0.003645  3.93505  -0.001
C  C66  1  0.49082393  0.20992953  0.40369550  1  0.472717  -0.000365  0.001086  -0.025682  -0.00089  3.999336  0.0
C  C67  1  0.50917615  0.79006836  0.59630463  1  0.472711  -0.000365  0.001042  -0.025762  -0.00089  3.999359  0.0
C  C68  1  0.64228277  0.37943510  0.03193441  1  0.304929  0.003787  -0.000588  -0.108162  0.00208  3.920362  0.003
C  C69  1  0.35771583  0.62056660  0.96806660  1  0.304933  0.003787  -0.000547  -0.108074  0.00208  3.920216  0.003
C  C70  1  0.07542558  0.02743372  0.50081711  1  -0.032367  2.9e-05  -0.161668  -0.152401  -2.1e-05  3.914864  0.0
C  C71  1  0.92457431  0.97256606  0.49918213  1  -0.005877  2.8e-05  -0.161647  -0.152397  -2.1e-05  3.914831  0.0
C  C72  1  0.49477256  0.97766449  0.16346765  1  0.28417  0.001  -0.049865  -0.066233  0.000621  3.918237  0.001
C  C73  1  0.50522734  0.02233530  0.83653243  1  0.284165  0.001  -0.049857  -0.066271  0.000621  3.918218  0.001
C  C74  1  0.80950061  0.54987948  0.94252005  1  0.288552  0.001219  -0.049993  -0.063476  0.000767  3.877309  0.001
C  C75  1  0.19049807  0.45012126  0.05748013  1  0.288527  0.001219  -0.049978  -0.063473  0.000767  3.877353  0.001
C  C76  1  0.97041049  0.49107826  0.94367293  1  -0.032334  6.3e-05  -0.166196  -0.177318  9e-06  3.936663  0.0
C  C77  1  0.02958958  0.50891962  0.05632721  1  -0.057986  6.3e-05  -0.166245  -0.177377  9e-06  3.936811  0.0
N  N78  1  0.51504082  0.69002610  0.34002583  1  -1.178166  0.057683  -0.346228  -0.276357  0.033407  3.562627  0.05
N  N79  1  0.48496038  0.30997178  0.65997418  1  -1.178246  0.057683  -0.346202  -0.276315  0.033406  3.562621  0.05
N  N80  1  0.53318791  0.87122268  0.23933365  1  -1.256791  0.002605  -0.253996  0.023574  0.001023  3.822837  0.002
N  N81  1  0.46681190  0.12877806  0.76066641  1  -1.256749  0.002605  -0.25399  0.023598  0.001023  3.822613  0.002
N  N82  1  0.56306164  0.46956853  0.20146728  1  -1.182707  0.085912  -0.341708  -0.286015  0.049292  3.595572  0.076
N  N83  1  0.43693817  0.53043222  0.79853278  1  -1.182616  0.085907  -0.34167  -0.285941  0.049288  3.595494  0.076
N  N84  1  0.70259728  0.49527490  0.03294069  1  -1.232144  0.00202  -0.244133  0.048052  0.000588  3.787634  0.002
N  N85  1  0.29740262  0.50472489  0.96706109  1  -1.232142  0.00202  -0.244175  0.048018  0.000587  3.7875  0.002
N  N86  1  0.40183349  0.32003840  0.38550128  1  -1.190898  0.066821  -0.349781  -0.266675  0.038875  3.579955  0.059
N  N87  1  0.59816640  0.67996139  0.61449796  1  -1.190859  0.066822  -0.349762  -0.266637  0.038874  3.580012  0.059
N  N88  1  0.26369269  0.15630921  0.38607202  1  -1.243706  0.001824  -0.246597  0.038007  0.000617  3.79269  0.001
N  N89  1  0.73630711  0.84369153  0.61392635  1  -1.243475  0.001824  -0.246616  0.037997  0.000617  3.79285  0.001
O  O90  1  0.07278855  0.75954421  0.26038851  1  -0.893066  -0.003232  -0.644177  -0.802316  -0.004615  1.409504  -0.004
O  O91  1  0.92721396  0.24045176  0.73961397  1  -0.893133  -0.00323  -0.644122  -0.802266  -0.004614  1.409532  -0.004
O  O92  1  0.94119665  0.53241547  0.35904105  1  -1.073926  -0.000126  -0.703072  -1.022272  -0.001191  1.958006  -0.001
O  O93  1  0.05879658  0.46758338  0.64095643  1  -1.073914  -0.000126  -0.703078  -1.022319  -0.001191  1.958064  -0.001
O  O94  1  0.16613106  0.68878217  0.71122585  1  -0.842381  0.01683  -0.617871  -0.748585  0.00871  1.447947  0.013
O  O95  1  0.83386848  0.31122142  0.28877667  1  -0.842279  0.016833  -0.61784  -0.748547  0.008712  1.447913  0.013
O  O96  1  0.09779499  0.69468251  0.49098259  1  -1.040108  0.006282  -0.687401  -0.970678  0.003112  1.907855  0.003
O  O97  1  0.90220030  0.30531824  0.50901035  1  -1.040137  0.006281  -0.687448  -0.970715  0.003112  1.907789  0.003
O  O98  1  0.25887953  0.55468755  0.31258471  1  -0.95236  0.03593  -0.613783  -0.871434  0.02106  1.959379  0.031
O  O99  1  0.74112288  0.44530938  0.68741435  1  -0.952509  0.035934  -0.613744  -0.871446  0.021063  1.959212  0.031
O  O100  1  0.35610513  0.54143424  0.55244205  1  -0.973555  0.092623  -0.593375  -0.879157  0.053989  2.050997  0.079
O  O101  1  0.64388559  0.45856746  0.44755984  1  -0.973595  0.092647  -0.593425  -0.879249  0.054002  2.051123  0.079
