# generated using pymatgen
data_ZnH9C14NO5
_symmetry_space_group_name_H-M   'P 1'
_cell_length_a   8.79008678
_cell_length_b   10.14833837
_cell_length_c   15.45004392
_cell_angle_alpha   90.00030340
_cell_angle_beta   89.99964196
_cell_angle_gamma   90.00009657
_symmetry_Int_Tables_number   1
_chemical_formula_structural   ZnH9C14NO5
_chemical_formula_sum   'Zn4 H36 C56 N4 O20'
_cell_volume   1378.21769059
_cell_formula_units_Z   4
loop_
 _symmetry_equiv_pos_site_id
 _symmetry_equiv_pos_as_xyz
  1  'x, y, z'
loop_
 _atom_site_type_symbol
 _atom_site_label
 _atom_site_symmetry_multiplicity
 _atom_site_fract_x
 _atom_site_fract_y
 _atom_site_fract_z
 _atom_site_occupancy
 _atom_site_pbe_bader_spin_density
 _atom_site_pbe_cm5_charge
 _atom_site_pbe_ddec_charge
 _atom_site_pbe_ddec_spin_density
 _atom_site_pbe_ddec_sum_bond_order
 _atom_site_pbe_magmom
Zn  Zn0  1  0.73052854  0.36141411  0.91012295  1  0  0.695905  0.857028  0  2.291663  0
Zn  Zn1  1  0.73053103  0.63858523  0.08987593  1  0  0.695949  0.857051  0  2.291653  0
Zn  Zn2  1  0.26947077  0.13858217  0.41012351  1  0  0.695919  0.857028  0  2.291621  0
Zn  Zn3  1  0.26947163  0.86141256  0.58987701  1  0  0.695909  0.857062  0  2.291594  0
H  H4  1  0.74506916  0.87558803  0.93209657  1  0  0.108695  0.122556  0  1.019231  0
H  H5  1  0.74507089  0.12441428  0.06790290  1  0  0.108697  0.122573  0  1.019243  0
H  H6  1  0.25492519  0.62440858  0.43210037  1  0  0.108652  0.12251  0  1.019285  0
H  H7  1  0.25493103  0.37558514  0.56789891  1  0  0.108684  0.122573  0  1.019251  0
H  H8  1  0.36652551  0.08274324  0.82222110  1  0  0.107498  0.121912  0  1.029474  0
H  H9  1  0.36652532  0.91725459  0.17777649  1  0  0.107526  0.121978  0  1.029498  0
H  H10  1  0.63347248  0.41725332  0.32222587  1  0  0.107515  0.121927  0  1.029521  0
H  H11  1  0.63347524  0.58274194  0.67777466  1  0  0.107518  0.121947  0  1.029544  0
H  H12  1  0.37305048  0.65617898  0.82023892  1  0  0.109177  0.127817  0  1.011887  0
H  H13  1  0.37305596  0.34381886  0.17976253  1  0  0.109102  0.127679  0  1.011919  0
H  H14  1  0.62694283  0.84381575  0.32024216  1  0  0.109089  0.127678  0  1.011965  0
H  H15  1  0.62694473  0.15618147  0.67975904  1  0  0.109123  0.127771  0  1.011896  0
H  H16  1  0.18995432  0.05171206  0.73560284  1  0  0.109022  0.087798  0  1.003713  0
H  H17  1  0.18994869  0.94828945  0.26439926  1  0  0.108994  0.087758  0  1.003734  0
H  H18  1  0.81004576  0.44829463  0.23560320  1  0  0.109025  0.087808  0  1.003745  0
H  H19  1  0.81004865  0.55171074  0.76439346  1  0  0.109009  0.087781  0  1.003759  0
H  H20  1  0.07282623  0.99977690  0.82434619  1  0  0.117207  0.110074  0  0.949528  0
H  H21  1  0.07282084  0.00022444  0.17565503  1  0  0.11721  0.110035  0  0.949466  0
H  H22  1  0.92717841  0.50021687  0.32434716  1  0  0.117187  0.110014  0  0.949444  0
H  H23  1  0.92718103  0.49977782  0.67565296  1  0  0.117189  0.110009  0  0.949547  0
H  H24  1  0.81738335  0.97299556  0.78498053  1  0  0.10626  0.1223  0  1.063372  0
H  H25  1  0.81738213  0.02699997  0.21502517  1  0  0.106243  0.122307  0  1.063313  0
H  H26  1  0.18261604  0.52700283  0.28497842  1  0  0.106246  0.122311  0  1.06336  0
H  H27  1  0.18261476  0.47299276  0.71501853  1  0  0.106242  0.122274  0  1.063353  0
H  H28  1  0.61850186  0.89227438  0.67826648  1  0  0.111255  0.120038  0  1.013654  0
H  H29  1  0.61849849  0.10772381  0.32173604  1  0  0.111312  0.120084  0  1.013713  0
H  H30  1  0.38149983  0.60772117  0.17826783  1  0  0.111302  0.120105  0  1.013694  0
H  H31  1  0.38149837  0.39227963  0.82172971  1  0  0.111284  0.120068  0  1.013737  0
H  H32  1  0.70593401  0.80712593  0.53484782  1  0  0.111836  0.123582  0  0.99579  0
H  H33  1  0.70592696  0.19288717  0.46515310  1  0  0.11181  0.123528  0  0.995852  0
H  H34  1  0.29407381  0.69287536  0.03484912  1  0  0.111827  0.123581  0  0.995755  0
H  H35  1  0.29407401  0.30713320  0.96515131  1  0  0.111872  0.123641  0  0.995767  0
H  H36  1  0.98727612  0.80632686  0.50244029  1  0  0.125856  0.10761  0  0.976876  0
H  H37  1  0.98726985  0.19368270  0.49756027  1  0  0.125861  0.107584  0  0.976919  0
H  H38  1  0.01273433  0.69367516  0.00244130  1  0  0.125869  0.107633  0  0.976886  0
H  H39  1  0.01273190  0.30633103  0.99756013  1  0  0.12578  0.107512  0  0.976827  0
C  C40  1  0.64510873  0.62859176  0.90699154  1  0  0.215749  0.583494  0  4.166999  0
C  C41  1  0.64510839  0.37140844  0.09300829  1  0  0.215728  0.583368  0  4.167429  0
C  C42  1  0.35489387  0.87140859  0.40699196  1  0  0.215767  0.583445  0  4.167272  0
C  C43  1  0.35489098  0.12859020  0.59300567  1  0  0.215792  0.583537  0  4.167142  0
C  C44  1  0.56548975  0.75218227  0.88103016  1  0  -0.023313  -0.032094  0  4.021876  0
C  C45  1  0.56548775  0.24781486  0.11896996  1  0  -0.023279  -0.03207  0  4.022012  0
C  C46  1  0.43450858  0.74781590  0.38103181  1  0  -0.023234  -0.031896  0  4.021738  0
C  C47  1  0.43451133  0.25218400  0.61896619  1  0  -0.023209  -0.031955  0  4.021799  0
C  C48  1  0.63503743  0.87276569  0.89996611  1  0  -0.086627  -0.133096  0  3.956149  0
C  C49  1  0.63504109  0.12723450  0.10003311  1  0  -0.086629  -0.133144  0  3.956031  0
C  C50  1  0.36495273  0.62722771  0.39996888  1  0  -0.086599  -0.133178  0  3.956007  0
C  C51  1  0.36496048  0.37276716  0.60003001  1  0  -0.086631  -0.133203  0  3.956118  0
C  C52  1  0.56371073  0.99040057  0.87711796  1  0  -0.016566  -0.00569  0  3.986464  0
C  C53  1  0.56371049  0.00959853  0.12288281  1  0  -0.016522  -0.005503  0  3.986248  0
C  C54  1  0.43628536  0.50959659  0.37711878  1  0  -0.01648  -0.005473  0  3.986391  0
C  C55  1  0.43629082  0.49040035  0.62287921  1  0  -0.01654  -0.005505  0  3.986253  0
C  C56  1  0.41995696  0.98907201  0.83790668  1  0  -0.092041  -0.210467  0  3.930554  0
C  C57  1  0.41995857  0.01092393  0.16209201  1  0  -0.092117  -0.21063  0  3.930712  0
C  C58  1  0.58003729  0.51092188  0.33791022  1  0  -0.092184  -0.210655  0  3.930661  0
C  C59  1  0.58004345  0.48907626  0.66208855  1  0  -0.092165  -0.210623  0  3.930664  0
C  C60  1  0.35296558  0.86810035  0.81713901  1  0  0.082697  0.254767  0  4.058426  0
C  C61  1  0.35296720  0.13189746  0.18285992  1  0  0.082722  0.254722  0  4.058379  0
C  C62  1  0.64703004  0.63189633  0.31714468  1  0  0.08276  0.25483  0  4.057999  0
C  C63  1  0.64703118  0.36810191  0.68285450  1  0  0.082784  0.25484  0  4.058124  0
C  C64  1  0.42578033  0.74945446  0.83786353  1  0  -0.087331  -0.189567  0  3.916289  0
C  C65  1  0.42578355  0.25054543  0.16213579  1  0  -0.087253  -0.189356  0  3.916242  0
C  C66  1  0.57421164  0.75054140  0.33786858  1  0  -0.087262  -0.189449  0  3.916402  0
C  C67  1  0.57421734  0.24945476  0.66213151  1  0  -0.087346  -0.189594  0  3.916396  0
C  C68  1  0.12303765  0.96936875  0.76221160  1  0  -0.05643  -0.059555  0  3.890619  0
C  C69  1  0.12303733  0.03063365  0.23779333  1  0  -0.056325  -0.059315  0  3.890687  0
C  C70  1  0.87695857  0.53063339  0.26221027  1  0  -0.056367  -0.059405  0  3.890586  0
C  C71  1  0.87696273  0.46936616  0.73778680  1  0  -0.056388  -0.059408  0  3.89068  0
C  C72  1  0.00128034  0.92915296  0.69932648  1  0  0.122044  0.236299  0  3.941827  0
C  C73  1  0.00127941  0.07084927  0.30067499  1  0  0.121965  0.23598  0  3.942091  0
C  C74  1  0.99871998  0.57085261  0.19932939  1  0  0.12199  0.236195  0  3.94177  0
C  C75  1  0.99871882  0.42914908  0.80067177  1  0  0.122031  0.236237  0  3.941877  0
C  C76  1  0.84807164  0.93493885  0.72143431  1  0  -0.081805  -0.174297  0  3.916933  0
C  C77  1  0.84806980  0.06506066  0.27856933  1  0  -0.081758  -0.174201  0  3.91679  0
C  C78  1  0.15192503  0.56506395  0.22143503  1  0  -0.081784  -0.174253  0  3.916816  0
C  C79  1  0.15192526  0.43493357  0.77856397  1  0  -0.081761  -0.174186  0  3.916897  0
C  C80  1  0.73921179  0.89076085  0.66241000  1  0  -0.058713  -0.0049  0  3.924336  0
C  C81  1  0.73920484  0.10924047  0.33759403  1  0  -0.058734  -0.004919  0  3.92433  0
C  C82  1  0.26079349  0.60924147  0.16240919  1  0  -0.058744  -0.005014  0  3.92442  0
C  C83  1  0.26079299  0.39076015  0.83758748  1  0  -0.058732  -0.005009  0  3.924478  0
C  C84  1  0.78757575  0.84352426  0.58219906  1  0  -0.078211  -0.126799  0  3.952414  0
C  C85  1  0.78757143  0.15648304  0.41780221  1  0  -0.078199  -0.126749  0  3.952325  0
C  C86  1  0.21242813  0.65647840  0.08220247  1  0  -0.078211  -0.126749  0  3.952334  0
C  C87  1  0.21242438  0.34352709  0.91779761  1  0  -0.078252  -0.126847  0  3.952529  0
C  C88  1  0.94261755  0.84198612  0.56391986  1  0  0.056565  0.107457  0  3.912655  0
C  C89  1  0.94261531  0.15802043  0.43608150  1  0  0.056563  0.107448  0  3.912753  0
C  C90  1  0.05738426  0.65801837  0.06392189  1  0  0.056574  0.10739  0  3.912721  0
C  C91  1  0.05738713  0.34198887  0.93607744  1  0  0.056661  0.107561  0  3.91273  0
C  C92  1  0.64868052  0.11664286  0.89054215  1  0  0.195768  0.555152  0  4.222894  0
C  C93  1  0.64868556  0.88335636  0.10945832  1  0  0.195832  0.555155  0  4.222857  0
C  C94  1  0.35131558  0.38335523  0.39054456  1  0  0.195725  0.555126  0  4.222852  0
C  C95  1  0.35132030  0.61664455  0.60945502  1  0  0.19579  0.55506  0  4.222964  0
N  N96  1  0.04734398  0.88364868  0.62145729  1  0  -0.323777  -0.271137  0  3.557757  0
N  N97  1  0.04733887  0.11635559  0.37854661  1  0  -0.323776  -0.270941  0  3.557827  0
N  N98  1  0.95265834  0.61635824  0.12145664  1  0  -0.323742  -0.270987  0  3.557755  0
N  N99  1  0.95265737  0.38364734  0.87854340  1  0  -0.323778  -0.271069  0  3.557779  0
O  O100  1  0.75749983  0.63687124  0.95911807  1  0  -0.329281  -0.581601  0  2.388186  0
O  O101  1  0.75750005  0.36312420  0.04087943  1  0  -0.329305  -0.581589  0  2.388301  0
O  O102  1  0.24249537  0.86312954  0.45912145  1  0  -0.329276  -0.581621  0  2.38818  0
O  O103  1  0.24249762  0.13687008  0.54088047  1  0  -0.329306  -0.581638  0  2.388235  0
O  O104  1  0.60087146  0.51881698  0.87483230  1  0  -0.30621  -0.529832  0  2.315573  0
O  O105  1  0.60087326  0.48118020  0.12516511  1  0  -0.306205  -0.529784  0  2.315882  0
O  O106  1  0.39913262  0.98117721  0.37483617  1  0  -0.306242  -0.529822  0  2.315811  0
O  O107  1  0.39913486  0.01881771  0.62516130  1  0  -0.306273  -0.529912  0  2.315728  0
O  O108  1  0.21766111  0.85482204  0.77351281  1  0  -0.18036  -0.209577  0  2.561297  0
O  O109  1  0.21765773  0.14517459  0.22648660  1  0  -0.18044  -0.209647  0  2.561409  0
O  O110  1  0.78234295  0.64517724  0.27352193  1  0  -0.180453  -0.209745  0  2.561037  0
O  O111  1  0.78234473  0.35482316  0.72648065  1  0  -0.180432  -0.209696  0  2.561088  0
O  O112  1  0.79033662  0.11357847  0.90138134  1  0  -0.323082  -0.554694  0  2.138207  0
O  O113  1  0.79034293  0.88642293  0.09862186  1  0  -0.32314  -0.554758  0  2.138273  0
O  O114  1  0.20965367  0.38641478  0.40138492  1  0  -0.323107  -0.554807  0  2.138321  0
O  O115  1  0.20966533  0.61358380  0.59861582  1  0  -0.323123  -0.554689  0  2.138311  0
O  O116  1  0.57138789  0.22567740  0.88836384  1  0  -0.331769  -0.554559  0  2.273913  0
O  O117  1  0.57138927  0.77432171  0.11163432  1  0  -0.331808  -0.554605  0  2.273894  0
O  O118  1  0.42861393  0.27431871  0.38836689  1  0  -0.331767  -0.554574  0  2.27385  0
O  O119  1  0.42861884  0.72567823  0.61163371  1  0  -0.331769  -0.554554  0  2.273889  0
