# generated using pymatgen
data_ZnH20C26(NO3)2
_symmetry_space_group_name_H-M   'P 1'
_cell_length_a   9.39293633
_cell_length_b   11.70798125
_cell_length_c   12.89700000
_cell_angle_alpha   115.85663277
_cell_angle_beta   90.00000000
_cell_angle_gamma   113.64904068
_symmetry_Int_Tables_number   1
_chemical_formula_structural   ZnH20C26(NO3)2
_chemical_formula_sum   'Zn2 H40 C52 N4 O12'
_cell_volume   1142.50446197
_cell_formula_units_Z   2
loop_
 _symmetry_equiv_pos_site_id
 _symmetry_equiv_pos_as_xyz
  1  'x, y, z'
loop_
 _atom_site_type_symbol
 _atom_site_label
 _atom_site_symmetry_multiplicity
 _atom_site_fract_x
 _atom_site_fract_y
 _atom_site_fract_z
 _atom_site_occupancy
 _atom_site_hle17_bader_spin_density
 _atom_site_hle17_ddec_charge
 _atom_site_hle17_ddec_spin_density
 _atom_site_hle17_ddec_sum_bond_order
 _atom_site_hle17_magmom
 _atom_site_hse06_10hf_bader_spin_density
 _atom_site_hse06_10hf_ddec_charge
 _atom_site_hse06_10hf_ddec_spin_density
 _atom_site_hse06_10hf_ddec_sum_bond_order
 _atom_site_hse06_10hf_magmom
 _atom_site_hse06_bader_spin_density
 _atom_site_hse06_ddec_charge
 _atom_site_hse06_ddec_spin_density
 _atom_site_hse06_ddec_sum_bond_order
 _atom_site_hse06_magmom
 _atom_site_pbe_bader_charge
 _atom_site_pbe_bader_spin_density
 _atom_site_pbe_cm5_charge
 _atom_site_pbe_ddec_charge
 _atom_site_pbe_ddec_spin_density
 _atom_site_pbe_ddec_sum_bond_order
 _atom_site_pbe_magmom
Zn  Zn0  1  0.46610072  0.00003075  0.25018121  1  0  0.98617  0  1.858876  0  0  0.793251  0  2.328052  0  0  0.843185  0  2.272322  0  1.256381  0  0.687872  0.757649  0  2.366566  0
Zn  Zn1  1  0.53389762  0.99996724  0.74981831  1  0  0.986174  0  1.858873  0  0  0.793257  0  2.328044  0  0  0.843194  0  2.272319  0  1.256322  0  0.687884  0.757657  0  2.36656  0
H  H2  1  0.76588937  0.37024695  0.56035479  1  0  0.117885  0  0.970145  0  0  0.12627  0  1.035996  0  0  0.129944  0  1.033577  0  0.097964  0  0.108997  0.12345  0  1.038259  0
H  H3  1  0.39556387  0.62972242  0.93961944  1  0  0.117889  0  0.969254  0  0  0.125955  0  1.035534  0  0  0.129658  0  1.03305  0  0.101956  0  0.108985  0.123121  0  1.037821  0
H  H4  1  0.23410898  0.62975105  0.43964473  1  0  0.117898  0  0.970113  0  0  0.126279  0  1.035966  0  0  0.129954  0  1.033546  0  0.097978  0  0.108997  0.12346  0  1.038228  0
H  H5  1  0.60443554  0.37027557  0.06037930  1  0  0.117834  0  0.96931  0  0  0.12592  0  1.035565  0  0  0.129622  0  1.033082  0  0.102136  0  0.108969  0.123087  0  1.03785  0
H  H6  1  0.23421286  0.47278936  0.23537466  1  0  0.063208  0  0.904306  0  0  0.07994  0  0.963459  0  0  0.079828  0  0.963309  0  0.078933  0  0.103855  0.079996  0  0.963623  0
H  H7  1  0.76164419  0.52767516  0.26488090  1  0  0.063413  0  0.904111  0  0  0.079861  0  0.96349  0  0  0.079782  0  0.963333  0  0.051038  0  0.103908  0.079912  0  0.963673  0
H  H8  1  0.76578974  0.52721075  0.76462725  1  0  0.063246  0  0.904378  0  0  0.079966  0  0.963522  0  0  0.079856  0  0.963365  0  0.078783  0  0.103863  0.080021  0  0.963687  0
H  H9  1  0.23835362  0.47232177  0.73511742  1  0  0.063425  0  0.904039  0  0  0.079864  0  0.963437  0  0  0.079786  0  0.96328  0  0.051041  0  0.103887  0.079913  0  0.963617  0
H  H10  1  0.14445868  0.58821135  0.26849054  1  0  0.053319  0  0.941783  0  0  0.069832  0  1.007295  0  0  0.068964  0  1.007825  0  0.097116  0  0.102451  0.070674  0  1.006416  0
H  H11  1  0.55659445  0.41196478  0.23170356  1  0  0.053836  0  0.941296  0  0  0.070021  0  1.007079  0  0  0.06915  0  1.007662  0  0.066502  0  0.102551  0.070862  0  1.006208  0
H  H12  1  0.85554232  0.41178983  0.73151179  1  0  0.053313  0  0.941834  0  0  0.069804  0  1.007356  0  0  0.068931  0  1.007888  0  0.097136  0  0.102438  0.070646  0  1.006477  0
H  H13  1  0.44340337  0.58803428  0.76829482  1  0  0.053849  0  0.941289  0  0  0.070047  0  1.007057  0  0  0.069186  0  1.007631  0  0.06653  0  0.102558  0.070884  0  1.006184  0
H  H14  1  0.14955766  0.47022554  0.04955151  1  0  0.081729  0  0.967203  0  0  0.095334  0  1.0234  0  0  0.096098  0  1.025633  0  0.060342  0  0.095841  0.094693  0  1.022055  0
H  H15  1  0.67944407  0.53005344  0.45065075  1  0  0.081827  0  0.967571  0  0  0.095191  0  1.023978  0  0  0.096017  0  1.026143  0  0.05343  0  0.095933  0.094507  0  1.022682  0
H  H16  1  0.85044866  0.52977776  0.95045011  1  0  0.081712  0  0.96717  0  0  0.095331  0  1.023351  0  0  0.096096  0  1.025583  0  0.060262  0  0.095804  0.09469  0  1.022006  0
H  H17  1  0.32055428  0.46994456  0.54934799  1  0  0.081834  0  0.967572  0  0  0.095207  0  1.02397  0  0  0.096031  0  1.026138  0  0.053578  0  0.095934  0.094521  0  1.022675  0
H  H18  1  0.82738197  0.26888041  0.06917412  1  0  0.142823  0  0.967401  0  0  0.151835  0  1.033916  0  0  0.155894  0  1.030906  0  0.088047  0  0.096021  0.148804  0  1.036308  0
H  H19  1  0.55814613  0.73104230  0.43082660  1  0  0.143091  0  0.967103  0  0  0.152085  0  1.033676  0  0  0.156141  0  1.030623  0  0.091763  0  0.096227  0.149059  0  1.036078  0
H  H20  1  0.17262276  0.73112183  0.93082630  1  0  0.142822  0  0.967447  0  0  0.151885  0  1.0339  0  0  0.155945  0  1.03089  0  0.087757  0  0.096055  0.148853  0  1.036294  0
H  H21  1  0.44185221  0.26895569  0.56917214  1  0  0.143075  0  0.967097  0  0  0.15207  0  1.033667  0  0  0.156125  0  1.030617  0  0.091752  0  0.096231  0.149045  0  1.036069  0
H  H22  1  0.88252348  0.28686006  0.93586837  1  0  0.117652  0  0.973532  0  0  0.13082  0  1.035697  0  0  0.133126  0  1.035935  0  0.03337  0  0.087154  0.129142  0  1.035583  0
H  H23  1  0.59524882  0.71312309  0.56418109  1  0  0.117024  0  0.974581  0  0  0.130243  0  1.036798  0  0  0.132565  0  1.037041  0  0.030702  0  0.086814  0.128529  0  1.036715  0
H  H24  1  0.11748072  0.71314112  0.06413008  1  0  0.117619  0  0.973558  0  0  0.130785  0  1.035728  0  0  0.133091  0  1.035966  0  0.033216  0  0.087132  0.129108  0  1.035611  0
H  H25  1  0.40475006  0.28687384  0.43581568  1  0  0.116996  0  0.974565  0  0  0.130205  0  1.036803  0  0  0.132534  0  1.037037  0  0.030699  0  0.086799  0.128491  0  1.036718  0
H  H26  1  0.47386727  0.13576930  0.08075140  1  0  0.103788  0  0.927031  0  0  0.112752  0  0.987104  0  0  0.115725  0  0.983576  0  0.1751  0  0.126545  0.110545  0  0.989647  0
H  H27  1  0.33766213  0.86406328  0.41943773  1  0  0.103426  0  0.928104  0  0  0.112301  0  0.988205  0  0  0.115269  0  0.984706  0  0.151992  0  0.12663  0.110086  0  0.990745  0
H  H28  1  0.52613160  0.86422975  0.91924853  1  0  0.103786  0  0.927013  0  0  0.112748  0  0.987091  0  0  0.115722  0  0.983562  0  0.17509  0  0.126537  0.110541  0  0.989633  0
H  H29  1  0.66233515  0.13593683  0.58056340  1  0  0.10341  0  0.92811  0  0  0.112286  0  0.988213  0  0  0.115256  0  0.984712  0  0.151952  0  0.126614  0.110071  0  0.990754  0
H  H30  1  0.29071662  0.21083171  0.01643301  1  0  0.110214  0  0.96479  0  0  0.117392  0  1.028913  0  0  0.11994  0  1.02974  0  0.084016  0  0.106931  0.115616  0  1.028317  0
H  H31  1  0.07925391  0.78896377  0.48350804  1  0  0.11033  0  0.964078  0  0  0.117544  0  1.028209  0  0  0.120089  0  1.02904  0  0.102228  0  0.107116  0.115757  0  1.027655  0
H  H32  1  0.70928279  0.78916628  0.98356651  1  0  0.110243  0  0.964715  0  0  0.117418  0  1.028859  0  0  0.119961  0  1.029685  0  0.083575  0  0.106939  0.115641  0  1.028263  0
H  H33  1  0.92074071  0.21103529  0.51649267  1  0  0.110395  0  0.964087  0  0  0.117605  0  1.028211  0  0  0.12015  0  1.029041  0  0.102255  0  0.107135  0.115819  0  1.027657  0
H  H34  1  0.03260071  0.17095351  0.08466502  1  0  0.105735  0  0.953544  0  0  0.115363  0  1.015895  0  0  0.117821  0  1.015016  0  0.106988  0  0.110204  0.113588  0  1.016493  0
H  H35  1  0.86140772  0.82938590  0.41544331  1  0  0.105595  0  0.954572  0  0  0.115687  0  1.016152  0  0  0.118202  0  1.015287  0  0.10409  0  0.110387  0.113865  0  1.016787  0
H  H36  1  0.96739976  0.82904660  0.91533534  1  0  0.105739  0  0.953529  0  0  0.115368  0  1.015884  0  0  0.117828  0  1.015002  0  0.10699  0  0.110203  0.113591  0  1.016489  0
H  H37  1  0.13858902  0.17061527  0.58455591  1  0  0.105611  0  0.954558  0  0  0.115709  0  1.016125  0  0  0.118221  0  1.015262  0  0.10408  0  0.11039  0.113885  0  1.016762  0
H  H38  1  0.84002524  0.06404262  0.19087677  1  0  0.115852  0  0.957228  0  0  0.125431  0  1.017973  0  0  0.127985  0  1.017665  0  0.133349  0  0.109355  0.123183  0  1.018726  0
H  H39  1  0.77628100  0.93669440  0.30944946  1  0  0.116464  0  0.955279  0  0  0.125693  0  1.016588  0  0  0.128241  0  1.016304  0  0.120993  0  0.109412  0.123482  0  1.01728  0
H  H40  1  0.15997257  0.93595643  0.80912084  1  0  0.115931  0  0.957177  0  0  0.12546  0  1.017972  0  0  0.128013  0  1.017665  0  0.123197  0  0.109374  0.123229  0  1.018703  0
H  H41  1  0.22371787  0.06330677  0.69054899  1  0  0.116459  0  0.955201  0  0  0.125656  0  1.016568  0  0  0.128202  0  1.016287  0  0.121166  0  0.109408  0.12345  0  1.017253  0
C  C42  1  0.73074318  0.23921934  0.33107672  1  0  0.635931  0  3.918238  0  0  0.587865  0  4.21201  0  0  0.622504  0  4.203217  0  1.545417  0  0.19524  0.56447  0  4.216023  0
C  C43  1  0.49164334  0.76088680  0.16899430  1  0  0.635439  0  3.915509  0  0  0.586958  0  4.209377  0  0  0.621615  0  4.200658  0  1.546965  0  0.195326  0.563541  0  4.213341  0
C  C44  1  0.26925783  0.76077971  0.66892399  1  0  0.635892  0  3.918467  0  0  0.587842  0  4.212194  0  0  0.622486  0  4.203397  0  1.544795  0  0.195199  0.564447  0  4.216208  0
C  C45  1  0.50835554  0.23911013  0.83100479  1  0  0.635439  0  3.915566  0  0  0.586974  0  4.209407  0  0  0.621634  0  4.200688  0  1.547144  0  0.195359  0.563559  0  4.21337  0
C  C46  1  0.87158356  0.37370037  0.41516548  1  0  -0.127612  0  3.736612  0  0  -0.114148  0  3.982539  0  0  -0.121036  0  4.000947  0  0.012184  0  -0.024693  -0.109394  0  3.969914  0
C  C47  1  0.49783652  0.62630292  0.08484621  1  0  -0.128556  0  3.736004  0  0  -0.113364  0  3.979791  0  0  -0.120391  0  3.998393  0  -0.030432  0  -0.024557  -0.108561  0  3.967083  0
C  C48  1  0.12841691  0.62629762  0.58483403  1  0  -0.127681  0  3.736769  0  0  -0.114213  0  3.982695  0  0  -0.121104  0  4.001102  0  0.011649  0  -0.024697  -0.109461  0  3.970072  0
C  C49  1  0.50216608  0.37369719  0.91515259  1  0  -0.128553  0  3.735945  0  0  -0.113367  0  3.97975  0  0  -0.120397  0  3.998355  0  -0.030569  0  -0.024582  -0.108566  0  3.967045  0
C  C50  1  0.00339298  0.44753494  0.37844037  1  0  0.247283  0  3.804961  0  0  0.225796  0  4.072912  0  0  0.237239  0  4.088395  0  0.482031  0  0.081287  0.217916  0  4.062328  0
C  C51  1  0.55588474  0.55250547  0.12158834  1  0  0.247612  0  3.804724  0  0  0.225077  0  4.07248  0  0  0.236535  0  4.088023  0  0.470506  0  0.080924  0.217213  0  4.061828  0
C  C52  1  0.99660909  0.55246623  0.62156195  1  0  0.247295  0  3.804959  0  0  0.225795  0  4.072928  0  0  0.237238  0  4.088413  0  0.482679  0  0.081276  0.217916  0  4.062344  0
C  C53  1  0.44411733  0.44749571  0.87841088  1  0  0.247664  0  3.804714  0  0  0.225091  0  4.072472  0  0  0.236547  0  4.088017  0  0.4705  0  0.080942  0.217226  0  4.061822  0
C  C54  1  0.87070020  0.42839744  0.53583373  1  0  -0.206958  0  3.778716  0  0  -0.23824  0  4.039169  0  0  -0.240368  0  4.056357  0  -0.026722  0  -0.107025  -0.237212  0  4.02824  0
C  C55  1  0.44220147  0.57154966  0.96415417  1  0  -0.205441  0  3.775138  0  0  -0.237095  0  4.035702  0  0  -0.23917  0  4.052952  0  0.008577  0  -0.106528  -0.236087  0  4.024744  0
C  C56  1  0.12929921  0.57160056  0.46416501  1  0  -0.206895  0  3.778827  0  0  -0.238178  0  4.039272  0  0  -0.240306  0  4.056462  0  -0.026821  0  -0.10701  -0.237149  0  4.028342  0
C  C57  1  0.55780113  0.42845045  0.03584541  1  0  -0.205386  0  3.775092  0  0  -0.237059  0  4.035656  0  0  -0.239134  0  4.052907  0  0.008422  0  -0.106493  -0.23605  0  4.024696  0
C  C58  1  0.12025376  0.47568719  0.21956141  1  0  0.096449  0  3.6711  0  0  0.034525  0  3.933697  0  0  0.043684  0  3.939194  0  0.361953  0  -0.059795  0.02816  0  3.929637  0
C  C59  1  0.64466157  0.52455998  0.28062360  1  0  0.095628  0  3.670026  0  0  0.033602  0  3.932317  0  0  0.042634  0  3.938009  0  0.421789  0  -0.060427  0.027236  0  3.928274  0
C  C60  1  0.87974458  0.52431293  0.78043740  1  0  0.096521  0  3.671196  0  0  0.034656  0  3.933704  0  0  0.043827  0  3.93919  0  0.362106  0  -0.059747  0.02829  0  3.929641  0
C  C61  1  0.35533838  0.47543695  0.71937317  1  0  0.095567  0  3.669955  0  0  0.033508  0  3.932264  0  0  0.042532  0  3.937958  0  0.421505  0  -0.060439  0.027162  0  3.928199  0
C  C62  1  0.06214951  0.42004963  0.09117492  1  0  -0.057949  0  3.77654  0  0  -0.060827  0  4.029831  0  0  -0.062853  0  4.051672  0  -0.169089  0  -0.10245  -0.059369  0  4.014988  0
C  C63  1  0.64204162  0.58012544  0.40899318  1  0  -0.057714  0  3.776192  0  0  -0.060319  0  4.02924  0  0  -0.062354  0  4.051101  0  -0.204423  0  -0.102562  -0.058816  0  4.01438  0
C  C64  1  0.93785787  0.57995579  0.90882754  1  0  -0.058132  0  3.776423  0  0  -0.061024  0  4.029716  0  0  -0.063054  0  4.051557  0  -0.169045  0  -0.102486  -0.059562  0  4.014871  0
C  C65  1  0.35795832  0.41987362  0.59100598  1  0  -0.057711  0  3.77625  0  0  -0.060325  0  4.029299  0  0  -0.062361  0  4.05117  0  -0.204279  0  -0.102555  -0.058825  0  4.014435  0
C  C66  1  0.91637788  0.31964267  0.02888932  1  0  -0.279393  0  3.648682  0  0  -0.329338  0  3.89523  0  0  -0.333586  0  3.910897  0  0.017953  0  -0.192778  -0.326322  0  3.884876  0
C  C67  1  0.59641748  0.68037017  0.47118198  1  0  -0.278776  0  3.649474  0  0  -0.328951  0  3.896274  0  0  -0.333198  0  3.911885  0  0.060858  0  -0.192318  -0.325919  0  3.885973  0
C  C68  1  0.08363056  0.68036275  0.97111081  1  0  -0.279258  0  3.648681  0  0  -0.329245  0  3.895189  0  0  -0.333501  0  3.910869  0  0.018452  0  -0.192752  -0.326232  0  3.884835  0
C  C69  1  0.40358246  0.31962889  0.52881795  1  0  -0.278708  0  3.649492  0  0  -0.328876  0  3.896316  0  0  -0.333131  0  3.911923  0  0.060845  0  -0.192307  -0.325844  0  3.886015  0
C  C70  1  0.36072914  0.11954234  0.10815030  1  0  0.161867  0  3.654116  0  0  0.126716  0  3.907741  0  0  0.136463  0  3.922219  0  0.454008  0  0.066519  0.120107  0  3.897822  0
C  C71  1  0.24091496  0.88051185  0.39208702  1  0  0.161266  0  3.654184  0  0  0.126213  0  3.907899  0  0  0.13598  0  3.92234  0  0.461936  0  0.066242  0.119615  0  3.897958  0
C  C72  1  0.63926920  0.88045565  0.89184844  1  0  0.161813  0  3.654152  0  0  0.126669  0  3.907777  0  0  0.136415  0  3.922254  0  0.454089  0  0.066519  0.12006  0  3.897857  0
C  C73  1  0.75908178  0.11948933  0.60791453  1  0  0.161292  0  3.654228  0  0  0.126233  0  3.907945  0  0  0.136001  0  3.922387  0  0.461776  0  0.066244  0.119636  0  3.898004  0
C  C74  1  0.25711224  0.16168324  0.07304255  1  0  -0.118981  0  3.719421  0  0  -0.132582  0  3.978126  0  0  -0.13987  0  3.99837  0  0.021974  0  -0.080591  -0.127997  0  3.964224  0
C  C75  1  0.09503700  0.83833702  0.42705184  1  0  -0.11874  0  3.719567  0  0  -0.132475  0  3.978415  0  0  -0.139758  0  3.99864  0  0.032014  0  -0.080704  -0.127899  0  3.964512  0
C  C76  1  0.74288558  0.83831370  0.92695577  1  0  -0.118972  0  3.719339  0  0  -0.13258  0  3.978059  0  0  -0.139863  0  3.998298  0  0.022341  0  -0.080601  -0.127995  0  3.964155  0
C  C77  1  0.90496027  0.16166521  0.57294857  1  0  -0.118776  0  3.719665  0  0  -0.132508  0  3.978513  0  0  -0.13979  0  3.998736  0  0.032126  0  -0.080703  -0.127933  0  3.964612  0
C  C78  1  0.11467662  0.13863850  0.11011020  1  0  -0.035533  0  3.673531  0  0  -0.060916  0  3.92127  0  0  -0.056771  0  3.937697  0  -0.007154  0  -0.057628  -0.063683  0  3.909929  0
C  C79  1  0.97586676  0.86168607  0.39006979  1  0  -0.035832  0  3.676151  0  0  -0.061689  0  3.923309  0  0  -0.057626  0  3.939719  0  -0.062238  0  -0.057759  -0.064418  0  3.912  0
C  C80  1  0.88532226  0.86136056  0.88988896  1  0  -0.035564  0  3.673541  0  0  -0.060956  0  3.921288  0  0  -0.056809  0  3.937711  0  -0.007125  0  -0.057628  -0.063722  0  3.909945  0
C  C81  1  0.02413105  0.13831510  0.60993098  1  0  -0.035974  0  3.676272  0  0  -0.061832  0  3.923436  0  0  -0.057766  0  3.939848  0  -0.062131  0  -0.057823  -0.064559  0  3.912129  0
C  C82  1  0.07382363  0.07072363  0.18077316  1  0  0.02834  0  3.787619  0  0  0.044891  0  4.017455  0  0  0.042165  0  4.041275  0  -0.02096  0  0.001089  0.046902  0  4.001252  0
C  C83  1  0.00328053  0.92986496  0.31961680  1  0  0.028358  0  3.788529  0  0  0.04568  0  4.017403  0  0  0.04293  0  4.041278  0  -0.019126  0  0.00111  0.04771  0  4.001164  0
C  C84  1  0.92617577  0.92927861  0.81922803  1  0  0.028361  0  3.787656  0  0  0.044909  0  4.017456  0  0  0.042182  0  4.041277  0  -0.020883  0  0.001088  0.046917  0  4.001258  0
C  C85  1  0.99671781  0.07013515  0.68038278  1  0  0.028452  0  3.788585  0  0  0.045759  0  4.017446  0  0  0.04301  0  4.04132  0  -0.019562  0  0.001126  0.047788  0  4.00121  0
C  C86  1  0.18638380  0.03388109  0.21343491  1  0  0.123263  0  3.779253  0  0  0.116943  0  4.012728  0  0  0.120971  0  4.0356  0  0.488129  0  0.116413  0.114344  0  3.997106  0
C  C87  1  0.15273322  0.96670325  0.28707511  1  0  0.122109  0  3.776967  0  0  0.115009  0  4.011279  0  0  0.119083  0  4.034151  0  0.459869  0  0.115476  0.112377  0  3.995656  0
C  C88  1  0.81361719  0.96612220  0.78656825  1  0  0.123232  0  3.779243  0  0  0.116956  0  4.01265  0  0  0.120984  0  4.035522  0  0.488362  0  0.116414  0.114358  0  3.997027  0
C  C89  1  0.84726778  0.03330004  0.71292806  1  0  0.122042  0  3.777116  0  0  0.11497  0  4.011356  0  0  0.119044  0  4.03423  0  0.459583  0  0.115479  0.112339  0  3.995731  0
C  C90  1  0.92518191  0.03525949  0.21750781  1  0  -0.092488  0  3.709734  0  0  -0.114666  0  3.962567  0  0  -0.118133  0  3.986289  0  -0.010429  0  -0.079407  -0.112771  0  3.947168  0
C  C91  1  0.89026708  0.96547011  0.28288758  1  0  -0.09298  0  3.708877  0  0  -0.114971  0  3.961471  0  0  -0.118439  0  3.985151  0  -0.042739  0  -0.079651  -0.113098  0  3.946079  0
C  C92  1  0.07481855  0.96474274  0.78249260  1  0  -0.092489  0  3.709692  0  0  -0.114624  0  3.962522  0  0  -0.118093  0  3.986247  0  -0.000228  0  -0.079377  -0.112741  0  3.947116  0
C  C93  1  0.10973126  0.03453212  0.71711361  1  0  -0.093019  0  3.708755  0  0  -0.114997  0  3.961387  0  0  -0.118464  0  3.98507  0  -0.042487  0  -0.079668  -0.113129  0  3.945999  0
N  N94  1  0.32688217  0.05935606  0.17783962  1  0  -0.353264  0  3.299557  0  0  -0.27498  0  3.569455  0  0  -0.294415  0  3.584305  0  -1.262421  0  -0.321944  -0.261788  0  3.559257  0
N  N95  1  0.26756658  0.94098441  0.32260641  1  0  -0.351063  0  3.294209  0  0  -0.27292  0  3.564446  0  0  -0.292388  0  3.57931  0  -1.257739  0  -0.321386  -0.259696  0  3.554216  0
N  N96  1  0.67311671  0.94064511  0.82216193  1  0  -0.353213  0  3.299551  0  0  -0.274955  0  3.569442  0  0  -0.29439  0  3.584293  0  -1.262445  0  -0.321947  -0.261764  0  3.559244  0
N  N97  1  0.73243229  0.05901676  0.67739592  1  0  -0.351021  0  3.294197  0  0  -0.272882  0  3.564417  0  0  -0.292355  0  3.57929  0  -1.257756  0  -0.321353  -0.259659  0  3.554189  0
O  O98  1  0.69487553  0.20540823  0.22473472  1  0  -0.606214  0  1.924836  0  0  -0.566227  0  2.157384  0  0  -0.587599  0  2.146603  0  -1.172191  0  -0.317751  -0.550543  0  2.163517  0
O  O99  1  0.49010216  0.79489195  0.27542320  1  0  -0.60637  0  1.924593  0  0  -0.566211  0  2.157157  0  0  -0.587597  0  2.146379  0  -1.170337  0  -0.317971  -0.550556  0  2.163382  0
O  O100  1  0.30512601  0.79459188  0.77526641  1  0  -0.606205  0  1.924957  0  0  -0.566219  0  2.157508  0  0  -0.587592  0  2.146719  0  -1.17223  0  -0.317732  -0.550537  0  2.163643  0
O  O101  1  0.50989512  0.20510604  0.72457554  1  0  -0.606355  0  1.9246  0  0  -0.566218  0  2.157204  0  0  -0.587591  0  2.146395  0  -1.17037  0  -0.317983  -0.550564  0  2.163431  0
O  O102  1  0.64854976  0.16075653  0.37733798  1  0  -0.644568  0  2.009839  0  0  -0.567436  0  2.275464  0  0  -0.596829  0  2.260737  0  -1.163505  0  -0.335608  -0.546045  0  2.284115  0
O  O103  1  0.48755611  0.83927540  0.12275173  1  0  -0.643646  0  2.006806  0  0  -0.567082  0  2.273186  0  0  -0.596367  0  2.258293  0  -1.158234  0  -0.335517  -0.545743  0  2.281967  0
O  O104  1  0.35145018  0.83924041  0.62266034  1  0  -0.644554  0  2.009876  0  0  -0.567433  0  2.275489  0  0  -0.596827  0  2.260754  0  -1.162737  0  -0.335597  -0.546041  0  2.28414  0
O  O105  1  0.51244170  0.16072366  0.87724821  1  0  -0.64365  0  2.006825  0  0  -0.567094  0  2.27317  0  0  -0.596383  0  2.25828  0  -1.158265  0  -0.335544  -0.545758  0  2.281951  0
O  O106  1  0.00158430  0.39290043  0.26076813  1  0  -0.275811  0  2.38062  0  0  -0.198965  0  2.615577  0  0  -0.218508  0  2.620124  0  -1.079853  0  -0.171892  -0.185241  0  2.61179  0
O  O107  1  0.60850507  0.60710392  0.23928276  1  0  -0.276957  0  2.382604  0  0  -0.198695  0  2.616625  0  0  -0.218192  0  2.621201  0  -1.074876  0  -0.17189  -0.184977  0  2.612837  0
O  O108  1  0.99841617  0.60709968  0.73923068  1  0  -0.275794  0  2.380719  0  0  -0.198969  0  2.615683  0  0  -0.218515  0  2.620228  0  -1.080057  0  -0.171884  -0.185243  0  2.611894  0
O  O109  1  0.39149700  0.39289513  0.76071718  1  0  -0.277005  0  2.382588  0  0  -0.198658  0  2.616554  0  0  -0.218157  0  2.621133  0  -1.074883  0  -0.171873  -0.184944  0  2.612762  0
