# generated using pymatgen
data_ZnH11C18NO4
_symmetry_space_group_name_H-M   'P 1'
_cell_length_a   10.20173983
_cell_length_b   12.03379712
_cell_length_c   13.07806282
_cell_angle_alpha   93.51563119
_cell_angle_beta   111.84930715
_cell_angle_gamma   96.12037490
_symmetry_Int_Tables_number   1
_chemical_formula_structural   ZnH11C18NO4
_chemical_formula_sum   'Zn4 H44 C72 N4 O16'
_cell_volume   1472.81056009
_cell_formula_units_Z   4
loop_
 _symmetry_equiv_pos_site_id
 _symmetry_equiv_pos_as_xyz
  1  'x, y, z'
loop_
 _atom_site_type_symbol
 _atom_site_label
 _atom_site_symmetry_multiplicity
 _atom_site_fract_x
 _atom_site_fract_y
 _atom_site_fract_z
 _atom_site_occupancy
 _atom_site_hle17_bader_spin_density
 _atom_site_hle17_ddec_charge
 _atom_site_hle17_ddec_spin_density
 _atom_site_hle17_ddec_sum_bond_order
 _atom_site_hle17_magmom
 _atom_site_hse06_10hf_bader_spin_density
 _atom_site_hse06_10hf_ddec_charge
 _atom_site_hse06_10hf_ddec_spin_density
 _atom_site_hse06_10hf_ddec_sum_bond_order
 _atom_site_hse06_10hf_magmom
 _atom_site_hse06_bader_spin_density
 _atom_site_hse06_ddec_charge
 _atom_site_hse06_ddec_spin_density
 _atom_site_hse06_ddec_sum_bond_order
 _atom_site_hse06_magmom
 _atom_site_pbe_bader_spin_density
 _atom_site_pbe_cm5_charge
 _atom_site_pbe_ddec_charge
 _atom_site_pbe_ddec_spin_density
 _atom_site_pbe_ddec_sum_bond_order
 _atom_site_pbe_magmom
Zn  Zn0  1  0.16000757  0.49396428  0.20592250  1  0  1.100749  0  1.747331  0  0  0.914152  0  2.21909  0  0  0.964988  0  2.157555  0  0  0.705582  0.878335  0  2.261471  0
Zn  Zn1  1  0.83999130  0.50603427  0.79407755  1  0  1.100756  0  1.74741  0  0  0.914144  0  2.219157  0  0  0.964977  0  2.157625  0  0  0.705595  0.878328  0  2.261533  0
Zn  Zn2  1  0.92669309  0.49673991  0.34323304  1  0  1.090159  0  1.803576  0  0  0.911039  0  2.270874  0  0  0.959446  0  2.213172  0  0  0.699388  0.876807  0  2.310725  0
Zn  Zn3  1  0.07330820  0.50326032  0.65676551  1  0  1.09016  0  1.80356  0  0  0.911058  0  2.270835  0  0  0.959461  0  2.213136  0  0  0.699405  0.876825  0  2.310693  0
H  H4  1  0.43464937  0.53845664  0.17295600  1  0  0.090685  0  0.928189  0  0  0.102067  0  0.983417  0  0  0.104779  0  0.981474  0  0  0.122867  0.100085  0  0.984854  0
H  H5  1  0.56535057  0.46154189  0.82704664  1  0  0.090701  0  0.928156  0  0  0.102065  0  0.983408  0  0  0.104776  0  0.981465  0  0  0.122861  0.100077  0  0.984845  0
H  H6  1  0.66598750  0.66743188  0.26381956  1  0  0.116754  0  0.95648  0  0  0.124845  0  1.017259  0  0  0.128318  0  1.016017  0  0  0.107414  0.122234  0  1.018423  0
H  H7  1  0.33401139  0.33256665  0.73618278  1  0  0.116784  0  0.956473  0  0  0.124871  0  1.017252  0  0  0.128343  0  1.016013  0  0  0.107407  0.122253  0  1.018421  0
H  H8  1  0.69924221  0.80165328  0.42814152  1  0  0.089257  0  0.945033  0  0  0.102378  0  1.004844  0  0  0.104456  0  1.00337  0  0  0.10565  0.100917  0  1.00584  0
H  H9  1  0.30075578  0.19834612  0.57185909  1  0  0.089256  0  0.944972  0  0  0.102409  0  1.004765  0  0  0.104488  0  1.003291  0  0  0.105681  0.100944  0  1.005762  0
H  H10  1  0.27252640  0.67099268  0.39437158  1  0  0.098232  0  0.98711  0  0  0.105576  0  1.056454  0  0  0.108705  0  1.053208  0  0  0.116095  0.103508  0  1.058413  0
H  H11  1  0.72747207  0.32900923  0.60563010  1  0  0.098254  0  0.987177  0  0  0.105629  0  1.056489  0  0  0.108759  0  1.053242  0  0  0.116089  0.103559  0  1.058452  0
H  H12  1  0.39255212  0.81464714  0.53313618  1  0  0.085732  0  0.965253  0  0  0.097585  0  1.029996  0  0  0.099781  0  1.029377  0  0  0.100004  0.095855  0  1.030676  0
H  H13  1  0.60744951  0.18535475  0.46686564  1  0  0.085735  0  0.965212  0  0  0.09758  0  1.029964  0  0  0.099779  0  1.029339  0  0  0.099987  0.095847  0  1.030645  0
H  H14  1  0.69733847  0.91383753  0.56254863  1  0  0.081264  0  0.949865  0  0  0.09546  0  1.009899  0  0  0.097284  0  1.009514  0  0  0.098851  0.094131  0  1.010265  0
H  H15  1  0.30265957  0.08616778  0.43745007  1  0  0.081399  0  0.949915  0  0  0.095589  0  1.00993  0  0  0.097417  0  1.009536  0  0  0.098889  0.094262  0  1.010296  0
H  H16  1  0.81179667  0.06710160  0.69868800  1  0  0.085638  0  0.96627  0  0  0.097758  0  1.02839  0  0  0.099386  0  1.029127  0  0  0.096206  0.096643  0  1.027735  0
H  H17  1  0.18820212  0.93290200  0.30131310  1  0  0.085598  0  0.96628  0  0  0.097715  0  1.028409  0  0  0.099344  0  1.029145  0  0  0.096202  0.096605  0  1.027751  0
H  H18  1  0.83018806  0.19118251  0.86273066  1  0  0.09958  0  0.971695  0  0  0.105895  0  1.040469  0  0  0.108141  0  1.040604  0  0  0.100244  0.104259  0  1.040505  0
H  H19  1  0.16980888  0.80881688  0.13727195  1  0  0.099596  0  0.971637  0  0  0.105927  0  1.040397  0  0  0.108173  0  1.040534  0  0  0.100263  0.104295  0  1.040421  0
H  H20  1  0.41907665  0.02969131  0.83745978  1  0  0.086944  0  0.963012  0  0  0.098378  0  1.025412  0  0  0.100516  0  1.025359  0  0  0.0974  0.097362  0  1.024618  0
H  H21  1  0.58092191  0.97030556  0.16254083  1  0  0.086787  0  0.963055  0  0  0.098228  0  1.025475  0  0  0.100363  0  1.025434  0  0  0.097355  0.097215  0  1.024681  0
H  H22  1  0.40033523  0.90868292  0.67523402  1  0  0.081344  0  0.985554  0  0  0.09326  0  1.047619  0  0  0.0948  0  1.048632  0  0  0.095027  0.092025  0  1.047277  0
H  H23  1  0.59966575  0.09131561  0.32476663  1  0  0.081344  0  0.985569  0  0  0.09328  0  1.047605  0  0  0.094823  0  1.048612  0  0  0.095051  0.092026  0  1.047294  0
H  H24  1  0.75221885  0.24465881  0.99902891  1  0  0.105474  0  0.970163  0  0  0.117741  0  1.029672  0  0  0.120863  0  1.027551  0  0  0.104283  0.11551  0  1.031121  0
H  H25  1  0.24777598  0.75534061  0.00097080  1  0  0.10545  0  0.970095  0  0  0.117714  0  1.029614  0  0  0.120836  0  1.027491  0  0  0.104261  0.115488  0  1.03106  0
H  H26  1  0.45735168  0.13577319  0.98665377  1  0  0.089504  0  0.95862  0  0  0.102439  0  1.019252  0  0  0.104628  0  1.019607  0  0  0.098752  0.100784  0  1.019175  0
H  H27  1  0.54264346  0.86422792  0.01334614  1  0  0.089563  0  0.95863  0  0  0.102506  0  1.019246  0  0  0.104695  0  1.019599  0  0  0.098773  0.100853  0  1.019164  0
H  H28  1  0.37859146  0.21144622  0.12274255  1  0  0.091099  0  0.970836  0  0  0.102444  0  1.033589  0  0  0.104325  0  1.033076  0  0  0.103079  0.100959  0  1.034135  0
H  H29  1  0.62140612  0.78855654  0.87725969  1  0  0.091169  0  0.970878  0  0  0.102516  0  1.033602  0  0  0.104398  0  1.03309  0  0  0.103107  0.10102  0  1.034162  0
H  H30  1  0.42790651  0.32536972  0.30258033  1  0  0.126625  0  0.976039  0  0  0.135037  0  1.036531  0  0  0.138941  0  1.034652  0  0  0.110077  0.132205  0  1.038056  0
H  H31  1  0.57209634  0.67463299  0.69742341  1  0  0.126538  0  0.976091  0  0  0.134973  0  1.036559  0  0  0.138876  0  1.034685  0  0  0.110065  0.132138  0  1.038079  0
H  H32  1  0.67297115  0.43565795  0.40312151  1  0  0.091264  0  0.921168  0  0  0.103484  0  0.976282  0  0  0.105837  0  0.97499  0  0  0.122257  0.101784  0  0.977189  0
H  H33  1  0.32703468  0.56434392  0.59687921  1  0  0.091266  0  0.921179  0  0  0.103498  0  0.976277  0  0  0.105845  0  0.974992  0  0  0.122292  0.101797  0  0.977181  0
H  H34  1  0.81175150  0.32378385  0.15984907  1  0  0.098029  0  0.950415  0  0  0.105229  0  1.016908  0  0  0.108107  0  1.014096  0  0  0.120859  0.103149  0  1.018765  0
H  H35  1  0.18824556  0.67621643  0.84014751  1  0  0.097997  0  0.950504  0  0  0.105186  0  1.017006  0  0  0.108063  0  1.014195  0  0  0.120831  0.103109  0  1.018863  0
H  H36  1  0.84784720  0.11572992  0.50001881  1  0  0.099254  0  0.949013  0  0  0.109308  0  1.010899  0  0  0.113417  0  1.007594  0  0  0.103729  0.106252  0  1.013536  0
H  H37  1  0.15215208  0.88426526  0.49998037  1  0  0.09927  0  0.949042  0  0  0.109264  0  1.010985  0  0  0.11339  0  1.007657  0  0  0.103742  0.106207  0  1.013623  0
H  H38  1  0.80139842  0.95299516  0.35786234  1  0  0.091693  0  0.958302  0  0  0.101463  0  1.023022  0  0  0.104522  0  1.021654  0  0  0.100776  0.099365  0  1.023888  0
H  H39  1  0.19860027  0.04700258  0.64213455  1  0  0.091731  0  0.958299  0  0  0.101506  0  1.023002  0  0  0.104563  0  1.021637  0  0  0.100783  0.099406  0  1.023871  0
H  H40  1  0.05022728  0.14894880  0.21199312  1  0  0.106868  0  0.973853  0  0  0.114307  0  1.040185  0  0  0.11767  0  1.038649  0  0  0.105236  0.111874  0  1.041402  0
H  H41  1  0.94977223  0.85105312  0.78800656  1  0  0.106881  0  0.973831  0  0  0.114298  0  1.040191  0  0  0.117663  0  1.038654  0  0  0.105242  0.111864  0  1.041407  0
H  H42  1  0.91141577  0.81530070  0.28995904  1  0  0.10158  0  0.957391  0  0  0.111386  0  1.021941  0  0  0.114171  0  1.020837  0  0  0.10337  0.109283  0  1.022996  0
H  H43  1  0.08858657  0.18469954  0.71003828  1  0  0.101693  0  0.957315  0  0  0.111438  0  1.021931  0  0  0.114221  0  1.020828  0  0  0.10341  0.109335  0  1.022988  0
H  H44  1  0.85699524  0.90976470  0.91359845  1  0  0.096039  0  0.955267  0  0  0.106763  0  1.017191  0  0  0.10936  0  1.016889  0  0  0.10328  0.104894  0  1.017537  0
H  H45  1  0.14300709  0.09023554  0.08639887  1  0  0.096006  0  0.95526  0  0  0.106737  0  1.017192  0  0  0.10934  0  1.016879  0  0  0.103272  0.104867  0  1.017557  0
H  H46  1  0.86631580  0.05887510  0.05462582  1  0  0.10388  0  0.9659  0  0  0.111788  0  1.032254  0  0  0.114971  0  1.030743  0  0  0.103749  0.109518  0  1.033428  0
H  H47  1  0.13368353  0.94112601  0.94537069  1  0  0.103871  0  0.965903  0  0  0.111777  0  1.032243  0  0  0.114957  0  1.030736  0  0  0.103772  0.109509  0  1.033414  0
C  C48  1  0.45374645  0.59866753  0.24438344  1  0  0.120499  0  3.692026  0  0  0.088475  0  3.94173  0  0  0.09567  0  3.960552  0  0  0.047757  0.083825  0  3.928873  0
C  C49  1  0.54625365  0.40133184  0.75561930  1  0  0.120422  0  3.691972  0  0  0.088406  0  3.941667  0  0  0.095599  0  3.960492  0  0  0.047716  0.083762  0  3.928797  0
C  C50  1  0.58136392  0.67132699  0.29534604  1  0  -0.114507  0  3.740076  0  0  -0.126393  0  3.994942  0  0  -0.133881  0  4.01674  0  0  -0.081963  -0.121581  0  3.980233  0
C  C51  1  0.41863619  0.32867238  0.70465670  1  0  -0.114507  0  3.740071  0  0  -0.126372  0  3.994949  0  0  -0.133861  0  4.016752  0  0  -0.081946  -0.121558  0  3.980225  0
C  C52  1  0.59880244  0.74612965  0.38616809  1  0  -0.029027  0  3.655472  0  0  -0.055906  0  3.902079  0  0  -0.052295  0  3.919999  0  0  -0.057964  -0.057943  0  3.88968  0
C  C53  1  0.40119782  0.25387057  0.61383322  1  0  -0.029064  0  3.655419  0  0  -0.056027  0  3.902036  0  0  -0.052415  0  3.919957  0  0  -0.058005  -0.058061  0  3.889624  0
C  C54  1  0.48706735  0.74941228  0.42447759  1  0  0.059924  0  3.798484  0  0  0.082891  0  4.02764  0  0  0.080179  0  4.052519  0  0  0.00089  0.084412  0  4.010893  0
C  C55  1  0.51293306  0.25058879  0.57552306  1  0  0.059981  0  3.798464  0  0  0.083055  0  4.027488  0  0  0.080343  0  4.052368  0  0  0.000897  0.08458  0  4.010731  0
C  C56  1  0.36285415  0.67243348  0.36859279  1  0  0.07716  0  3.633209  0  0  0.041207  0  3.872939  0  0  0.046885  0  3.890548  0  0  0.051236  0.037569  0  3.860727  0
C  C57  1  0.63714521  0.32756759  0.63140832  1  0  0.077025  0  3.633385  0  0  0.040986  0  3.873121  0  0  0.046664  0  3.89073  0  0  0.0512  0.03734  0  3.860919  0
C  C58  1  0.49011572  0.82515639  0.51632577  1  0  -0.109245  0  3.745835  0  0  -0.132251  0  4.000188  0  0  -0.135548  0  4.023375  0  0  -0.088384  -0.129713  0  3.984347  0
C  C59  1  0.50988590  0.17484551  0.48367451  1  0  -0.109155  0  3.745645  0  0  -0.132165  0  3.999938  0  0  -0.135465  0  4.023132  0  0  -0.088347  -0.129618  0  3.98409  0
C  C60  1  0.60028806  0.90369870  0.58017097  1  0  -0.079346  0  3.735178  0  0  -0.101288  0  3.989023  0  0  -0.10313  0  4.010755  0  0  -0.080987  -0.099984  0  3.974113  0
C  C61  1  0.39971039  0.09630323  0.41982764  1  0  -0.079631  0  3.735317  0  0  -0.10158  0  3.989164  0  0  -0.103425  0  4.010901  0  0  -0.081077  -0.10028  0  3.974259  0
C  C62  1  0.60541053  0.97718677  0.67413898  1  0  0.081583  0  3.826149  0  0  0.100901  0  4.054747  0  0  0.101119  0  4.080607  0  0  -0.011867  0.100716  0  4.037187  0
C  C63  1  0.39458778  0.02281431  0.32586183  1  0  0.0816  0  3.826089  0  0  0.100919  0  4.054694  0  0  0.101136  0  4.08056  0  0  -0.011868  0.100734  0  4.037144  0
C  C64  1  0.72562536  0.05873393  0.72925534  1  0  -0.112433  0  3.74022  0  0  -0.130727  0  3.986296  0  0  -0.134629  0  4.010299  0  0  -0.090686  -0.127892  0  3.969667  0
C  C65  1  0.27437172  0.94126632  0.27074430  1  0  -0.112367  0  3.74015  0  0  -0.130657  0  3.98623  0  0  -0.134559  0  4.010234  0  0  -0.090709  -0.127825  0  3.969606  0
C  C66  1  0.73631177  0.12851657  0.82144339  1  0  -0.101828  0  3.70897  0  0  -0.120485  0  3.956784  0  0  -0.123897  0  3.980634  0  0  -0.087055  -0.11815  0  3.940697  0
C  C67  1  0.26368760  0.87148450  0.17855849  1  0  -0.101926  0  3.709032  0  0  -0.120604  0  3.956892  0  0  -0.124017  0  3.980742  0  0  -0.087101  -0.118261  0  3.940804  0
C  C68  1  0.62777968  0.11947974  0.86407414  1  0  0.08282  0  3.823929  0  0  0.101954  0  4.054605  0  0  0.101554  0  4.08068  0  0  -0.013745  0.102135  0  4.0371  0
C  C69  1  0.37221799  0.88051797  0.13592703  1  0  0.082802  0  3.824034  0  0  0.101902  0  4.05474  0  0  0.101501  0  4.080818  0  0  -0.013729  0.102082  0  4.037247  0
C  C70  1  0.50580626  0.03927025  0.80755574  1  0  -0.112682  0  3.742781  0  0  -0.129719  0  3.985723  0  0  -0.132796  0  4.00864  0  0  -0.089699  -0.127462  0  3.969619  0
C  C71  1  0.49419247  0.96072744  0.19244651  1  0  -0.112443  0  3.742724  0  0  -0.129469  0  3.985669  0  0  -0.132548  0  4.008588  0  0  -0.089645  -0.127214  0  3.969572  0
C  C72  1  0.49507793  0.97052053  0.71530592  1  0  -0.110575  0  3.75338  0  0  -0.12557  0  3.992181  0  0  -0.129426  0  4.016497  0  0  -0.090141  -0.122978  0  3.975853  0
C  C73  1  0.50492110  0.02947887  0.28469346  1  0  -0.110568  0  3.753426  0  0  -0.125583  0  3.992227  0  0  -0.12944  0  4.016545  0  0  -0.090128  -0.122981  0  3.975922  0
C  C74  1  0.64983420  0.18970969  0.96498104  1  0  -0.105838  0  3.745725  0  0  -0.127433  0  3.996437  0  0  -0.129751  0  4.018743  0  0  -0.085656  -0.12583  0  3.981335  0
C  C75  1  0.35016167  0.81028973  0.03501896  1  0  -0.105705  0  3.745736  0  0  -0.127262  0  3.996417  0  0  -0.129578  0  4.018724  0  0  -0.085557  -0.12567  0  3.981324  0
C  C76  1  0.56057372  0.18960987  0.02018962  1  0  -0.11941  0  3.74979  0  0  -0.138677  0  3.997642  0  0  -0.143009  0  4.022142  0  0  -0.094027  -0.135638  0  3.981127  0
C  C77  1  0.43942127  0.81039040  0.97981019  1  0  -0.119682  0  3.749972  0  0  -0.13896  0  3.997866  0  0  -0.143291  0  4.022366  0  0  -0.094139  -0.135916  0  3.981349  0
C  C78  1  0.58967437  0.25698717  0.12457939  1  0  0.049679  0  3.80475  0  0  0.073957  0  4.031522  0  0  0.070903  0  4.056276  0  0  -0.002958  0.07562  0  4.014845  0
C  C79  1  0.41032272  0.74301308  0.87542102  1  0  0.04988  0  3.80467  0  0  0.074103  0  4.031502  0  0  0.071049  0  4.056258  0  0  -0.002972  0.075767  0  4.014823  0
C  C80  1  0.48326145  0.25949797  0.16863618  1  0  -0.037427  0  3.664659  0  0  -0.06307  0  3.908441  0  0  -0.059428  0  3.925418  0  0  -0.061864  -0.065018  0  3.896706  0
C  C81  1  0.51673840  0.74050561  0.83136599  1  0  -0.037598  0  3.664689  0  0  -0.063211  0  3.908479  0  0  -0.059574  0  3.925463  0  0  -0.061886  -0.065153  0  3.896729  0
C  C82  1  0.51030210  0.32268768  0.26871984  1  0  -0.114721  0  3.740295  0  0  -0.128838  0  3.996768  0  0  -0.135292  0  4.016801  0  0  -0.082591  -0.124734  0  3.983154  0
C  C83  1  0.48970059  0.67731419  0.73128304  1  0  -0.114492  0  3.740311  0  0  -0.128615  0  3.996746  0  0  -0.135076  0  4.016791  0  0  -0.082535  -0.124514  0  3.98313  0
C  C84  1  0.64479139  0.38384555  0.32466059  1  0  0.113221  0  3.697625  0  0  0.079964  0  3.95347  0  0  0.086539  0  3.972393  0  0  0.041942  0.075549  0  3.941061  0
C  C85  1  0.35521070  0.61615889  0.67533846  1  0  0.113169  0  3.697796  0  0  0.079888  0  3.953725  0  0  0.086488  0  3.972592  0  0  0.041868  0.075475  0  3.941313  0
C  C86  1  0.72253388  0.32111814  0.18706844  1  0  0.090124  0  3.620842  0  0  0.055573  0  3.859487  0  0  0.062169  0  3.877086  0  0  0.053044  0.051521  0  3.847265  0
C  C87  1  0.27746351  0.67888381  0.81292911  1  0  0.09012  0  3.620992  0  0  0.055624  0  3.85962  0  0  0.062211  0  3.877223  0  0  0.053125  0.05156  0  3.847408  0
C  C88  1  0.97138399  0.22328501  0.43483474  1  0  -0.092302  0  3.767575  0  0  -0.081071  0  4.006991  0  0  -0.088467  0  4.029979  0  0  -0.023673  -0.076394  0  3.991619  0
C  C89  1  0.02861863  0.77671097  0.56516774  1  0  -0.092233  0  3.767619  0  0  -0.081048  0  4.007082  0  0  -0.088447  0  4.03008  0  0  -0.02368  -0.07638  0  3.991718  0
C  C90  1  0.89136393  0.12106864  0.43566103  1  0  -0.068059  0  3.759178  0  0  -0.092435  0  4.01407  0  0  -0.091975  0  4.032841  0  0  -0.087146  -0.09268  0  4.001652  0
C  C91  1  0.10863761  0.87892738  0.56433732  1  0  -0.067942  0  3.759237  0  0  -0.092243  0  4.014108  0  0  -0.091793  0  4.032875  0  0  -0.08706  -0.092487  0  4.001696  0
C  C92  1  0.86608735  0.03063300  0.35658334  1  0  -0.112115  0  3.748241  0  0  -0.13213  0  4.000272  0  0  -0.134864  0  4.019693  0  0  -0.089673  -0.130328  0  3.98708  0
C  C93  1  0.13391271  0.96936641  0.64341404  1  0  -0.112314  0  3.748451  0  0  -0.132324  0  4.000463  0  0  -0.135058  0  4.019889  0  0  -0.089751  -0.130521  0  3.987275  0
C  C94  1  0.91895489  0.04073687  0.27211181  1  0  0.066216  0  3.780317  0  0  0.079612  0  4.014292  0  0  0.081455  0  4.036258  0  0  -0.001977  0.078342  0  3.999206  0
C  C95  1  0.08104429  0.95926338  0.72788614  1  0  0.066216  0  3.780307  0  0  0.079586  0  4.014292  0  0  0.081429  0  4.036257  0  0  -0.002051  0.078309  0  3.999206  0
C  C96  1  0.00445510  0.14091085  0.27452252  1  0  -0.115118  0  3.681454  0  0  -0.144529  0  3.929555  0  0  -0.146987  0  3.948401  0  0  -0.081056  -0.142867  0  3.91693  0
C  C97  1  0.99554725  0.85908936  0.72547786  1  0  -0.115048  0  3.681352  0  0  -0.144435  0  3.929467  0  0  -0.146893  0  3.948312  0  0  -0.081017  -0.142768  0  3.916833  0
C  C98  1  0.03199557  0.23244788  0.35445795  1  0  -0.052085  0  3.705735  0  0  -0.038069  0  3.942407  0  0  -0.040849  0  3.962055  0  0  -0.005409  -0.036144  0  3.929233  0
C  C99  1  0.96800378  0.76755320  0.64554163  1  0  -0.052204  0  3.705841  0  0  -0.038177  0  3.942525  0  0  -0.040958  0  3.962174  0  0  -0.005423  -0.036248  0  3.92935  0
C  C100  1  0.89175915  0.94888316  0.18356468  1  0  0.03756  0  3.806613  0  0  0.052342  0  4.044603  0  0  0.051701  0  4.067085  0  0  -0.010888  0.052992  0  4.02835  0
C  C101  1  0.10824107  0.05111710  0.81643204  1  0  0.037474  0  3.80661  0  0  0.052298  0  4.044543  0  0  0.051659  0  4.067022  0  0  -0.010915  0.052957  0  4.028285  0
C  C102  1  0.89500348  0.83681389  0.20672870  1  0  -0.113223  0  3.697216  0  0  -0.143719  0  3.944287  0  0  -0.144073  0  3.96281  0  0  -0.081828  -0.143313  0  3.931515  0
C  C103  1  0.10499764  0.16318551  0.79326822  1  0  -0.113363  0  3.697263  0  0  -0.143813  0  3.944365  0  0  -0.144168  0  3.96289  0  0  -0.081888  -0.143412  0  3.931596  0
C  C104  1  0.89388627  0.75244842  0.12784076  1  0  -0.066163  0  3.726922  0  0  -0.050884  0  3.959378  0  0  -0.056376  0  3.978857  0  0  -0.01004  -0.047346  0  3.946527  0
C  C105  1  0.10611711  0.24755181  0.87215609  1  0  -0.066002  0  3.726953  0  0  -0.050772  0  3.959475  0  0  -0.056268  0  3.978954  0  0  -0.010001  -0.047232  0  3.946619  0
C  C106  1  0.88462387  0.77831676  0.02228846  1  0  -0.050182  0  3.709104  0  0  -0.03799  0  3.944329  0  0  -0.040777  0  3.961996  0  0  -0.004455  -0.036823  0  3.933141  0
C  C107  1  0.11537635  0.22168349  0.97770826  1  0  -0.050288  0  3.709251  0  0  -0.038024  0  3.944383  0  0  -0.04079  0  3.962022  0  0  -0.00444  -0.036853  0  3.933188  0
C  C108  1  0.86894538  0.88856783  0.99620029  1  0  -0.083544  0  3.750797  0  0  -0.105016  0  4.004195  0  0  -0.106406  0  4.023094  0  0  -0.084488  -0.103969  0  3.99192  0
C  C109  1  0.13105574  0.11143158  0.00379587  1  0  -0.083478  0  3.750697  0  0  -0.104985  0  4.004089  0  0  -0.106382  0  4.022985  0  0  -0.084487  -0.103947  0  3.991828  0
C  C110  1  0.87360742  0.97289662  0.07564033  1  0  -0.099667  0  3.720262  0  0  -0.122447  0  3.973884  0  0  -0.123194  0  3.992842  0  0  -0.084784  -0.122019  0  3.961124  0
C  C111  1  0.12639297  0.02710448  0.92435649  1  0  -0.099629  0  3.720222  0  0  -0.122399  0  3.973849  0  0  -0.123146  0  3.992809  0  0  -0.084796  -0.121981  0  3.961098  0
C  C112  1  0.12954945  0.33147309  0.34485567  1  0  0.683878  0  3.831161  0  0  0.629341  0  4.128067  0  0  0.663752  0  4.118235  0  0  0.224126  0.60541  0  4.1346  0
C  C113  1  0.87045155  0.66852543  0.65514652  1  0  0.683988  0  3.831055  0  0  0.629454  0  4.127955  0  0  0.663864  0  4.118122  0  0  0.224147  0.605518  0  4.134497  0
C  C114  1  0.98456650  0.31815154  0.51820356  1  0  0.616832  0  3.95338  0  0  0.567916  0  4.247596  0  0  0.601617  0  4.240679  0  0  0.192579  0.545106  0  4.251747  0
C  C115  1  0.01543328  0.68184615  0.48179822  1  0  0.616801  0  3.953411  0  0  0.567877  0  4.247652  0  0  0.601576  0  4.240741  0  0  0.192527  0.545071  0  4.251799  0
C  C116  1  0.92604759  0.63999727  0.16580022  1  0  0.70226  0  3.857022  0  0  0.647412  0  4.148889  0  0  0.684036  0  4.138205  0  0  0.228872  0.622474  0  4.155472  0
C  C117  1  0.07395368  0.36000298  0.83419603  1  0  0.702288  0  3.856997  0  0  0.647352  0  4.149016  0  0  0.683966  0  4.138359  0  0  0.228908  0.622413  0  4.155594  0
C  C118  1  0.90178993  0.69294744  0.94068964  1  0  0.657625  0  3.915559  0  0  0.604513  0  4.216702  0  0  0.639283  0  4.207758  0  0  0.205228  0.580849  0  4.222143  0
C  C119  1  0.09821045  0.30705366  0.05930641  1  0  0.657539  0  3.915739  0  0  0.604443  0  4.21685  0  0  0.639209  0  4.207907  0  0  0.205165  0.580787  0  4.222283  0
N  N120  1  0.34696806  0.59889756  0.28181594  1  0  -0.340115  0  3.340711  0  0  -0.254353  0  3.623884  0  0  -0.274563  0  3.638861  0  0  -0.332515  -0.240679  0  3.613563  0
N  N121  1  0.65303310  0.40110179  0.71818711  1  0  -0.339973  0  3.340679  0  0  -0.254185  0  3.623817  0  0  -0.274395  0  3.638797  0  0  -0.332432  -0.240519  0  3.613501  0
N  N122  1  0.74808718  0.38250650  0.28355271  1  0  -0.352535  0  3.378372  0  0  -0.267626  0  3.659049  0  0  -0.288865  0  3.677303  0  0  -0.341042  -0.253276  0  3.646478  0
N  N123  1  0.25191353  0.61749627  0.71644507  1  0  -0.352571  0  3.378429  0  0  -0.267699  0  3.65915  0  0  -0.288933  0  3.6774  0  0  -0.341072  -0.253353  0  3.646585  0
O  O124  1  0.07631358  0.42492322  0.31120287  1  0  -0.717389  0  2.212785  0  0  -0.623646  0  2.534143  0  0  -0.655392  0  2.507421  0  0  -0.334013  -0.600634  0  2.551315  0
O  O125  1  0.92368497  0.57507365  0.68879698  1  0  -0.717434  0  2.212711  0  0  -0.623683  0  2.534057  0  0  -0.655419  0  2.507317  0  0  -0.33401  -0.600674  0  2.551234  0
O  O126  1  0.25171341  0.31853660  0.35503527  1  0  -0.546352  0  1.937929  0  0  -0.502558  0  2.158804  0  0  -0.525372  0  2.152766  0  0  -0.27943  -0.486701  0  2.162773  0
O  O127  1  0.74828790  0.68146361  0.64496558  1  0  -0.546381  0  1.937906  0  0  -0.50259  0  2.158769  0  0  -0.525405  0  2.152729  0  0  -0.279436  -0.486733  0  2.162743  0
O  O128  1  0.07795014  0.40566065  0.52934554  1  0  -0.659442  0  2.051443  0  0  -0.581629  0  2.319371  0  0  -0.610847  0  2.304203  0  0  -0.325131  -0.561074  0  2.328732  0
O  O129  1  0.92205053  0.59433618  0.47065720  1  0  -0.659434  0  2.051513  0  0  -0.581602  0  2.319432  0  0  -0.61082  0  2.304261  0  0  -0.32507  -0.561045  0  2.328777  0
O  O130  1  0.90666953  0.31295701  0.57313802  1  0  -0.603788  0  1.959395  0  0  -0.556303  0  2.194334  0  0  -0.579701  0  2.185293  0  0  -0.31193  -0.540155  0  2.200033  0
O  O131  1  0.09332887  0.68703901  0.42686249  1  0  -0.603775  0  1.959332  0  0  -0.556271  0  2.19426  0  0  -0.579669  0  2.185222  0  0  -0.311924  -0.540126  0  2.199954  0
O  O132  1  0.85787481  0.59629346  0.22045247  1  0  -0.638755  0  2.080843  0  0  -0.570487  0  2.344112  0  0  -0.598291  0  2.328824  0  0  -0.314055  -0.550911  0  2.353866  0
O  O133  1  0.14212980  0.40370758  0.77954708  1  0  -0.638755  0  2.080858  0  0  -0.570459  0  2.344163  0  0  -0.598251  0  2.32887  0  0  -0.314085  -0.550881  0  2.353914  0
O  O134  1  0.02472403  0.60123097  0.14321063  1  0  -0.631225  0  2.07107  0  0  -0.555124  0  2.342283  0  0  -0.583919  0  2.324375  0  0  -0.308551  -0.535258  0  2.354083  0
O  O135  1  0.97527692  0.39876760  0.85678619  1  0  -0.63129  0  2.071162  0  0  -0.555109  0  2.342357  0  0  -0.583905  0  2.324464  0  0  -0.308574  -0.535243  0  2.354154  0
O  O136  1  0.80524460  0.60516288  0.90358265  1  0  -0.650115  0  2.008265  0  0  -0.576279  0  2.274364  0  0  -0.606627  0  2.258845  0  0  -0.330048  -0.554993  0  2.284135  0
O  O137  1  0.19475669  0.39483735  0.09641591  1  0  -0.65005  0  2.008276  0  0  -0.576216  0  2.274341  0  0  -0.606567  0  2.258824  0  0  -0.330025  -0.55494  0  2.284114  0
O  O138  1  0.00519181  0.71278568  0.91211428  1  0  -0.607827  0  1.938968  0  0  -0.559238  0  2.168783  0  0  -0.5837  0  2.159718  0  0  -0.308145  -0.541791  0  2.174212  0
O  O139  1  0.99480809  0.28721290  0.08788224  1  0  -0.607797  0  1.939042  0  0  -0.559211  0  2.168835  0  0  -0.583673  0  2.159773  0  0  -0.308087  -0.541761  0  2.174261  0
