# generated using pymatgen
data_NiH9C4NO6
_symmetry_space_group_name_H-M   'P 1'
_cell_length_a   7.35032503
_cell_length_b   9.02581525
_cell_length_c   12.20737665
_cell_angle_alpha   90.00021863
_cell_angle_beta   89.99940345
_cell_angle_gamma   89.99996520
_symmetry_Int_Tables_number   1
_chemical_formula_structural   NiH9C4NO6
_chemical_formula_sum   'Ni4 H36 C16 N4 O24'
_cell_volume   809.87003122
_cell_formula_units_Z   4
loop_
 _symmetry_equiv_pos_site_id
 _symmetry_equiv_pos_as_xyz
  1  'x, y, z'
loop_
 _atom_site_type_symbol
 _atom_site_label
 _atom_site_symmetry_multiplicity
 _atom_site_fract_x
 _atom_site_fract_y
 _atom_site_fract_z
 _atom_site_occupancy
 _atom_site_pbe_cm5_charge
 _atom_site_pbe_ddec_charge
 _atom_site_pbe_ddec_spin_density
 _atom_site_pbe_ddec_sum_bond_order
 _atom_site_pbe_magmom
Ni  Ni0  1  0.90339662  0.94531842  0.92829294  1  0.607231  0.867287  1.774787  2.296628  1.573
Ni  Ni1  1  0.09660137  0.55468116  0.42829479  1  0.607217  0.867304  1.774794  2.296607  1.573
Ni  Ni2  1  0.59660006  0.44531603  0.07170376  1  0.607254  0.867336  1.774784  2.296444  1.573
Ni  Ni3  1  0.40339627  0.05468008  0.57170968  1  0.607276  0.867255  1.77478  2.296561  1.573
H  H4  1  0.09384135  0.71682564  0.69102879  1  0.114536  0.08257  0.002181  1.000744  0.003
H  H5  1  0.90617434  0.78317826  0.19103848  1  0.11458  0.08267  0.00218  1.000733  0.003
H  H6  1  0.40617114  0.21682210  0.30896713  1  0.114556  0.082634  0.002181  1.000683  0.003
H  H7  1  0.59383742  0.28318188  0.80896595  1  0.114529  0.082605  0.002181  1.000715  0.003
H  H8  1  0.21728606  0.83093542  0.86411490  1  0.312425  0.306141  0.000616  0.900263  0.0
H  H9  1  0.78271032  0.66905387  0.36412012  1  0.312444  0.306247  0.000615  0.900196  0.0
H  H10  1  0.28271682  0.33094323  0.13588299  1  0.312451  0.306289  0.000615  0.900194  0.0
H  H11  1  0.71728519  0.16905654  0.63588481  1  0.312492  0.30625  0.000616  0.900224  0.0
H  H12  1  0.14050244  0.95012665  0.77334806  1  0.295974  0.305363  -0.00036  0.975387  0.0
H  H13  1  0.85951047  0.54987103  0.27334427  1  0.295976  0.30543  -0.00036  0.975301  0.0
H  H14  1  0.35950852  0.45012825  0.22665754  1  0.295962  0.305408  -0.00036  0.975302  0.0
H  H15  1  0.64049601  0.04987753  0.72665213  1  0.296002  0.305341  -0.000359  0.975432  0.0
H  H16  1  0.97502746  0.50541983  0.78911559  1  0.101821  0.117612  0.000279  1.0043  0.0
H  H17  1  0.02493620  0.99458569  0.28914289  1  0.101853  0.117554  0.000279  1.00423  0.0
H  H18  1  0.52495048  0.00541487  0.21086430  1  0.101866  0.117615  0.000279  1.004307  0.0
H  H19  1  0.47503937  0.49458417  0.71086938  1  0.101881  0.117592  0.00028  1.004286  0.0
H  H20  1  0.14892449  0.58254570  0.87059035  1  0.108331  0.142615  0.000506  1.006759  0.0
H  H21  1  0.85105137  0.91743918  0.37060814  1  0.108368  0.142625  0.000506  1.006681  0.0
H  H22  1  0.35105680  0.08255677  0.12939782  1  0.108349  0.142678  0.000506  1.006725  0.0
H  H23  1  0.64893581  0.41744740  0.62939913  1  0.108366  0.142684  0.000506  1.006759  0.0
H  H24  1  0.03016391  0.21098372  0.86786971  1  0.286866  0.381327  0.000336  0.956711  0.0
H  H25  1  0.96983956  0.28901724  0.36787410  1  0.286933  0.3814  0.000335  0.956604  0.0
H  H26  1  0.46985267  0.71097976  0.13213193  1  0.286896  0.381388  0.000335  0.956667  0.0
H  H27  1  0.53017356  0.78901830  0.63212380  1  0.286863  0.381305  0.000336  0.956713  0.0
H  H28  1  0.82718535  0.21840901  0.92011595  1  0.290562  0.381098  0.000312  0.960297  0.0
H  H29  1  0.17280769  0.28159111  0.42011878  1  0.290599  0.381076  0.000311  0.960343  0.0
H  H30  1  0.67281285  0.71839829  0.07988502  1  0.290647  0.381133  0.000311  0.960267  0.0
H  H31  1  0.32718843  0.78158510  0.57988470  1  0.290552  0.381036  0.000312  0.960379  0.0
H  H32  1  0.14069741  0.91156772  0.09435363  1  0.287222  0.376113  0.000326  0.973065  0.0
H  H33  1  0.85930362  0.58843014  0.59434532  1  0.287309  0.376193  0.000325  0.972982  0.0
H  H34  1  0.35930134  0.41158057  0.90565267  1  0.287306  0.376187  0.000325  0.972979  0.0
H  H35  1  0.64069195  0.08842724  0.40564710  1  0.2873  0.376215  0.000325  0.97293  0.0
H  H36  1  0.99717668  0.04122290  0.11291553  1  0.31407  0.387684  -0.000235  0.90442  0.0
H  H37  1  0.00281757  0.45877565  0.61291857  1  0.314081  0.387712  -0.000235  0.904446  0.0
H  H38  1  0.50282164  0.54122417  0.88708740  1  0.314089  0.387732  -0.000236  0.904415  0.0
H  H39  1  0.49717299  0.95877298  0.38708050  1  0.313999  0.387607  -0.000235  0.904487  0.0
C  C40  1  0.82285090  0.78614451  0.73321584  1  0.21808  0.568225  -0.000741  4.111343  -0.001
C  C41  1  0.17715453  0.71386848  0.23323156  1  0.218223  0.568305  -0.000742  4.110927  -0.001
C  C42  1  0.67714725  0.28613533  0.26677631  1  0.218193  0.568239  -0.000742  4.111076  -0.001
C  C43  1  0.32284979  0.21385625  0.76677992  1  0.218142  0.568363  -0.000741  4.11113  -0.001
C  C44  1  0.01721687  0.74256425  0.76600997  1  -0.003927  0.048577  0.001235  3.879296  0.0
C  C45  1  0.98277847  0.75743339  0.26601746  1  -0.003928  0.048441  0.001236  3.8795  0.0
C  C46  1  0.48278063  0.24256914  0.23398603  1  -0.003906  0.048578  0.001235  3.879418  0.0
C  C47  1  0.51721698  0.25743999  0.73398363  1  -0.003941  0.048432  0.001235  3.879346  0.0
C  C48  1  0.01142064  0.60299256  0.83799167  1  -0.162962  -0.350828  0.003686  3.890528  0.005
C  C49  1  0.98856667  0.89700213  0.33800936  1  -0.163135  -0.350808  0.003685  3.890399  0.005
C  C50  1  0.48857696  0.10299486  0.16199738  1  -0.163089  -0.351014  0.003685  3.890618  0.005
C  C51  1  0.51142869  0.39700615  0.66199622  1  -0.163149  -0.350934  0.003686  3.89067  0.005
C  C52  1  0.88309554  0.60841702  0.93563154  1  0.215776  0.643938  -0.002569  4.109655  -0.002
C  C53  1  0.11689145  0.89160365  0.43564650  1  0.215798  0.643945  -0.002565  4.109764  -0.002
C  C54  1  0.61689186  0.10840129  0.06435848  1  0.215694  0.643952  -0.00257  4.109783  -0.002
C  C55  1  0.38311003  0.39157706  0.56435729  1  0.21568  0.643908  -0.00257  4.109853  -0.002
N  N56  1  0.10135273  0.86645569  0.82600884  1  -0.622135  -0.58859  0.044482  3.384036  0.067
N  N57  1  0.89866063  0.63354226  0.32601160  1  -0.622183  -0.588798  0.044468  3.384287  0.067
N  N58  1  0.39866238  0.36645588  0.17399242  1  -0.622157  -0.588819  0.044473  3.384288  0.067
N  N59  1  0.60135803  0.13353744  0.67398831  1  -0.622216  -0.588646  0.04449  3.384106  0.067
O  O60  1  0.74173830  0.88188229  0.79255495  1  -0.299979  -0.519694  0.039049  2.276223  0.066
O  O61  1  0.25827836  0.61812435  0.29256906  1  -0.299944  -0.519632  0.039052  2.276112  0.066
O  O62  1  0.75827883  0.38187387  0.20743666  1  -0.299947  -0.519643  0.039053  2.27607  0.066
O  O63  1  0.24174508  0.11812405  0.70744542  1  -0.299975  -0.519681  0.039045  2.276489  0.066
O  O64  1  0.74963990  0.72180553  0.65170953  1  -0.301315  -0.52613  0.003414  2.197321  0.006
O  O65  1  0.25039007  0.77822919  0.15173316  1  -0.301454  -0.526265  0.003414  2.197139  0.006
O  O66  1  0.75037871  0.22178343  0.34827835  1  -0.301435  -0.526242  0.003414  2.197137  0.006
O  O67  1  0.24962374  0.27821964  0.84828260  1  -0.301386  -0.526259  0.003416  2.196981  0.006
O  O68  1  0.86338161  0.72813378  0.99014962  1  -0.303282  -0.55863  0.033447  2.355908  0.057
O  O69  1  0.13660580  0.77186391  0.49016330  1  -0.303432  -0.558816  0.033467  2.355541  0.057
O  O70  1  0.63661658  0.22812883  0.00984319  1  -0.303289  -0.558643  0.033461  2.355651  0.057
O  O71  1  0.36339441  0.27186696  0.50984998  1  -0.30312  -0.558439  0.033439  2.356271  0.057
O  O72  1  0.80207311  0.48789724  0.95865049  1  -0.316914  -0.557834  0.033594  2.308734  0.056
O  O73  1  0.19789886  0.01209533  0.45867534  1  -0.316759  -0.557607  0.033576  2.309153  0.056
O  O74  1  0.69791129  0.98789517  0.04132749  1  -0.316789  -0.557729  0.033588  2.308995  0.056
O  O75  1  0.30207840  0.51210907  0.54133639  1  -0.316904  -0.557913  0.033605  2.308456  0.056
O  O76  1  0.90730744  0.16385534  0.86850011  1  -0.579472  -0.766251  0.035083  2.172668  0.056
O  O77  1  0.09269601  0.33612790  0.36850852  1  -0.579559  -0.766248  0.035069  2.172589  0.056
O  O78  1  0.59270168  0.66386819  0.13149743  1  -0.579587  -0.76631  0.035074  2.172571  0.056
O  O79  1  0.40730687  0.83613984  0.63149840  1  -0.579448  -0.766128  0.035087  2.172687  0.056
O  O80  1  0.08488144  0.00384688  0.05983241  1  -0.562933  -0.740626  0.030578  2.125002  0.049
O  O81  1  0.91510556  0.49614807  0.55983964  1  -0.563004  -0.740688  0.030577  2.12501  0.049
O  O82  1  0.41510262  0.50385153  0.94016373  1  -0.563038  -0.740728  0.030578  2.124977  0.049
O  O83  1  0.58487612  0.99614479  0.44016375  1  -0.562928  -0.740641  0.03058  2.124924  0.049
