# generated using pymatgen
data_CdH23C33S(N3O2)2
_symmetry_space_group_name_H-M   'P 1'
_cell_length_a   9.37894522
_cell_length_b   10.87875226
_cell_length_c   36.25965548
_cell_angle_alpha   90.00043461
_cell_angle_beta   90.00051766
_cell_angle_gamma   101.10774813
_symmetry_Int_Tables_number   1
_chemical_formula_structural   CdH23C33S(N3O2)2
_chemical_formula_sum   'Cd4 H92 C132 S4 N24 O16'
_cell_volume   3630.31061077
_cell_formula_units_Z   4
loop_
 _symmetry_equiv_pos_site_id
 _symmetry_equiv_pos_as_xyz
  1  'x, y, z'
loop_
 _atom_site_type_symbol
 _atom_site_label
 _atom_site_symmetry_multiplicity
 _atom_site_fract_x
 _atom_site_fract_y
 _atom_site_fract_z
 _atom_site_occupancy
 _atom_site_pbe_bader_charge
 _atom_site_pbe_bader_spin_density
 _atom_site_pbe_cm5_charge
 _atom_site_pbe_ddec_charge
 _atom_site_pbe_ddec_spin_density
 _atom_site_pbe_ddec_sum_bond_order
 _atom_site_pbe_magmom
Cd  Cd0  1  0.26000671  0.84986091  0.63276871  1  1.256275  0  0.76888  0.826167  0  2.230667  0
Cd  Cd1  1  0.23999249  0.15013560  0.13277005  1  1.256371  0  0.768897  0.826171  0  2.230673  0
Cd  Cd2  1  0.73999894  0.15014202  0.36723066  1  1.256275  0  0.768914  0.826201  0  2.230809  0
Cd  Cd3  1  0.76000103  0.84986077  0.86723512  1  1.256197  0  0.768853  0.826059  0  2.230931  0
H  H4  1  0.54982795  0.51958292  0.58108700  1  0.079133  0  0.110015  0.126298  0  0.984236  0
H  H5  1  0.54078932  0.27207570  0.58104920  1  0.092603  0  0.110472  0.128494  0  0.984518  0
H  H6  1  0.33491425  0.74149001  0.71891153  1  0.131564  0  0.115936  0.112617  0  1.023073  0
H  H7  1  0.55995705  0.86199622  0.76413988  1  0.141292  0  0.119009  0.116258  0  1.067635  0
H  H8  1  0.55587878  0.06108242  0.66337602  1  0.171469  0  0.13906  0.113356  0  1.002264  0
H  H9  1  0.66696076  0.04321654  0.78839965  1  0.102574  0  0.109911  0.126373  0  1.010627  0
H  H10  1  0.86402232  0.20661506  0.80989034  1  0.059944  0  0.099159  0.096927  0  1.047021  0
H  H11  1  0.98880368  0.30372211  0.69739283  1  0.074523  0  0.10289  0.104556  0  1.012048  0
H  H12  1  0.79449022  0.13536730  0.67553645  1  0.061602  0  0.111251  0.118678  0  0.990347  0
H  H13  1  0.54265202  0.62213795  0.81350134  1  0.183625  0  0.137  0.120015  0  1.00507  0
H  H14  1  0.45610614  0.97500218  0.84236043  1  0.145067  0  0.116811  0.121349  0  1.028923  0
H  H15  1  0.19743385  0.82188267  0.81747114  1  0.148484  0  0.117896  0.11466  0  1.06101  0
H  H16  1  0.09217216  0.58712808  0.84095801  1  0.108762  0  0.109784  0.123949  0  1.005648  0
H  H17  1  0.92035019  0.40407542  0.81756665  1  0.095699  0  0.092184  0.084821  0  1.087816  0
H  H18  1  0.19901277  0.38505689  0.72381835  1  0.060091  0  0.10013  0.099029  0  1.036598  0
H  H19  1  0.37339947  0.56615102  0.74804596  1  0.088472  0  0.104401  0.110643  0  1.029453  0
H  H20  1  0.19544844  0.68137056  0.54909557  1  0.113345  0  0.12392  0.124353  0  0.993432  0
H  H21  1  0.95939410  0.70196050  0.50364706  1  0.126055  0  0.127712  0.128711  0  0.994566  0
H  H22  1  0.98617535  0.95869157  0.59235975  1  0.146974  0  0.134852  0.103114  0  1.018907  0
H  H23  1  0.71218884  0.88130454  0.58545636  1  0.073398  0  0.105193  0.11323  0  1.001801  0
H  H24  1  0.50317854  0.96549487  0.56455254  1  0.138762  0  0.104318  0.119026  0  1.043587  0
H  H25  1  0.66229488  0.97017165  0.45232055  1  0.122499  0  0.100613  0.105866  0  1.055185  0
H  H26  1  0.87656656  0.89339780  0.47417751  1  0.058514  0  0.103126  0.108763  0  1.007811  0
H  H27  1  0.95014770  0.48040866  0.08108515  1  0.079001  0  0.110032  0.126339  0  0.984363  0
H  H28  1  0.95919421  0.72791776  0.08104958  1  0.092469  0  0.110448  0.128572  0  0.984484  0
H  H29  1  0.16508739  0.25849900  0.21891293  1  0.131607  0  0.115902  0.112508  0  1.023098  0
H  H30  1  0.94005103  0.13797793  0.26413944  1  0.140624  0  0.119079  0.11641  0  1.067338  0
H  H31  1  0.94411530  0.93891185  0.16337132  1  0.171732  0  0.139088  0.113464  0  1.002296  0
H  H32  1  0.83304378  0.95677619  0.28839805  1  0.102459  0  0.109905  0.126363  0  1.010507  0
H  H33  1  0.63597927  0.79338493  0.30988902  1  0.060025  0  0.099163  0.096866  0  1.046969  0
H  H34  1  0.51119127  0.69626109  0.19739211  1  0.074565  0  0.102916  0.104568  0  1.011967  0
H  H35  1  0.70550897  0.86460489  0.17553462  1  0.061665  0  0.111235  0.118712  0  0.990363  0
H  H36  1  0.95734035  0.37785841  0.31349789  1  0.183603  0  0.136982  0.120017  0  1.005157  0
H  H37  1  0.04390284  0.02500023  0.34235137  1  0.14506  0  0.11677  0.121425  0  1.028772  0
H  H38  1  0.30256445  0.17812360  0.31746441  1  0.148633  0  0.117961  0.114698  0  1.061046  0
H  H39  1  0.40781736  0.41287333  0.34095481  1  0.109032  0  0.109833  0.124027  0  1.005688  0
H  H40  1  0.57964234  0.59592576  0.31756531  1  0.097229  0  0.092175  0.084844  0  1.087792  0
H  H41  1  0.30097876  0.61494819  0.22381784  1  0.059993  0  0.100175  0.099067  0  1.03669  0
H  H42  1  0.12658841  0.43385298  0.24804298  1  0.088253  0  0.10444  0.110675  0  1.029509  0
H  H43  1  0.30452891  0.31861290  0.04909550  1  0.113453  0  0.123927  0.124387  0  0.993422  0
H  H44  1  0.54058952  0.29803605  0.00364937  1  0.125767  0  0.127704  0.128774  0  0.994644  0
H  H45  1  0.51382438  0.04131538  0.09236225  1  0.147033  0  0.134873  0.103087  0  1.018937  0
H  H46  1  0.78781335  0.11870499  0.08545746  1  0.07327  0  0.105213  0.113305  0  1.001984  0
H  H47  1  0.99682167  0.03451867  0.06455393  1  0.139152  0  0.104296  0.118978  0  1.043694  0
H  H48  1  0.83771692  0.02985640  0.95232086  1  0.122603  0  0.100583  0.1059  0  1.055184  0
H  H49  1  0.62343792  0.10661785  0.97417667  1  0.058478  0  0.103104  0.108793  0  1.007719  0
H  H50  1  0.45016836  0.48041157  0.41889942  1  0.079684  0  0.110093  0.126479  0  0.984265  0
H  H51  1  0.45920762  0.72792160  0.41894135  1  0.092374  0  0.110402  0.128471  0  0.984455  0
H  H52  1  0.66512930  0.25848203  0.28108757  1  0.131773  0  0.115897  0.112447  0  1.023035  0
H  H53  1  0.44007516  0.13798237  0.23586088  1  0.140655  0  0.11903  0.116402  0  1.067095  0
H  H54  1  0.44412838  0.93891770  0.33662970  1  0.171726  0  0.139109  0.113509  0  1.002292  0
H  H55  1  0.33304686  0.95677609  0.21160303  1  0.102423  0  0.10992  0.126419  0  1.010446  0
H  H56  1  0.13597480  0.79338787  0.19011234  1  0.060164  0  0.099128  0.096883  0  1.046806  0
H  H57  1  0.01121189  0.69625834  0.30260957  1  0.074376  0  0.102926  0.10463  0  1.011934  0
H  H58  1  0.20552816  0.86460660  0.32446651  1  0.061455  0  0.111252  0.118649  0  0.990444  0
H  H59  1  0.45735597  0.37786592  0.18650024  1  0.183792  0  0.137012  0.120077  0  1.005074  0
H  H60  1  0.54390060  0.02499607  0.15764667  1  0.145073  0  0.116781  0.121394  0  1.028884  0
H  H61  1  0.80256799  0.17811276  0.18253651  1  0.148544  0  0.117939  0.114658  0  1.060994  0
H  H62  1  0.90783651  0.41286923  0.15904605  1  0.108851  0  0.109833  0.124065  0  1.005445  0
H  H63  1  0.07964776  0.59593126  0.18243658  1  0.096799  0  0.092123  0.08473  0  1.087924  0
H  H64  1  0.80098803  0.61493386  0.27618626  1  0.069332  0  0.10015  0.098993  0  1.03666  0
H  H65  1  0.62660498  0.43383692  0.25195838  1  0.088336  0  0.104416  0.110739  0  1.029426  0
H  H66  1  0.80455098  0.31864267  0.45090022  1  0.113199  0  0.123911  0.12432  0  0.993306  0
H  H67  1  0.04062062  0.29806398  0.49634542  1  0.124345  0  0.127763  0.128768  0  0.994651  0
H  H68  1  0.01380814  0.04130761  0.40763852  1  0.146452  0  0.134825  0.103043  0  1.019002  0
H  H69  1  0.28781444  0.11870213  0.41453778  1  0.073054  0  0.10524  0.113361  0  1.0018  0
H  H70  1  0.49681753  0.03450337  0.43544270  1  0.13931  0  0.104313  0.118891  0  1.04368  0
H  H71  1  0.33770458  0.02983221  0.54767468  1  0.122742  0  0.100628  0.105913  0  1.055095  0
H  H72  1  0.12343416  0.10661168  0.52581855  1  0.058615  0  0.103167  0.108838  0  1.007715  0
H  H73  1  0.04986138  0.51959052  0.91890678  1  0.078918  0  0.110105  0.12646  0  0.984326  0
H  H74  1  0.04079910  0.27207767  0.91895117  1  0.092621  0  0.110461  0.128597  0  0.984491  0
H  H75  1  0.83490243  0.74151423  0.78109361  1  0.132162  0  0.115947  0.112484  0  1.02303  0
H  H76  1  0.05994931  0.86202031  0.73586738  1  0.140825  0  0.118996  0.116308  0  1.067108  0
H  H77  1  0.05588066  0.06110980  0.83663163  1  0.171327  0  0.139166  0.113501  0  1.002383  0
H  H78  1  0.16694098  0.04322392  0.71160546  1  0.102055  0  0.10991  0.126425  0  1.010445  0
H  H79  1  0.36401043  0.20660862  0.69011201  1  0.060148  0  0.099126  0.096832  0  1.046907  0
H  H80  1  0.48880154  0.30375120  0.80260892  1  0.074555  0  0.102961  0.104641  0  1.012054  0
H  H81  1  0.29448384  0.13540740  0.82446668  1  0.061519  0  0.111239  0.118631  0  0.990438  0
H  H82  1  0.04266576  0.62213703  0.68650369  1  0.183453  0  0.136954  0.120012  0  1.005118  0
H  H83  1  0.95611690  0.97499897  0.65765103  1  0.145349  0  0.116709  0.121281  0  1.028949  0
H  H84  1  0.69745015  0.82188121  0.68253635  1  0.148825  0  0.117862  0.114565  0  1.060976  0
H  H85  1  0.59217274  0.58712679  0.65904760  1  0.10902  0  0.109814  0.124008  0  1.005619  0
H  H86  1  0.42035330  0.40407530  0.68243765  1  0.096991  0  0.092102  0.084701  0  1.087944  0
H  H87  1  0.69902068  0.38506036  0.77618429  1  0.059855  0  0.100137  0.099021  0  1.036674  0
H  H88  1  0.87340785  0.56615089  0.75195832  1  0.088218  0  0.104445  0.110704  0  1.02944  0
H  H89  1  0.69543707  0.68134599  0.95090360  1  0.113266  0  0.123857  0.124238  0  0.993406  0
H  H90  1  0.45936174  0.70192376  0.99634587  1  0.124188  0  0.127703  0.128685  0  0.994538  0
H  H91  1  0.48619362  0.95869036  0.90764209  1  0.146587  0  0.134825  0.103016  0  1.019161  0
H  H92  1  0.21218481  0.88130262  0.91453888  1  0.073164  0  0.105214  0.113315  0  1.001943  0
H  H93  1  0.00318449  0.96551049  0.93544296  1  0.139298  0  0.104268  0.118897  0  1.043658  0
H  H94  1  0.16229376  0.97016433  0.04767631  1  0.122723  0  0.100606  0.105898  0  1.055134  0
H  H95  1  0.37655583  0.89337477  0.02582022  1  0.05872  0  0.103185  0.108814  0  1.007789  0
C  C96  1  0.32358410  0.60982156  0.62132246  1  1.597851  0  0.173072  0.557523  0  4.310329  0
C  C97  1  0.34942649  0.48244356  0.61244858  1  -0.236123  0  -0.027263  -0.113908  0  3.974807  0
C  C98  1  0.46504991  0.44953403  0.59361507  1  -0.001866  0  -0.099021  -0.114528  0  4.006811  0
C  C99  1  0.46034540  0.31885886  0.59365022  1  0.014942  0  -0.100092  -0.111196  0  4.004397  0
C  C100  1  0.33988328  0.25294993  0.61201780  1  -0.254402  0  -0.034551  -0.132973  0  4.003261  0
C  C101  1  0.30067113  0.11650926  0.61948954  1  1.597022  0  0.178183  0.557471  0  4.305417  0
C  C102  1  0.41496100  0.82621494  0.71435596  1  0.39561  0  -0.003909  -0.036303  0  4.010422  0
C  C103  1  0.52467536  0.88476325  0.73699261  1  0.276405  0  -0.002319  -0.108218  0  3.920012  0
C  C104  1  0.52744225  0.98948164  0.68432317  1  0.936914  0  0.142818  0.094043  0  3.906981  0
C  C105  1  0.71541898  0.07965584  0.73032225  1  0.290976  0  0.093981  0.16473  0  4.019305  0
C  C106  1  0.73767601  0.09857570  0.76816325  1  -0.021851  0  -0.087472  -0.148964  0  3.954165  0
C  C107  1  0.84988265  0.19250565  0.78028799  1  0.008299  0  -0.087523  -0.112479  0  3.972826  0
C  C108  1  0.94057771  0.27051254  0.75544459  1  0.043902  0  -0.009148  0.055504  0  4.005741  0
C  C109  1  0.91994592  0.24624334  0.71756690  1  -0.03331  0  -0.083018  -0.101594  0  3.969054  0
C  C110  1  0.80896845  0.15176702  0.70504835  1  -0.054797  0  -0.090686  -0.165086  0  3.990649  0
C  C111  1  0.48685869  0.69993376  0.81682378  1  0.970678  0  0.142636  0.100889  0  3.884592  0
C  C112  1  0.43421297  0.87905945  0.83262716  1  0.400449  0  -0.009744  -0.05603  0  4.039997  0
C  C113  1  0.30719479  0.80589305  0.82036565  1  0.238019  0  -0.004047  -0.104195  0  3.919995  0
C  C114  1  0.24333454  0.58735823  0.79594507  1  0.265361  0  0.088978  0.157151  0  4.033335  0
C  C115  1  0.11557218  0.54209696  0.81540093  1  -0.001899  0  -0.088542  -0.155435  0  3.971768  0
C  C116  1  0.01971601  0.43809249  0.80209749  1  -0.044585  0  -0.087522  -0.1061  0  3.96089  0
C  C117  1  0.04728564  0.37872130  0.76907784  1  0.029699  0  -0.008582  0.056049  0  3.995132  0
C  C118  1  0.17473494  0.42816740  0.74956076  1  -0.079081  0  -0.085152  -0.10443  0  3.970709  0
C  C119  1  0.27322348  0.53073549  0.76301919  1  -0.028011  0  -0.092682  -0.16787  0  4.000888  0
C  C120  1  0.11595808  0.74136567  0.55124200  1  0.408158  0  -0.000227  -0.028276  0  4.009868  0
C  C121  1  0.00132689  0.75107863  0.52850807  1  0.308538  0  -0.001908  -0.11489  0  3.932413  0
C  C122  1  0.01035495  0.88393271  0.57514547  1  0.955978  0  0.140715  0.093212  0  3.915157  0
C  C123  1  0.80911532  0.88437574  0.53122926  1  0.282239  0  0.084761  0.14901  0  4.051678  0
C  C124  1  0.70294841  0.90436820  0.55638108  1  -0.044721  0  -0.092659  -0.161076  0  3.997545  0
C  C125  1  0.58279590  0.95020825  0.54408689  1  0.02809  0  -0.083512  -0.09963  0  3.936916  0
C  C126  1  0.56418505  0.97559160  0.50649774  1  -0.065969  0  -0.006449  0.060551  0  3.978481  0
C  C127  1  0.67157883  0.95238610  0.48166804  1  -0.065678  0  -0.087565  -0.107143  0  3.959316  0
C  C128  1  0.79300401  0.90792268  0.49374629  1  -0.024857  0  -0.097475  -0.170275  0  4.015634  0
C  C129  1  0.17639737  0.39016894  0.12132060  1  1.598252  0  0.173107  0.55732  0  4.310567  0
C  C130  1  0.15055034  0.51754665  0.11244722  1  -0.235938  0  -0.027306  -0.113859  0  3.974973  0
C  C131  1  0.03492929  0.55046025  0.09361407  1  -0.002287  0  -0.099  -0.114501  0  4.007174  0
C  C132  1  0.03963614  0.68113636  0.09365256  1  0.015405  0  -0.10011  -0.111444  0  4.004554  0
C  C133  1  0.16009992  0.74704026  0.11202002  1  -0.254508  0  -0.034458  -0.132775  0  4.003279  0
C  C134  1  0.19931388  0.88348306  0.11949188  1  1.596381  0  0.178229  0.557421  0  4.305486  0
C  C135  1  0.08503662  0.17377110  0.21435534  1  0.395888  0  -0.003728  -0.036104  0  4.010254  0
C  C136  1  0.97532704  0.11521845  0.23699138  1  0.276667  0  -0.002372  -0.108356  0  3.919932  0
C  C137  1  0.97255425  0.01050582  0.18432087  1  0.937277  0  0.142708  0.093793  0  3.90702  0
C  C138  1  0.78458632  0.92033031  0.23031963  1  0.291091  0  0.094018  0.164826  0  4.019077  0
C  C139  1  0.76232705  0.90141357  0.26816109  1  -0.021403  0  -0.087388  -0.148806  0  3.953707  0
C  C140  1  0.65011963  0.80748776  0.28028618  1  0.007953  0  -0.087514  -0.112335  0  3.9725  0
C  C141  1  0.55941518  0.72948099  0.25544240  1  0.044213  0  -0.009154  0.055451  0  4.005911  0
C  C142  1  0.58005007  0.75374614  0.21756591  1  -0.033421  0  -0.083014  -0.10143  0  3.969305  0
C  C143  1  0.69103046  0.84821363  0.20504617  1  -0.055019  0  -0.090807  -0.165455  0  3.990761  0
C  C144  1  0.01313684  0.30006500  0.31681859  1  0.970837  0  0.142711  0.100966  0  3.884967  0
C  C145  1  0.06579047  0.12094357  0.33262224  1  0.400674  0  -0.009797  -0.056271  0  4.040333  0
C  C146  1  0.19280386  0.19410957  0.32035897  1  0.237703  0  -0.004093  -0.104159  0  3.920511  0
C  C147  1  0.25665603  0.41264546  0.29594152  1  0.264226  0  0.088912  0.157244  0  4.033587  0
C  C148  1  0.38441580  0.45790643  0.31539861  1  -0.001331  0  -0.088444  -0.155321  0  3.971871  0
C  C149  1  0.48027503  0.56191234  0.30209562  1  -0.046378  0  -0.087594  -0.106262  0  3.961128  0
C  C150  1  0.45270037  0.62128058  0.26907576  1  0.030227  0  -0.008606  0.055926  0  3.995532  0
C  C151  1  0.32525134  0.57182916  0.24955910  1  -0.079495  0  -0.085156  -0.104518  0  3.971035  0
C  C152  1  0.22676056  0.46926806  0.26301763  1  -0.027617  0  -0.092787  -0.167876  0  4.000985  0
C  C153  1  0.38402891  0.25862723  0.05124171  1  0.407878  0  -0.000227  -0.028249  0  4.009841  0
C  C154  1  0.49865934  0.24891446  0.02850913  1  0.309142  0  -0.002022  -0.115123  0  3.932769  0
C  C155  1  0.48964071  0.11606659  0.07514647  1  0.955855  0  0.140785  0.093461  0  3.915169  0
C  C156  1  0.69088285  0.11563390  0.03123013  1  0.282546  0  0.084757  0.149184  0  4.051515  0
C  C157  1  0.79705276  0.09564132  0.05638215  1  -0.045313  0  -0.092773  -0.161389  0  3.997903  0
C  C158  1  0.91720878  0.04980462  0.04408841  1  0.027987  0  -0.08347  -0.099536  0  3.937016  0
C  C159  1  0.93582438  0.02442941  0.00649841  1  -0.05485  0  -0.00646  0.060671  0  3.978331  0
C  C160  1  0.82843040  0.04764010  0.98166919  1  -0.036613  0  -0.08756  -0.107402  0  3.959379  0
C  C161  1  0.70699641  0.09209079  0.99374782  1  -0.024456  0  -0.097455  -0.170233  0  4.015569  0
C  C162  1  0.67642380  0.39020104  0.37866257  1  1.598415  0  0.17296  0.557784  0  4.309864  0
C  C163  1  0.65057441  0.51757154  0.38753866  1  -0.236373  0  -0.027223  -0.113817  0  3.975379  0
C  C164  1  0.53494997  0.55047171  0.40637355  1  -0.0019  0  -0.099006  -0.114758  0  4.007423  0
C  C165  1  0.53964576  0.68114125  0.40633702  1  0.015777  0  -0.100141  -0.111257  0  4.004444  0
C  C166  1  0.66011532  0.74705487  0.38797385  1  -0.254826  0  -0.034404  -0.13265  0  4.003068  0
C  C167  1  0.69932191  0.88349929  0.38050845  1  1.597102  0  0.178145  0.557381  0  4.305704  0
C  C168  1  0.58506676  0.17375802  0.28564396  1  0.395257  0  -0.003689  -0.035906  0  4.009896  0
C  C169  1  0.47534855  0.11521159  0.26300869  1  0.277687  0  -0.002298  -0.108522  0  3.919731  0
C  C170  1  0.47257138  0.01050443  0.31567923  1  0.937551  0  0.142818  0.093783  0  3.906936  0
C  C171  1  0.28459483  0.92033585  0.26968264  1  0.290752  0  0.094145  0.165013  0  4.018587  0
C  C172  1  0.26233309  0.90141881  0.23184163  1  -0.021307  0  -0.087409  -0.148986  0  3.953471  0
C  C173  1  0.15012258  0.80749541  0.21971553  1  0.008022  0  -0.087512  -0.112326  0  3.97242  0
C  C174  1  0.05942005  0.72948851  0.24455920  1  0.043885  0  -0.009207  0.055335  0  4.006003  0
C  C175  1  0.08006469  0.75374835  0.28243606  1  -0.032649  0  -0.082947  -0.101519  0  3.969301  0
C  C176  1  0.19104262  0.84821718  0.29495599  1  -0.055038  0  -0.090921  -0.165414  0  3.990884  0
C  C177  1  0.51314656  0.30006262  0.18318055  1  0.970783  0  0.142695  0.100875  0  3.884841  0
C  C178  1  0.56579057  0.12093880  0.16737717  1  0.400634  0  -0.009709  -0.056169  0  4.040339  0
C  C179  1  0.69280643  0.19409958  0.17964145  1  0.237566  0  -0.004162  -0.104154  0  3.920283  0
C  C180  1  0.75666963  0.41264283  0.20405871  1  0.26505  0  0.088984  0.157274  0  4.033353  0
C  C181  1  0.88443198  0.45790410  0.18460230  1  -0.00159  0  -0.088497  -0.155437  0  3.971654  0
C  C182  1  0.98028197  0.56190950  0.19790630  1  -0.045697  0  -0.087598  -0.106141  0  3.961133  0
C  C183  1  0.95270315  0.62128256  0.23092567  1  0.030399  0  -0.00861  0.055887  0  3.995144  0
C  C184  1  0.82526290  0.57181960  0.25044358  1  -0.089191  0  -0.085043  -0.104149  0  3.970689  0
C  C185  1  0.72677582  0.46925807  0.23698514  1  -0.028151  0  -0.092789  -0.168062  0  4.000966  0
C  C186  1  0.88404922  0.25864944  0.44875461  1  0.408657  0  -0.000224  -0.028164  0  4.009702  0
C  C187  1  0.99868935  0.24893835  0.47148578  1  0.310441  0  -0.002044  -0.115206  0  3.932786  0
C  C188  1  0.98963811  0.11607115  0.42485115  1  0.95634  0  0.14084  0.093391  0  3.915094  0
C  C189  1  0.19088453  0.11563468  0.46876653  1  0.282467  0  0.084712  0.149126  0  4.051364  0
C  C190  1  0.29705339  0.09563660  0.44361443  1  -0.044515  0  -0.092577  -0.161287  0  3.997386  0
C  C191  1  0.41720530  0.04978906  0.45590835  1  0.027379  0  -0.083504  -0.09933  0  3.937037  0
C  C192  1  0.43582229  0.02441414  0.49349777  1  -0.025327  0  -0.006717  0.060211  0  3.978613  0
C  C193  1  0.32842511  0.04761870  0.51832692  1  -0.066185  0  -0.08755  -0.107176  0  3.959211  0
C  C194  1  0.20699587  0.09208305  0.50624978  1  -0.024927  0  -0.097477  -0.170376  0  4.01567  0
C  C195  1  0.82360492  0.60982369  0.87867491  1  1.598167  0  0.173197  0.557656  0  4.310543  0
C  C196  1  0.84945107  0.48245160  0.88755022  1  -0.236096  0  -0.02727  -0.113833  0  3.97521  0
C  C197  1  0.96507446  0.44953893  0.90638172  1  -0.002161  0  -0.099166  -0.114757  0  4.007525  0
C  C198  1  0.96036227  0.31886282  0.90634709  1  0.015063  0  -0.100041  -0.111404  0  4.004625  0
C  C199  1  0.83988229  0.25295797  0.88798515  1  -0.254534  0  -0.034398  -0.132658  0  4.003181  0
C  C200  1  0.80064381  0.11651516  0.88051687  1  1.596703  0  0.177963  0.557208  0  4.305357  0
C  C201  1  0.91495340  0.82624306  0.78565121  1  0.394539  0  -0.003691  -0.035929  0  4.01016  0
C  C202  1  0.02466452  0.88478822  0.76301407  1  0.277352  0  -0.002334  -0.108288  0  3.919418  0
C  C203  1  0.02744022  0.98951396  0.81568264  1  0.937582  0  0.142842  0.094047  0  3.907198  0
C  C204  1  0.21541142  0.07967542  0.76968360  1  0.291044  0  0.094077  0.164987  0  4.01869  0
C  C205  1  0.23765686  0.09858748  0.73184214  1  -0.020969  0  -0.087414  -0.148985  0  3.953402  0
C  C206  1  0.34987306  0.19250486  0.71971513  1  0.008414  0  -0.087476  -0.112205  0  3.972462  0
C  C207  1  0.44058133  0.27051445  0.74455891  1  0.04325  0  -0.009134  0.055283  0  4.005834  0
C  C208  1  0.41994062  0.24626146  0.78243622  1  -0.033043  0  -0.082964  -0.101421  0  3.969415  0
C  C209  1  0.30896986  0.15178930  0.79495623  1  -0.055116  0  -0.090926  -0.165438  0  3.990856  0
C  C210  1  0.98687289  0.69993232  0.68318410  1  0.970741  0  0.142715  0.100863  0  3.88493  0
C  C211  1  0.93422841  0.87905656  0.66738155  1  0.400851  0  -0.009537  -0.055908  0  4.040039  0
C  C212  1  0.80721310  0.80589149  0.67964233  1  0.236526  0  -0.003985  -0.10398  0  3.920351  0
C  C213  1  0.74334602  0.58735091  0.70405785  1  0.264135  0  0.088805  0.157087  0  4.033595  0
C  C214  1  0.61558261  0.54209275  0.68460215  1  -0.00178  0  -0.088422  -0.15534  0  3.971784  0
C  C215  1  0.51972508  0.43808965  0.69790568  1  -0.04561  0  -0.087526  -0.106043  0  3.961015  0
C  C216  1  0.54730530  0.37871767  0.73092499  1  0.030628  0  -0.008672  0.055967  0  3.995174  0
C  C217  1  0.67474875  0.42817752  0.75044303  1  -0.079428  0  -0.085101  -0.104448  0  3.970757  0
C  C218  1  0.77324168  0.53073393  0.73698285  1  -0.027578  0  -0.092682  -0.167782  0  4.00075  0
C  C219  1  0.61594745  0.74134477  0.94875518  1  0.408434  0  -0.000162  -0.028094  0  4.009897  0
C  C220  1  0.50130318  0.75105285  0.97148611  1  0.310435  0  -0.002031  -0.115096  0  3.93246  0
C  C221  1  0.51035989  0.88392322  0.92485428  1  0.956417  0  0.140816  0.093424  0  3.915183  0
C  C222  1  0.30910898  0.88435965  0.96876842  1  0.282876  0  0.084755  0.149039  0  4.051399  0
C  C223  1  0.20294796  0.90436816  0.94361529  1  -0.044802  0  -0.092612  -0.16125  0  3.997686  0
C  C224  1  0.08279954  0.95021985  0.95590876  1  0.026947  0  -0.083482  -0.099398  0  3.936897  0
C  C225  1  0.06418201  0.97559600  0.99349958  1  -0.065536  0  -0.006589  0.060396  0  3.978274  0
C  C226  1  0.17157899  0.95238438  0.01832798  1  -0.066067  0  -0.087596  -0.107349  0  3.9593  0
C  C227  1  0.29300157  0.90791120  0.00625101  1  -0.025135  0  -0.097526  -0.170272  0  4.015658  0
S  S228  1  0.23259093  0.35210173  0.62906869  1  0.23627  0  0.081069  0.125885  0  2.938142  0
S  S229  1  0.26738491  0.64788621  0.12907066  1  0.23659  0  0.081085  0.125872  0  2.938154  0
S  S230  1  0.76740575  0.64790401  0.37092075  1  0.235202  0  0.080995  0.125703  0  2.938587  0
S  S231  1  0.73260175  0.35211764  0.87093368  1  0.23652  0  0.081052  0.125832  0  2.938213  0
N  N232  1  0.41817471  0.89235658  0.68183229  1  -1.190954  0  -0.351696  -0.271745  0  3.532971  0
N  N233  1  0.59600621  0.98871204  0.71762528  1  -1.275938  0  -0.225042  0.003177  0  3.808543  0
N  N234  1  0.54481190  0.81168214  0.83057011  1  -1.219691  0  -0.354692  -0.295737  0  3.501356  0
N  N235  1  0.34238704  0.69279281  0.80997137  1  -1.280119  0  -0.228793  0.009698  0  3.802089  0
N  N236  1  0.12015667  0.82483612  0.58004436  1  -1.195422  0  -0.352404  -0.272022  0  3.522185  0
N  N237  1  0.93436848  0.84161721  0.54416743  1  -1.267935  0  -0.225073  0.011922  0  3.82017  0
N  N238  1  0.08181702  0.10763215  0.18182958  1  -1.19173  0  -0.351755  -0.271648  0  3.532756  0
N  N239  1  0.90399322  0.01127370  0.21762282  1  -1.275937  0  -0.225117  0.003105  0  3.80874  0
N  N240  1  0.95518739  0.18831384  0.33056348  1  -1.219686  0  -0.354694  -0.295638  0  3.50165  0
N  N241  1  0.15760649  0.30720759  0.30996541  1  -1.280118  0  -0.228761  0.009518  0  3.802588  0
N  N242  1  0.37983454  0.17515679  0.08004414  1  -1.195533  0  -0.352429  -0.272111  0  3.52206  0
N  N243  1  0.56562412  0.15837973  0.04416865  1  -1.267975  0  -0.224894  0.011965  0  3.820148  0
N  N244  1  0.58184364  0.10762201  0.31817039  1  -1.191439  0  -0.351833  -0.271765  0  3.532695  0
N  N245  1  0.40400591  0.01127684  0.28237796  1  -1.277001  0  -0.225206  0.003253  0  3.808715  0
N  N246  1  0.45519187  0.18831236  0.16943423  1  -1.219675  0  -0.354762  -0.295711  0  3.501686  0
N  N247  1  0.65761694  0.30720262  0.19003408  1  -1.279943  0  -0.22872  0.009546  0  3.802405  0
N  N248  1  0.87983598  0.17516587  0.41995419  1  -1.196008  0  -0.352488  -0.272118  0  3.522227  0
N  N249  1  0.06563309  0.15839134  0.45582753  1  -1.267716  0  -0.224954  0.012146  0  3.819693  0
N  N250  1  0.91817425  0.89238763  0.81817531  1  -1.19144  0  -0.351746  -0.271658  0  3.53285  0
N  N251  1  0.09600302  0.98873485  0.78238152  1  -1.276218  0  -0.225315  0.002702  0  3.809343  0
N  N252  1  0.04482960  0.81168254  0.66943976  1  -1.219958  0  -0.354807  -0.295733  0  3.501556  0
N  N253  1  0.84240111  0.69278972  0.69003534  1  -1.278994  0  -0.228771  0.009477  0  3.802517  0
N  N254  1  0.62015905  0.82482553  0.91995606  1  -1.19567  0  -0.352483  -0.272181  0  3.522313  0
N  N255  1  0.43435839  0.84160070  0.95582879  1  -1.267886  0  -0.224908  0.012253  0  3.819608  0
O  O256  1  0.39928480  0.70353501  0.60476927  1  -1.165132  0  -0.347133  -0.558546  0  2.114456  0
O  O257  1  0.22671914  0.61781188  0.64546655  1  -1.170592  0  -0.35447  -0.586996  0  2.166075  0
O  O258  1  0.17957865  0.07396028  0.63489408  1  -1.191241  0  -0.345576  -0.577716  0  2.156153  0
O  O259  1  0.39385790  0.04936334  0.61064972  1  -1.172085  0  -0.334758  -0.560663  0  2.20273  0
O  O260  1  0.10069981  0.29645307  0.10476730  1  -1.165387  0  -0.347076  -0.558429  0  2.114625  0
O  O261  1  0.27326382  0.38217191  0.14546462  1  -1.170821  0  -0.35458  -0.586982  0  2.166224  0
O  O262  1  0.32040061  0.92603253  0.13490231  1  -1.191266  0  -0.345682  -0.577828  0  2.156048  0
O  O263  1  0.10613781  0.95063057  0.11064951  1  -1.171597  0  -0.334736  -0.560574  0  2.202839  0
O  O264  1  0.60071545  0.29648196  0.39521052  1  -1.165582  0  -0.347135  -0.558734  0  2.114241  0
O  O265  1  0.77330670  0.38220511  0.35452372  1  -1.170546  0  -0.354378  -0.587099  0  2.166116  0
O  O266  1  0.82041049  0.92605950  0.36510419  1  -1.191097  0  -0.345508  -0.577727  0  2.156234  0
O  O267  1  0.60613560  0.95063771  0.38935379  1  -1.171822  0  -0.334806  -0.560678  0  2.202864  0
O  O268  1  0.89930523  0.70354236  0.89522628  1  -1.165684  0  -0.347079  -0.558585  0  2.114674  0
O  O269  1  0.72673485  0.61781884  0.85453227  1  -1.170425  0  -0.354625  -0.587082  0  2.166152  0
O  O270  1  0.67954509  0.07397411  0.86511472  1  -1.19096  0  -0.345497  -0.577641  0  2.156232  0
O  O271  1  0.89382014  0.04935922  0.88935593  1  -1.171787  0  -0.334734  -0.56061  0  2.202621  0
