# generated using pymatgen
data_H12PbC14(BrN)2
_symmetry_space_group_name_H-M   'P 1'
_cell_length_a   7.67892594
_cell_length_b   10.54943962
_cell_length_c   10.54967763
_cell_angle_alpha   67.89800556
_cell_angle_beta   72.88038086
_cell_angle_gamma   72.88080523
_symmetry_Int_Tables_number   1
_chemical_formula_structural   H12PbC14(BrN)2
_chemical_formula_sum   'H24 Pb2 C28 Br4 N4'
_cell_volume   740.28161552
_cell_formula_units_Z   2
loop_
 _symmetry_equiv_pos_site_id
 _symmetry_equiv_pos_as_xyz
  1  'x, y, z'
loop_
 _atom_site_type_symbol
 _atom_site_label
 _atom_site_symmetry_multiplicity
 _atom_site_fract_x
 _atom_site_fract_y
 _atom_site_fract_z
 _atom_site_occupancy
 _atom_site_pbe_bader_spin_density
 _atom_site_pbe_cm5_charge
 _atom_site_pbe_ddec_charge
 _atom_site_pbe_ddec_spin_density
 _atom_site_pbe_ddec_sum_bond_order
 _atom_site_pbe_magmom
H  H0  1  0.51286113  0.70652884  0.93057481  1  0  0.08578  0.130858  0  1.046861  0
H  H1  1  0.98712527  0.06943336  0.29348059  1  0  0.085827  0.130898  0  1.046868  0
H  H2  1  0.48712720  0.29346431  0.06942368  1  0  0.085772  0.130883  0  1.046854  0
H  H3  1  0.01288613  0.93056967  0.70652038  1  0  0.085754  0.13077  0  1.046875  0
H  H4  1  0.70292847  0.55987634  0.93832811  1  0  0.091348  0.136293  0  1.013468  0
H  H5  1  0.79706020  0.06168021  0.44012876  1  0  0.09137  0.136375  0  1.013611  0
H  H6  1  0.29705216  0.44011984  0.06166895  1  0  0.091356  0.136368  0  1.01336  0
H  H7  1  0.20295030  0.93832590  0.55986834  1  0  0.09138  0.136395  0  1.013555  0
H  H8  1  0.71510111  0.70516684  0.98014500  1  0  0.084445  0.144973  0  1.037594  0
H  H9  1  0.78488735  0.01985681  0.29484501  1  0  0.084396  0.144963  0  1.037545  0
H  H10  1  0.28489236  0.29482724  0.01984537  1  0  0.08442  0.144957  0  1.037663  0
H  H11  1  0.21512012  0.98015038  0.70515516  1  0  0.084363  0.144934  0  1.037544  0
H  H12  1  0.74104629  0.37265519  0.14165354  1  0  0.092991  0.116812  0  1.043974  0
H  H13  1  0.75894454  0.85834216  0.62735113  1  0  0.092989  0.11681  0  1.043975  0
H  H14  1  0.25894520  0.62734119  0.85834583  1  0  0.093004  0.116828  0  1.043942  0
H  H15  1  0.24105208  0.14165527  0.37264482  1  0  0.092973  0.116808  0  1.043911  0
H  H16  1  0.60980161  0.25310939  0.39210684  1  0  0.109554  0.111251  0  1.003058  0
H  H17  1  0.89019928  0.60788714  0.74689276  1  0  0.109531  0.111224  0  1.003048  0
H  H18  1  0.39020058  0.74689247  0.60789469  1  0  0.109535  0.111211  0  1.003122  0
H  H19  1  0.10979235  0.39211348  0.25310681  1  0  0.109544  0.111231  0  1.003104  0
H  H20  1  0.38489794  0.26007805  0.60945905  1  0  0.088964  0.10708  0  1.047561  0
H  H21  1  0.11511074  0.39053536  0.73991760  1  0  0.088944  0.107075  0  1.047434  0
H  H22  1  0.61510636  0.73992595  0.39054212  1  0  0.088967  0.107094  0  1.047499  0
H  H23  1  0.88489116  0.60946742  0.26007793  1  0  0.088971  0.107141  0  1.047531  0
Pb  Pb24  1  0.24999318  0.90406153  0.09594515  1  0  0.445011  0.810564  0  2.126764  0
Pb  Pb25  1  0.75001386  0.09594235  0.90404885  1  0  0.445058  0.81058  0  2.126592  0
C  C26  1  0.62175261  0.63923490  0.98858757  1  0  -0.245608  -0.465754  0  3.92709  0
C  C27  1  0.87823698  0.01141884  0.36077063  1  0  -0.245609  -0.465805  0  3.927152  0
C  C28  1  0.37823918  0.36076044  0.01141214  1  0  -0.245572  -0.465836  0  3.926982  0
C  C29  1  0.12177080  0.98858722  0.63922613  1  0  -0.245488  -0.465648  0  3.927003  0
C  C30  1  0.54382376  0.56883781  0.13842127  1  0  0.133812  0.334127  0  3.934897  0
C  C31  1  0.95617158  0.86158484  0.43117079  1  0  0.133715  0.334035  0  3.935094  0
C  C32  1  0.45617211  0.43115758  0.86157849  1  0  0.133788  0.334137  0  3.934863  0
C  C33  1  0.04382895  0.13841804  0.56882975  1  0  0.13368  0.334003  0  3.935146  0
C  C34  1  0.62416521  0.42784995  0.20253659  1  0  -0.085913  -0.171903  0  3.923105  0
C  C35  1  0.87583212  0.79746424  0.57215663  1  0  -0.085889  -0.171866  0  3.923087  0
C  C36  1  0.37583412  0.57214761  0.79746346  1  0  -0.085874  -0.171879  0  3.923014  0
C  C37  1  0.12416299  0.20253849  0.42784040  1  0  -0.085858  -0.171905  0  3.92297  0
C  C38  1  0.55227073  0.36199795  0.33999985  1  0  -0.062941  -0.059456  0  3.944629  0
C  C39  1  0.94773092  0.65999859  0.63800691  1  0  -0.062895  -0.059426  0  3.944443  0
C  C40  1  0.44772619  0.63799852  0.66000021  1  0  -0.062944  -0.059414  0  3.944504  0
C  C41  1  0.05226764  0.34000639  0.36199417  1  0  -0.0629  -0.05938  0  3.944461  0
C  C42  1  0.40099473  0.43530639  0.41625203  1  0  -0.005578  0.03156  0  4.033141  0
C  C43  1  0.09900554  0.58374985  0.56469165  1  0  -0.0056  0.03158  0  4.033112  0
C  C44  1  0.59901412  0.56469127  0.58374687  1  0  -0.005522  0.031532  0  4.033072  0
C  C45  1  0.90098864  0.41625607  0.43530716  1  0  -0.005549  0.031599  0  4.033124  0
C  C46  1  0.32759373  0.57749487  0.34563359  1  0  0.118668  0.126436  0  3.970246  0
C  C47  1  0.17240213  0.65437025  0.42250442  1  0  0.118699  0.126566  0  3.970221  0
C  C48  1  0.67240561  0.42250265  0.65436458  1  0  0.118603  0.126458  0  3.970208  0
C  C49  1  0.82760112  0.34563265  0.57749552  1  0  0.118664  0.126487  0  3.970329  0
C  C50  1  0.32366225  0.36896099  0.55909328  1  0  -0.089832  -0.117606  0  3.986292  0
C  C51  1  0.17634861  0.44090932  0.63103573  1  0  -0.089808  -0.117685  0  3.986238  0
C  C52  1  0.67634191  0.63103879  0.44090864  1  0  -0.089813  -0.117553  0  3.9863  0
C  C53  1  0.82365207  0.55909771  0.36896124  1  0  -0.089934  -0.117855  0  3.986441  0
Br  Br54  1  0.49278906  0.99134752  0.21086052  1  0  -0.244381  -0.508823  0  1.153757  0
Br  Br55  1  0.00724443  0.78913643  0.00865497  1  0  -0.244348  -0.508798  0  1.153881  0
Br  Br56  1  0.50720922  0.00864903  0.78914206  1  0  -0.244379  -0.508833  0  1.153808  0
Br  Br57  1  0.99277269  0.21085653  0.99136486  1  0  -0.244358  -0.508793  0  1.153844  0
N  N58  1  0.40003504  0.64073387  0.20887868  1  0  -0.293871  -0.321161  0  3.376898  0
N  N59  1  0.09995792  0.79113022  0.35927067  1  0  -0.293804  -0.321208  0  3.37698  0
N  N60  1  0.59996595  0.35926270  0.79112330  1  0  -0.293857  -0.321192  0  3.376732  0
N  N61  1  0.90004322  0.20887059  0.64073150  1  0  -0.293752  -0.321117  0  3.376968  0
