# generated using pymatgen
data_BaH9C7NO7
_symmetry_space_group_name_H-M   'P 1'
_cell_length_a   7.11942120
_cell_length_b   7.62535513
_cell_length_c   18.64347086
_cell_angle_alpha   89.99977045
_cell_angle_beta   89.99997953
_cell_angle_gamma   90.53142793
_symmetry_Int_Tables_number   1
_chemical_formula_structural   BaH9C7NO7
_chemical_formula_sum   'Ba4 H36 C28 N4 O28'
_cell_volume   1012.07535507
_cell_formula_units_Z   4
loop_
 _symmetry_equiv_pos_site_id
 _symmetry_equiv_pos_as_xyz
  1  'x, y, z'
loop_
 _atom_site_type_symbol
 _atom_site_label
 _atom_site_symmetry_multiplicity
 _atom_site_fract_x
 _atom_site_fract_y
 _atom_site_fract_z
 _atom_site_occupancy
 _atom_site_hle17_bader_spin_density
 _atom_site_hle17_ddec_charge
 _atom_site_hle17_ddec_spin_density
 _atom_site_hle17_ddec_sum_bond_order
 _atom_site_hle17_magmom
 _atom_site_hse06_10hf_bader_spin_density
 _atom_site_hse06_10hf_ddec_charge
 _atom_site_hse06_10hf_ddec_spin_density
 _atom_site_hse06_10hf_ddec_sum_bond_order
 _atom_site_hse06_10hf_magmom
 _atom_site_hse06_bader_spin_density
 _atom_site_hse06_ddec_charge
 _atom_site_hse06_ddec_spin_density
 _atom_site_hse06_ddec_sum_bond_order
 _atom_site_hse06_magmom
 _atom_site_pbe_bader_spin_density
 _atom_site_pbe_cm5_charge
 _atom_site_pbe_ddec_charge
 _atom_site_pbe_ddec_spin_density
 _atom_site_pbe_ddec_sum_bond_order
 _atom_site_pbe_magmom
Ba  Ba0  1  0.47403024  0.24356050  0.56530813  1  0  1.642965  0  1.148456  0  0  1.496323  0  1.549439  0  0  1.53772  0  1.503553  0  0  0.943536  1.465862  0  1.582034  0
Ba  Ba1  1  0.02597011  0.75644414  0.06530964  1  0  1.642918  0  1.148535  0  0  1.496259  0  1.549552  0  0  1.537661  0  1.503659  0  0  0.943528  1.465807  0  1.582157  0
Ba  Ba2  1  0.52596842  0.75643931  0.43469093  1  0  1.642936  0  1.148539  0  0  1.496292  0  1.549538  0  0  1.537689  0  1.503645  0  0  0.943534  1.465831  0  1.582135  0
Ba  Ba3  1  0.97403005  0.24356486  0.93469158  1  0  1.642941  0  1.148473  0  0  1.496329  0  1.549431  0  0  1.537725  0  1.503544  0  0  0.943539  1.465871  0  1.582029  0
H  H4  1  0.96866227  0.73154213  0.60644060  1  0  0.082463  0  0.953926  0  0  0.092361  0  1.016494  0  0  0.096218  0  1.012209  0  0  0.126617  0.089512  0  1.019614  0
H  H5  1  0.53134078  0.26846262  0.10644076  1  0  0.08242  0  0.953915  0  0  0.092333  0  1.016468  0  0  0.096203  0  1.012165  0  0  0.126648  0.089483  0  1.019586  0
H  H6  1  0.03134064  0.26846032  0.39355900  1  0  0.082454  0  0.95393  0  0  0.092357  0  1.016492  0  0  0.096237  0  1.012174  0  0  0.12664  0.089504  0  1.01961  0
H  H7  1  0.46867055  0.73153983  0.89355777  1  0  0.082447  0  0.953931  0  0  0.092364  0  1.016482  0  0  0.096225  0  1.012194  0  0  0.126626  0.089507  0  1.019605  0
H  H8  1  0.14331421  0.47941904  0.80154723  1  0  0.106165  0  0.967085  0  0  0.117349  0  1.032231  0  0  0.120557  0  1.02894  0  0  0.123693  0.114916  0  1.034755  0
H  H9  1  0.35666194  0.52057937  0.30154587  1  0  0.106208  0  0.967157  0  0  0.117381  0  1.032286  0  0  0.120595  0  1.028987  0  0  0.123653  0.114947  0  1.034811  0
H  H10  1  0.85667184  0.52058340  0.19845291  1  0  0.106187  0  0.967107  0  0  0.117321  0  1.0323  0  0  0.120533  0  1.029003  0  0  0.123636  0.114886  0  1.034832  0
H  H11  1  0.64332541  0.47941258  0.69845427  1  0  0.106179  0  0.967154  0  0  0.117355  0  1.032278  0  0  0.120569  0  1.028978  0  0  0.123629  0.114922  0  1.034802  0
H  H12  1  0.90837623  0.99659064  0.79873988  1  0  0.076897  0  0.950273  0  0  0.08376  0  1.021729  0  0  0.08752  0  1.016946  0  0  0.12774  0.080924  0  1.02533  0
H  H13  1  0.59161817  0.00341223  0.29874101  1  0  0.076929  0  0.950296  0  0  0.083773  0  1.021773  0  0  0.087533  0  1.016988  0  0  0.127752  0.08093  0  1.025385  0
H  H14  1  0.09162109  0.00341442  0.20125919  1  0  0.076863  0  0.950249  0  0  0.083717  0  1.021746  0  0  0.087477  0  1.016962  0  0  0.127719  0.080883  0  1.025357  0
H  H15  1  0.40838329  0.99658628  0.70125699  1  0  0.076906  0  0.950308  0  0  0.08376  0  1.021795  0  0  0.08752  0  1.017011  0  0  0.127736  0.080922  0  1.025403  0
H  H16  1  0.94488497  0.30050497  0.53691689  1  0  0.436632  0  0.847963  0  0  0.407102  0  0.912223  0  0  0.416901  0  0.897792  0  0  0.310385  0.400156  0  0.922449  0
H  H17  1  0.55512091  0.69949389  0.03691687  1  0  0.436654  0  0.847973  0  0  0.407121  0  0.912213  0  0  0.416921  0  0.897781  0  0  0.310399  0.400175  0  0.922441  0
H  H18  1  0.05511369  0.69949354  0.46308594  1  0  0.43665  0  0.847959  0  0  0.407114  0  0.912212  0  0  0.416913  0  0.897783  0  0  0.310405  0.400169  0  0.922436  0
H  H19  1  0.44488755  0.30050200  0.96308434  1  0  0.436643  0  0.847942  0  0  0.407109  0  0.912221  0  0  0.416908  0  0.897788  0  0  0.310381  0.400161  0  0.922451  0
H  H20  1  0.84874283  0.38138245  0.46907431  1  0  0.425783  0  0.879368  0  0  0.392249  0  0.94776  0  0  0.403168  0  0.931841  0  0  0.300976  0.384557  0  0.958945  0
H  H21  1  0.65125977  0.61861615  0.96907437  1  0  0.425706  0  0.879473  0  0  0.392199  0  0.947811  0  0  0.403119  0  0.931891  0  0  0.300966  0.384508  0  0.958996  0
H  H22  1  0.15125441  0.61861475  0.53092852  1  0  0.425753  0  0.879398  0  0  0.392239  0  0.947745  0  0  0.40316  0  0.931823  0  0  0.300996  0.384551  0  0.958926  0
H  H23  1  0.34875018  0.38138892  0.03092631  1  0  0.425731  0  0.879432  0  0  0.392222  0  0.947774  0  0  0.40314  0  0.931856  0  0  0.300972  0.384531  0  0.95896  0
H  H24  1  0.73541114  0.23807974  0.72458748  1  0  0.423458  0  0.880142  0  0  0.393701  0  0.942812  0  0  0.40463  0  0.926771  0  0  0.288113  0.385967  0  0.954138  0
H  H25  1  0.76458461  0.76190942  0.22458948  1  0  0.423351  0  0.880293  0  0  0.39359  0  0.942965  0  0  0.404519  0  0.926926  0  0  0.288037  0.385852  0  0.954301  0
H  H26  1  0.26458464  0.76191220  0.27541159  1  0  0.423359  0  0.880267  0  0  0.393601  0  0.94294  0  0  0.404531  0  0.926897  0  0  0.28805  0.385865  0  0.95427  0
H  H27  1  0.23541687  0.23809040  0.77541173  1  0  0.423352  0  0.880277  0  0  0.393593  0  0.94295  0  0  0.404523  0  0.926908  0  0  0.288044  0.385853  0  0.954285  0
H  H28  1  0.80116703  0.07811530  0.67683577  1  0  0.390428  0  0.926734  0  0  0.350814  0  1.006489  0  0  0.362056  0  0.990148  0  0  0.283256  0.342889  0  1.017968  0
H  H29  1  0.69883018  0.92187433  0.17683644  1  0  0.390477  0  0.926648  0  0  0.350869  0  1.00639  0  0  0.362111  0  0.990049  0  0  0.283288  0.342951  0  1.017861  0
H  H30  1  0.19882734  0.92187534  0.32316437  1  0  0.390505  0  0.926635  0  0  0.350894  0  1.006386  0  0  0.362137  0  0.990045  0  0  0.283313  0.342969  0  1.017868  0
H  H31  1  0.30117129  0.07812549  0.82316424  1  0  0.390512  0  0.926625  0  0  0.350903  0  1.00637  0  0  0.362146  0  0.99003  0  0  0.283312  0.342982  0  1.017846  0
H  H32  1  0.07506785  0.03271545  0.60771299  1  0  0.410109  0  0.868982  0  0  0.382088  0  0.942591  0  0  0.390874  0  0.929542  0  0  0.307197  0.375839  0  0.951871  0
H  H33  1  0.42493374  0.96727698  0.10771249  1  0  0.410118  0  0.868965  0  0  0.382054  0  0.942615  0  0  0.390853  0  0.929558  0  0  0.307192  0.375793  0  0.951904  0
H  H34  1  0.92493501  0.96728174  0.39228822  1  0  0.410122  0  0.868961  0  0  0.382059  0  0.942605  0  0  0.390857  0  0.92955  0  0  0.307185  0.375801  0  0.95189  0
H  H35  1  0.57506904  0.03271235  0.89228926  1  0  0.41012  0  0.869015  0  0  0.382086  0  0.9426  0  0  0.390873  0  0.929549  0  0  0.307186  0.375828  0  0.951884  0
H  H36  1  0.13843719  0.92541094  0.53945189  1  0  0.42494  0  0.877101  0  0  0.39623  0  0.937818  0  0  0.406582  0  0.922619  0  0  0.296241  0.388861  0  0.948645  0
H  H37  1  0.36156591  0.07458478  0.03945180  1  0  0.424968  0  0.877059  0  0  0.396252  0  0.937786  0  0  0.406603  0  0.922588  0  0  0.296241  0.388887  0  0.948605  0
H  H38  1  0.86156702  0.07458102  0.46055040  1  0  0.425049  0  0.876949  0  0  0.396312  0  0.937717  0  0  0.406666  0  0.922514  0  0  0.29625  0.38894  0  0.948547  0
H  H39  1  0.63843835  0.92541242  0.96055156  1  0  0.42507  0  0.876914  0  0  0.396347  0  0.937655  0  0  0.406701  0  0.922454  0  0  0.296244  0.38898  0  0.948478  0
C  C40  1  0.98836179  0.73108715  0.66439601  1  0  0.125364  0  3.678056  0  0  0.083018  0  3.93385  0  0  0.09174  0  3.948756  0  0  0.05819  0.077667  0  3.92375  0
C  C41  1  0.51162569  0.26891178  0.16439564  1  0  0.125429  0  3.678226  0  0  0.083054  0  3.934026  0  0  0.091769  0  3.94894  0  0  0.05816  0.077702  0  3.923929  0
C  C42  1  0.01163408  0.26891398  0.33560413  1  0  0.1254  0  3.678142  0  0  0.083049  0  3.933954  0  0  0.091762  0  3.948854  0  0  0.058178  0.077708  0  3.92384  0
C  C43  1  0.48837438  0.73108804  0.83560289  1  0  0.125431  0  3.678196  0  0  0.083052  0  3.933976  0  0  0.091767  0  3.948891  0  0  0.058163  0.077712  0  3.923863  0
C  C44  1  0.06750953  0.58541715  0.69814634  1  0  -0.114039  0  3.725904  0  0  -0.086434  0  3.96837  0  0  -0.099081  0  3.991248  0  0  -0.008368  -0.078711  0  3.953296  0
C  C45  1  0.43247518  0.41458227  0.19814353  1  0  -0.114273  0  3.726442  0  0  -0.086619  0  3.968796  0  0  -0.099267  0  3.99168  0  0  -0.008381  -0.0789  0  3.953722  0
C  C46  1  0.93248495  0.41458529  0.30185541  1  0  -0.114216  0  3.726038  0  0  -0.086625  0  3.968517  0  0  -0.099276  0  3.991402  0  0  -0.00839  -0.078905  0  3.953438  0
C  C47  1  0.56752351  0.58542017  0.80185447  1  0  -0.11428  0  3.726244  0  0  -0.086623  0  3.968591  0  0  -0.099269  0  3.991472  0  0  -0.008391  -0.078902  0  3.95351  0
C  C48  1  0.08143510  0.58857144  0.77277621  1  0  -0.012418  0  3.673983  0  0  -0.058022  0  3.925367  0  0  -0.050904  0  3.942415  0  0  -0.04838  -0.062192  0  3.913748  0
C  C49  1  0.41853823  0.41142199  0.27277288  1  0  -0.012422  0  3.673971  0  0  -0.057933  0  3.925306  0  0  -0.050814  0  3.942358  0  0  -0.048282  -0.062104  0  3.913685  0
C  C50  1  0.91855655  0.41142968  0.22722500  1  0  -0.012373  0  3.6739  0  0  -0.057886  0  3.925287  0  0  -0.050767  0  3.942339  0  0  -0.048264  -0.062051  0  3.913668  0
C  C51  1  0.58145055  0.58857257  0.72722458  1  0  -0.012427  0  3.673966  0  0  -0.057927  0  3.925315  0  0  -0.050806  0  3.942366  0  0  -0.048279  -0.062101  0  3.913698  0
C  C52  1  0.02245329  0.73586871  0.81067355  1  0  -0.121736  0  3.739379  0  0  -0.093432  0  3.978268  0  0  -0.106335  0  4.00108  0  0  -0.005889  -0.085448  0  3.963194  0
C  C53  1  0.47752001  0.26412567  0.31067259  1  0  -0.12135  0  3.739004  0  0  -0.093212  0  3.978055  0  0  -0.106123  0  4.000885  0  0  -0.005886  -0.085225  0  3.962974  0
C  C54  1  0.97754119  0.26413373  0.18932660  1  0  -0.12142  0  3.739317  0  0  -0.093176  0  3.978276  0  0  -0.106086  0  4.001103  0  0  -0.005819  -0.085189  0  3.963199  0
C  C55  1  0.52246879  0.73587021  0.68932433  1  0  -0.121467  0  3.739182  0  0  -0.093373  0  3.978321  0  0  -0.106291  0  4.00116  0  0  -0.005889  -0.08539  0  3.963252  0
C  C56  1  0.95287941  0.87753229  0.77152509  1  0  0.139002  0  3.673324  0  0  0.095093  0  3.932063  0  0  0.104664  0  3.946541  0  0  0.0667  0.089125  0  3.922141  0
C  C57  1  0.54710089  0.12246297  0.27152441  1  0  0.138698  0  3.673195  0  0  0.094855  0  3.931964  0  0  0.104429  0  3.946441  0  0  0.066634  0.088895  0  3.922049  0
C  C58  1  0.04711647  0.12247015  0.22847506  1  0  0.138851  0  3.673429  0  0  0.094955  0  3.932195  0  0  0.10453  0  3.946672  0  0  0.06666  0.088984  0  3.922284  0
C  C59  1  0.45289212  0.87753291  0.72847358  1  0  0.138852  0  3.673302  0  0  0.094979  0  3.932119  0  0  0.104553  0  3.946598  0  0  0.06666  0.089013  0  3.922208  0
C  C60  1  0.14632585  0.43663708  0.65484068  1  0  0.661761  0  3.916418  0  0  0.606627  0  4.214232  0  0  0.640824  0  4.207385  0  0  0.213554  0.583583  0  4.2181  0
C  C61  1  0.35367862  0.56336801  0.15484032  1  0  0.661685  0  3.916362  0  0  0.606531  0  4.214186  0  0  0.64073  0  4.207338  0  0  0.213493  0.583503  0  4.218035  0
C  C62  1  0.85367423  0.56336406  0.34516054  1  0  0.66184  0  3.916314  0  0  0.6067  0  4.214159  0  0  0.640898  0  4.207308  0  0  0.213548  0.583656  0  4.218024  0
C  C63  1  0.64633413  0.43663575  0.84515875  1  0  0.66182  0  3.916095  0  0  0.606711  0  4.213855  0  0  0.640906  0  4.207006  0  0  0.213591  0.583681  0  4.217709  0
C  C64  1  0.04250013  0.74303338  0.89102553  1  0  0.683168  0  3.925027  0  0  0.633364  0  4.215945  0  0  0.668243  0  4.208023  0  0  0.220418  0.609738  0  4.220597  0
C  C65  1  0.45749703  0.25696809  0.39102244  1  0  0.682979  0  3.924918  0  0  0.633195  0  4.215881  0  0  0.668076  0  4.20796  0  0  0.220323  0.609567  0  4.220532  0
C  C66  1  0.95750283  0.25697562  0.10897461  1  0  0.682933  0  3.92509  0  0  0.633106  0  4.216077  0  0  0.667985  0  4.208158  0  0  0.220313  0.609476  0  4.220733  0
C  C67  1  0.54249598  0.74302779  0.60897394  1  0  0.683121  0  3.924845  0  0  0.633368  0  4.215786  0  0  0.668249  0  4.207862  0  0  0.220429  0.609738  0  4.220446  0
N  N68  1  0.93471485  0.87572832  0.69982599  1  0  -0.341322  0  3.16783  0  0  -0.276755  0  3.423126  0  0  -0.292013  0  3.437497  0  0  -0.308435  -0.266633  0  3.413248  0
N  N69  1  0.56527117  0.12426895  0.19982532  1  0  -0.341121  0  3.167744  0  0  -0.276588  0  3.423022  0  0  -0.291839  0  3.437403  0  0  -0.308356  -0.266474  0  3.413145  0
N  N70  1  0.06527961  0.12427281  0.30017361  1  0  -0.3412  0  3.167836  0  0  -0.276624  0  3.423098  0  0  -0.291883  0  3.437481  0  0  -0.308359  -0.266508  0  3.413218  0
N  N71  1  0.43472608  0.87572956  0.80017214  1  0  -0.341223  0  3.167738  0  0  -0.276654  0  3.423036  0  0  -0.29191  0  3.437409  0  0  -0.308369  -0.266539  0  3.413153  0
O  O72  1  0.13282326  0.44390383  0.58636523  1  0  -0.696497  0  2.015564  0  0  -0.628066  0  2.240952  0  0  -0.654245  0  2.230308  0  0  -0.334056  -0.609769  0  2.247753  0
O  O73  1  0.36718978  0.55610849  0.08636273  1  0  -0.696466  0  2.015359  0  0  -0.62805  0  2.240763  0  0  -0.654232  0  2.230124  0  0  -0.334088  -0.609758  0  2.247556  0
O  O74  1  0.86717966  0.55609993  0.41363599  1  0  -0.69648  0  2.015565  0  0  -0.628037  0  2.240977  0  0  -0.65422  0  2.230339  0  0  -0.33401  -0.609738  0  2.247774  0
O  O75  1  0.63283001  0.44389790  0.91363419  1  0  -0.696489  0  2.015409  0  0  -0.6281  0  2.240819  0  0  -0.654278  0  2.230175  0  0  -0.334099  -0.609814  0  2.247625  0
O  O76  1  0.23213822  0.31442330  0.68713197  1  0  -0.665707  0  1.959048  0  0  -0.603397  0  2.187173  0  0  -0.63053  0  2.178652  0  0  -0.333246  -0.584428  0  2.192476  0
O  O77  1  0.26786911  0.68559066  0.18713088  1  0  -0.66564  0  1.958988  0  0  -0.603318  0  2.187092  0  0  -0.630454  0  2.178578  0  0  -0.33317  -0.58436  0  2.192392  0
O  O78  1  0.76786049  0.68558045  0.31286871  1  0  -0.665805  0  1.95893  0  0  -0.603503  0  2.187067  0  0  -0.630631  0  2.178537  0  0  -0.333321  -0.584537  0  2.192371  0
O  O79  1  0.73214792  0.31442097  0.81286551  1  0  -0.665719  0  1.958784  0  0  -0.60343  0  2.186898  0  0  -0.630573  0  2.178399  0  0  -0.333276  -0.584471  0  2.192199  0
O  O80  1  0.04492704  0.89203115  0.92162432  1  0  -0.72582  0  1.974415  0  0  -0.658466  0  2.212184  0  0  -0.686932  0  2.203886  0  0  -0.390885  -0.638437  0  2.217337  0
O  O81  1  0.45507998  0.10797659  0.42162846  1  0  -0.725721  0  1.974369  0  0  -0.65834  0  2.212107  0  0  -0.686803  0  2.203808  0  0  -0.390824  -0.638315  0  2.217264  0
O  O82  1  0.95506751  0.10797916  0.07837475  1  0  -0.725696  0  1.974382  0  0  -0.658314  0  2.212146  0  0  -0.686777  0  2.203846  0  0  -0.390803  -0.638283  0  2.217302  0
O  O83  1  0.54490884  0.89202191  0.57837115  1  0  -0.725752  0  1.974367  0  0  -0.658368  0  2.212069  0  0  -0.686831  0  2.20377  0  0  -0.390848  -0.638337  0  2.217226  0
O  O84  1  0.05768927  0.59813970  0.92443681  1  0  -0.72818  0  1.958141  0  0  -0.667094  0  2.200758  0  0  -0.694561  0  2.19199  0  0  -0.385657  -0.647757  0  2.206238  0
O  O85  1  0.44232340  0.40187195  0.42443295  1  0  -0.728237  0  1.958028  0  0  -0.667158  0  2.200669  0  0  -0.694628  0  2.191903  0  0  -0.385679  -0.647817  0  2.206143  0
O  O86  1  0.94232777  0.40187193  0.07556494  1  0  -0.728207  0  1.958153  0  0  -0.66713  0  2.200821  0  0  -0.694598  0  2.192056  0  0  -0.385732  -0.647788  0  2.206299  0
O  O87  1  0.55767949  0.59812918  0.57556397  1  0  -0.728309  0  1.958051  0  0  -0.667223  0  2.200649  0  0  -0.69469  0  2.19188  0  0  -0.385743  -0.647879  0  2.206126  0
O  O88  1  0.84007165  0.28059253  0.50327457  1  0  -0.868074  0  1.840817  0  0  -0.807676  0  2.015282  0  0  -0.828551  0  1.984389  0  0  -0.592238  -0.792813  0  2.036877  0
O  O89  1  0.65993286  0.71940666  0.00327504  1  0  -0.868022  0  1.840911  0  0  -0.807623  0  2.015357  0  0  -0.828499  0  1.984458  0  0  -0.592237  -0.792759  0  2.036952  0
O  O90  1  0.15992701  0.71940598  0.49672825  1  0  -0.868037  0  1.840838  0  0  -0.807657  0  2.015316  0  0  -0.828536  0  1.984414  0  0  -0.592271  -0.792798  0  2.036904  0
O  O91  1  0.34007424  0.28059448  0.99672885  1  0  -0.868015  0  1.84085  0  0  -0.807647  0  2.015324  0  0  -0.82852  0  1.984435  0  0  -0.592226  -0.792783  0  2.036916  0
O  O92  1  0.73468338  0.19214823  0.67472448  1  0  -0.885864  0  1.808998  0  0  -0.83132  0  1.994748  0  0  -0.850848  0  1.962  0  0  -0.638137  -0.81711  0  2.017547  0
O  O93  1  0.76530817  0.80783748  0.17472534  1  0  -0.885792  0  1.809021  0  0  -0.831213  0  1.994745  0  0  -0.850746  0  1.962001  0  0  -0.638068  -0.817007  0  2.01754  0
O  O94  1  0.26530675  0.80783978  0.32527620  1  0  -0.88583  0  1.809001  0  0  -0.831284  0  1.994736  0  0  -0.850803  0  1.961962  0  0  -0.63812  -0.817077  0  2.017532  0
O  O95  1  0.23469751  0.19216234  0.82527695  1  0  -0.885823  0  1.80899  0  0  -0.831269  0  1.994714  0  0  -0.850788  0  1.961938  0  0  -0.638113  -0.817064  0  2.017507  0
O  O96  1  0.14697816  0.04192080  0.56332854  1  0  -0.869491  0  1.828428  0  0  -0.819439  0  2.01386  0  0  -0.83772  0  1.984294  0  0  -0.621326  -0.806321  0  2.034607  0
O  O97  1  0.35302070  0.95807468  0.06332860  1  0  -0.869531  0  1.828371  0  0  -0.81941  0  2.013974  0  0  -0.83772  0  1.984355  0  0  -0.621326  -0.806275  0  2.034756  0
O  O98  1  0.85302186  0.95807377  0.43667214  1  0  -0.869596  0  1.828243  0  0  -0.819468  0  2.013832  0  0  -0.837778  0  1.984211  0  0  -0.621322  -0.806333  0  2.03462  0
O  O99  1  0.64698214  0.04192120  0.93667262  1  0  -0.869618  0  1.828305  0  0  -0.819555  0  2.013748  0  0  -0.837839  0  1.98418  0  0  -0.621319  -0.806422  0  2.034534  0
