# generated using pymatgen
data_CuH6C3S3Cl2
_symmetry_space_group_name_H-M   'P 1'
_cell_length_a   4.14714669
_cell_length_b   6.75631920
_cell_length_c   14.03362622
_cell_angle_alpha   89.99051341
_cell_angle_beta   90.01634798
_cell_angle_gamma   97.34938624
_symmetry_Int_Tables_number   1
_chemical_formula_structural   CuH6C3S3Cl2
_chemical_formula_sum   'Cu2 H12 C6 S6 Cl4'
_cell_volume   389.98399091
_cell_formula_units_Z   2
loop_
 _symmetry_equiv_pos_site_id
 _symmetry_equiv_pos_as_xyz
  1  'x, y, z'
loop_
 _atom_site_type_symbol
 _atom_site_label
 _atom_site_symmetry_multiplicity
 _atom_site_fract_x
 _atom_site_fract_y
 _atom_site_fract_z
 _atom_site_occupancy
 _atom_site_hle17_bader_spin_density
 _atom_site_hle17_ddec_charge
 _atom_site_hle17_ddec_spin_density
 _atom_site_hle17_ddec_sum_bond_order
 _atom_site_hle17_magmom
 _atom_site_hse06_10hf_bader_spin_density
 _atom_site_hse06_10hf_ddec_charge
 _atom_site_hse06_10hf_ddec_spin_density
 _atom_site_hse06_10hf_ddec_sum_bond_order
 _atom_site_hse06_10hf_magmom
 _atom_site_hse06_bader_spin_density
 _atom_site_hse06_ddec_charge
 _atom_site_hse06_ddec_spin_density
 _atom_site_hse06_ddec_sum_bond_order
 _atom_site_hse06_magmom
 _atom_site_pbe_bader_spin_density
 _atom_site_pbe_cm5_charge
 _atom_site_pbe_ddec_charge
 _atom_site_pbe_ddec_spin_density
 _atom_site_pbe_ddec_sum_bond_order
 _atom_site_pbe_magmom
Cu  Cu0  1  0.99999643  0.50000237  0.49999831  1  0  0.511818  0  2.110141  0  0  0.454314  0  2.55898  0  0  0.468525  0  2.517223  0  0  0.425384  0.444343  0  2.588487  0
Cu  Cu1  1  0.00001021  0.49999971  0.00000019  1  0  0.511804  0  2.110037  0  0  0.454537  0  2.558818  0  0  0.468499  0  2.517126  0  0  0.425368  0.44457  0  2.588335  0
H  H2  1  0.97971724  0.64514974  0.24999139  1  0  0.126721  0  0.983305  0  0  0.128718  0  1.060685  0  0  0.131406  0  1.060491  0  0  0.092641  0.126762  0  1.060893  0
H  H3  1  0.02027519  0.35484528  0.75000162  1  0  0.126678  0  0.983347  0  0  0.128659  0  1.060748  0  0  0.131347  0  1.060556  0  0  0.092626  0.126703  0  1.060955  0
H  H4  1  0.26759851  0.46622935  0.25002203  1  0  0.118575  0  0.98733  0  0  0.123418  0  1.060894  0  0  0.124965  0  1.062241  0  0  0.089806  0.122294  0  1.060008  0
H  H5  1  0.73240575  0.53377612  0.74997311  1  0  0.118569  0  0.987348  0  0  0.12342  0  1.060888  0  0  0.124967  0  1.062234  0  0  0.089798  0.122297  0  1.060001  0
H  H6  1  0.84722197  0.05093035  0.41338936  1  0  0.144664  0  0.944848  0  0  0.157172  0  1.003266  0  0  0.159025  0  1.00325  0  0  0.096888  0.15583  0  1.003394  0
H  H7  1  0.15280585  0.94910111  0.91331322  1  0  0.144743  0  0.944791  0  0  0.157243  0  1.003206  0  0  0.159111  0  1.003209  0  0  0.09696  0.155902  0  1.003346  0
H  H8  1  0.15277506  0.94907511  0.58661718  1  0  0.144714  0  0.944883  0  0  0.157249  0  1.00324  0  0  0.159106  0  1.003228  0  0  0.09692  0.155908  0  1.003366  0
H  H9  1  0.84719677  0.05088496  0.08668834  1  0  0.144765  0  0.94474  0  0  0.157237  0  1.003169  0  0  0.159104  0  1.003176  0  0  0.096959  0.155895  0  1.003307  0
H  H10  1  0.19577625  0.13999856  0.34248361  1  0  0.111585  0  0.988257  0  0  0.114994  0  1.067925  0  0  0.116523  0  1.06843  0  0  0.087606  0.11387  0  1.067658  0
H  H11  1  0.80422788  0.85999387  0.84236327  1  0  0.111574  0  0.988401  0  0  0.115033  0  1.06812  0  0  0.116572  0  1.068655  0  0  0.087643  0.113913  0  1.067858  0
H  H12  1  0.80423641  0.86000094  0.65751653  1  0  0.111606  0  0.988378  0  0  0.114983  0  1.068059  0  0  0.116523  0  1.068556  0  0  0.087619  0.113863  0  1.067791  0
H  H13  1  0.19577358  0.13999816  0.15764257  1  0  0.111592  0  0.988352  0  0  0.115028  0  1.068098  0  0  0.116569  0  1.068631  0  0  0.087629  0.113908  0  1.067836  0
C  C14  1  0.00970777  0.48577334  0.25000256  1  0  -0.216552  0  3.583958  0  0  -0.23809  0  3.832813  0  0  -0.240035  0  3.8444  0  0  -0.150171  -0.23671  0  3.824989  0
C  C15  1  0.99029408  0.51423213  0.74999758  1  0  -0.216538  0  3.583899  0  0  -0.238062  0  3.832793  0  0  -0.240007  0  3.844378  0  0  -0.150144  -0.236685  0  3.824968  0
C  C16  1  0.92986860  0.12585138  0.34680548  1  0  -0.230149  0  3.608454  0  0  -0.256946  0  3.867425  0  0  -0.257184  0  3.876384  0  0  -0.152292  -0.256919  0  3.861573  0
C  C17  1  0.07014759  0.87417868  0.84674192  1  0  -0.229889  0  3.608467  0  0  -0.25691  0  3.867811  0  0  -0.25727  0  3.876974  0  0  -0.152333  -0.256919  0  3.86205  0
C  C18  1  0.07010883  0.87415260  0.65319180  1  0  -0.230188  0  3.60829  0  0  -0.256959  0  3.867197  0  0  -0.257216  0  3.876162  0  0  -0.15233  -0.256944  0  3.86136  0
C  C19  1  0.92984967  0.12581634  0.15326035  1  0  -0.229946  0  3.608493  0  0  -0.256889  0  3.867734  0  0  -0.257247  0  3.876891  0  0  -0.152324  -0.256895  0  3.861972  0
S  S20  1  0.79990727  0.37312417  0.35298878  1  0  0.135743  0  2.797439  0  0  0.14316  0  3.206537  0  0  0.146138  0  3.198813  0  0  0.021774  0.141116  0  3.212182  0
S  S21  1  0.20011030  0.62689525  0.85299590  1  0  0.135402  0  2.797333  0  0  0.142949  0  3.206472  0  0  0.145956  0  3.198773  0  0  0.021827  0.140918  0  3.212154  0
S  S22  1  0.20009271  0.62687234  0.64700993  1  0  0.135738  0  2.797302  0  0  0.143147  0  3.206384  0  0  0.146122  0  3.198675  0  0  0.021764  0.14111  0  3.212029  0
S  S23  1  0.79989062  0.37310574  0.14700566  1  0  0.135404  0  2.797233  0  0  0.142934  0  3.20635  0  0  0.14594  0  3.198648  0  0  0.021816  0.140901  0  3.212032  0
S  S24  1  0.74320758  0.97885491  0.25003931  1  0  0.095967  0  2.438091  0  0  0.102784  0  2.793935  0  0  0.099567  0  2.794987  0  0  0.007195  0.105263  0  2.793339  0
S  S25  1  0.25679816  0.02114608  0.74996368  1  0  0.09594  0  2.43781  0  0  0.10277  0  2.793646  0  0  0.099561  0  2.794691  0  0  0.007173  0.105255  0  2.793052  0
Cl  Cl26  1  0.36739337  0.73341082  0.43955242  1  0  -0.480011  0  1.091299  0  0  -0.443985  0  1.401839  0  0  -0.456654  0  1.379168  0  0  -0.28647  -0.434909  0  1.417788  0
Cl  Cl27  1  0.63269330  0.26657327  0.93950869  1  0  -0.480166  0  1.091159  0  0  -0.443969  0  1.401526  0  0  -0.456635  0  1.37884  0  0  -0.286429  -0.434876  0  1.417514  0
Cl  Cl28  1  0.63260008  0.26660062  0.56044557  1  0  -0.479994  0  1.091326  0  0  -0.443979  0  1.401885  0  0  -0.456654  0  1.379225  0  0  -0.286471  -0.434903  0  1.417835  0
Cl  Cl29  1  0.36732597  0.73342324  0.06049002  1  0  -0.480171  0  1.091157  0  0  -0.443957  0  1.401495  0  0  -0.456623  0  1.378811  0  0  -0.286433  -0.434863  0  1.417485  0
