# generated using pymatgen
data_PrH6C6(NO4)2
_symmetry_space_group_name_H-M   'P 1'
_cell_length_a   7.48818693
_cell_length_b   8.34948096
_cell_length_c   17.23760073
_cell_angle_alpha   90.00003899
_cell_angle_beta   89.99991325
_cell_angle_gamma   110.86483150
_symmetry_Int_Tables_number   1
_chemical_formula_structural   PrH6C6(NO4)2
_chemical_formula_sum   'Pr4 H24 C24 N8 O32'
_cell_volume   1007.06294558
_cell_formula_units_Z   4
loop_
 _symmetry_equiv_pos_site_id
 _symmetry_equiv_pos_as_xyz
  1  'x, y, z'
loop_
 _atom_site_type_symbol
 _atom_site_label
 _atom_site_symmetry_multiplicity
 _atom_site_fract_x
 _atom_site_fract_y
 _atom_site_fract_z
 _atom_site_occupancy
 _atom_site_hle17_bader_spin_density
 _atom_site_hle17_ddec_charge
 _atom_site_hle17_ddec_spin_density
 _atom_site_hle17_ddec_sum_bond_order
 _atom_site_hle17_magmom
 _atom_site_hse06_10hf_bader_spin_density
 _atom_site_hse06_10hf_ddec_charge
 _atom_site_hse06_10hf_ddec_spin_density
 _atom_site_hse06_10hf_ddec_sum_bond_order
 _atom_site_hse06_10hf_magmom
 _atom_site_hse06_bader_spin_density
 _atom_site_hse06_ddec_charge
 _atom_site_hse06_ddec_spin_density
 _atom_site_hse06_ddec_sum_bond_order
 _atom_site_hse06_magmom
 _atom_site_pbe_bader_spin_density
 _atom_site_pbe_cm5_charge
 _atom_site_pbe_ddec_charge
 _atom_site_pbe_ddec_spin_density
 _atom_site_pbe_ddec_sum_bond_order
 _atom_site_pbe_magmom
Pr  Pr0  1  0.31820050  0.75885051  0.58397688  1  0  2.278389  0  1.634965  0  0  2.100937  0  2.107562  0  0  2.194031  0  1.963163  0  0  1.473567  2.069798  0  2.141062  0
Pr  Pr1  1  0.68179651  0.74114941  0.08397852  1  0  2.278359  0  1.634978  0  0  2.100938  0  2.107534  0  0  2.194002  0  1.963179  0  0  1.473562  2.069798  0  2.141034  0
Pr  Pr2  1  0.68179869  0.24114174  0.41602001  1  0  2.278369  0  1.634957  0  0  2.100966  0  2.10748  0  0  2.194014  0  1.96316  0  0  1.473586  2.069828  0  2.140981  0
Pr  Pr3  1  0.31819942  0.25884800  0.91602127  1  0  2.27836  0  1.634957  0  0  2.100968  0  2.107446  0  0  2.193996  0  1.963159  0  0  1.473576  2.06983  0  2.140942  0
H  H4  1  0.23544985  0.08037986  0.52143677  1  0  0.440573  0  0.852175  0  0  0.41142  0  0.912135  0  0  0.422837  0  0.895491  0  0  0.30293  0.403391  0  0.923953  0
H  H5  1  0.76455105  0.41962002  0.02143668  1  0  0.440612  0  0.852124  0  0  0.411465  0  0.912074  0  0  0.42288  0  0.895432  0  0  0.30294  0.403436  0  0.923891  0
H  H6  1  0.76455480  0.91962264  0.47856360  1  0  0.440583  0  0.852172  0  0  0.411441  0  0.912113  0  0  0.422857  0  0.89547  0  0  0.302937  0.403412  0  0.92393  0
H  H7  1  0.23544140  0.58037869  0.97856370  1  0  0.440573  0  0.852187  0  0  0.411431  0  0.912128  0  0  0.422847  0  0.895485  0  0  0.302937  0.403402  0  0.923946  0
H  H8  1  0.16046329  0.00841529  0.60323355  1  0  0.410664  0  0.873842  0  0  0.38788  0  0.936049  0  0  0.396784  0  0.923029  0  0  0.304155  0.38132  0  0.945767  0
H  H9  1  0.83953755  0.49158847  0.10323343  1  0  0.410684  0  0.873868  0  0  0.38789  0  0.936051  0  0  0.396794  0  0.923029  0  0  0.304152  0.38133  0  0.94577  0
H  H10  1  0.83954055  0.99158850  0.39676450  1  0  0.41066  0  0.873859  0  0  0.387868  0  0.936068  0  0  0.396771  0  0.923048  0  0  0.304148  0.381308  0  0.945786  0
H  H11  1  0.16045808  0.50841151  0.89676520  1  0  0.410678  0  0.873852  0  0  0.387889  0  0.93604  0  0  0.396792  0  0.923021  0  0  0.304158  0.381328  0  0.945759  0
H  H12  1  0.92063262  0.66019948  0.53243643  1  0  0.440411  0  0.836627  0  0  0.415247  0  0.900036  0  0  0.424637  0  0.886345  0  0  0.315101  0.408474  0  0.910067  0
H  H13  1  0.07936670  0.83979913  0.03243676  1  0  0.440399  0  0.836599  0  0  0.415228  0  0.900055  0  0  0.424618  0  0.886364  0  0  0.315095  0.408453  0  0.910092  0
H  H14  1  0.07937254  0.33980431  0.46756162  1  0  0.440412  0  0.836571  0  0  0.415237  0  0.900044  0  0  0.424626  0  0.886354  0  0  0.315094  0.408464  0  0.910076  0
H  H15  1  0.92062553  0.16019573  0.96756245  1  0  0.440419  0  0.836585  0  0  0.415245  0  0.900037  0  0  0.424636  0  0.886345  0  0  0.315097  0.408471  0  0.910072  0
H  H16  1  0.90244525  0.49822551  0.58168341  1  0  0.438101  0  0.867791  0  0  0.405949  0  0.933404  0  0  0.417522  0  0.916755  0  0  0.299275  0.397793  0  0.945277  0
H  H17  1  0.09755545  0.00177440  0.08168245  1  0  0.43808  0  0.86782  0  0  0.405925  0  0.933439  0  0  0.417497  0  0.91679  0  0  0.299269  0.39777  0  0.94531  0
H  H18  1  0.09755571  0.50177445  0.41831581  1  0  0.438067  0  0.86785  0  0  0.405929  0  0.933439  0  0  0.4175  0  0.916785  0  0  0.299272  0.397775  0  0.945307  0
H  H19  1  0.90244684  0.99822555  0.91831502  1  0  0.438096  0  0.867806  0  0  0.405947  0  0.933415  0  0  0.417518  0  0.916764  0  0  0.299273  0.397791  0  0.945288  0
H  H20  1  0.95586196  0.90185167  0.78974489  1  0  0.327624  0  0.878559  0  0  0.306146  0  0.940496  0  0  0.31626  0  0.931761  0  0  0.322595  0.299081  0  0.946495  0
H  H21  1  0.04413784  0.59814702  0.28974574  1  0  0.327585  0  0.878537  0  0  0.306107  0  0.940482  0  0  0.31622  0  0.931746  0  0  0.322577  0.299042  0  0.946482  0
H  H22  1  0.04414617  0.09814953  0.21025432  1  0  0.327659  0  0.878578  0  0  0.30617  0  0.940531  0  0  0.316283  0  0.93179  0  0  0.3226  0.299104  0  0.946534  0
H  H23  1  0.95585757  0.40184911  0.71025463  1  0  0.327655  0  0.878563  0  0  0.306173  0  0.940513  0  0  0.316286  0  0.931773  0  0  0.3226  0.299106  0  0.946519  0
H  H24  1  0.85825302  0.92876472  0.65166887  1  0  0.098831  0  0.913754  0  0  0.111532  0  0.970076  0  0  0.114374  0  0.966331  0  0  0.149693  0.10952  0  0.972507  0
H  H25  1  0.14174724  0.57123392  0.15166907  1  0  0.098845  0  0.913751  0  0  0.111545  0  0.970071  0  0  0.114387  0  0.966326  0  0  0.149694  0.109532  0  0.972503  0
H  H26  1  0.14174342  0.07123397  0.34833034  1  0  0.098861  0  0.913694  0  0  0.111596  0  0.969967  0  0  0.114439  0  0.966219  0  0  0.149705  0.109584  0  0.972399  0
H  H27  1  0.85825823  0.42876730  0.84832957  1  0  0.098936  0  0.913751  0  0  0.111683  0  0.969985  0  0  0.114526  0  0.966238  0  0  0.149743  0.10967  0  0.972417  0
C  C28  1  0.76408042  0.84866381  0.69532694  1  0  0.286431  0  3.64  0  0  0.219926  0  3.931707  0  0  0.234799  0  3.941937  0  0  0.172893  0.210331  0  3.92543  0
C  C29  1  0.23591918  0.65133357  0.19532768  1  0  0.286331  0  3.639925  0  0  0.219823  0  3.931644  0  0  0.234698  0  3.941874  0  0  0.172849  0.21023  0  3.92537  0
C  C30  1  0.23592032  0.15133229  0.30467402  1  0  0.286408  0  3.639927  0  0  0.219884  0  3.931619  0  0  0.234755  0  3.941851  0  0  0.172839  0.210291  0  3.925344  0
C  C31  1  0.76408281  0.34866895  0.80467386  1  0  0.286225  0  3.640071  0  0  0.219718  0  3.931749  0  0  0.23459  0  3.941978  0  0  0.172772  0.210125  0  3.92547  0
C  C32  1  0.67555881  0.68068845  0.89139773  1  0  0.681294  0  3.93176  0  0  0.630426  0  4.232629  0  0  0.665325  0  4.225175  0  0  0.231027  0.606747  0  4.239672  0
C  C33  1  0.32444198  0.81931026  0.39139847  1  0  0.681209  0  3.931901  0  0  0.630327  0  4.232775  0  0  0.665225  0  4.225323  0  0  0.231027  0.606643  0  4.23982  0
C  C34  1  0.32444133  0.31931279  0.10860265  1  0  0.681322  0  3.931746  0  0  0.630406  0  4.232646  0  0  0.665305  0  4.225191  0  0  0.231024  0.606728  0  4.23969  0
C  C35  1  0.67556142  0.18068582  0.60860249  1  0  0.681258  0  3.93186  0  0  0.630384  0  4.232711  0  0  0.665284  0  4.225257  0  0  0.231035  0.606707  0  4.239753  0
C  C36  1  0.66733911  0.71514681  0.80720736  1  0  0.012712  0  3.629331  0  0  -0.00052  0  3.887783  0  0  -0.001872  0  3.905118  0  0  0.096361  0.00057  0  3.875385  0
C  C37  1  0.33266144  0.78485059  0.30720867  1  0  0.012727  0  3.629369  0  0  -0.000489  0  3.887815  0  0  -0.001839  0  3.905149  0  0  0.096389  0.000622  0  3.875391  0
C  C38  1  0.33266266  0.28485185  0.19279301  1  0  0.012785  0  3.629334  0  0  -0.000389  0  3.887687  0  0  -0.001741  0  3.905023  0  0  0.096412  0.0007  0  3.875294  0
C  C39  1  0.66733981  0.21514679  0.69279345  1  0  0.012796  0  3.629276  0  0  -0.000414  0  3.887684  0  0  -0.001764  0  3.905017  0  0  0.096378  0.000675  0  3.875286  0
C  C40  1  0.51959824  0.66149830  0.75221193  1  0  0.005752  0  3.723368  0  0  0.001081  0  3.983192  0  0  -0.000925  0  4.00504  0  0  0.090994  0.002239  0  3.969974  0
C  C41  1  0.48039953  0.83850168  0.25221258  1  0  0.005755  0  3.723318  0  0  0.001054  0  3.983137  0  0  -0.000951  0  4.004981  0  0  0.090963  0.002206  0  3.969919  0
C  C42  1  0.48039812  0.33850682  0.24779134  1  0  0.005645  0  3.723409  0  0  0.000957  0  3.983188  0  0  -0.001048  0  4.005033  0  0  0.090951  0.002116  0  3.969975  0
C  C43  1  0.51960202  0.16149314  0.74779070  1  0  0.005548  0  3.723418  0  0  0.000868  0  3.983232  0  0  -0.001139  0  4.005077  0  0  0.090922  0.002026  0  3.970015  0
C  C44  1  0.31638340  0.54274690  0.75403880  1  0  0.697008  0  3.880139  0  0  0.646782  0  4.179049  0  0  0.682402  0  4.168621  0  0  0.235541  0.622872  0  4.186864  0
C  C45  1  0.68361406  0.95725564  0.25403877  1  0  0.696981  0  3.880169  0  0  0.646827  0  4.178973  0  0  0.682446  0  4.168543  0  0  0.235528  0.622917  0  4.186791  0
C  C46  1  0.68361119  0.45725052  0.24596506  1  0  0.69706  0  3.880062  0  0  0.646898  0  4.178849  0  0  0.682517  0  4.16842  0  0  0.235584  0.622988  0  4.186669  0
C  C47  1  0.31639080  0.04275071  0.74596335  1  0  0.697076  0  3.880039  0  0  0.646891  0  4.178859  0  0  0.68251  0  4.168429  0  0  0.235559  0.62298  0  4.186674  0
C  C48  1  0.41080070  0.42163806  0.51156301  1  0  0.563918  0  3.915855  0  0  0.51867  0  4.214744  0  0  0.548201  0  4.209714  0  0  0.22316  0.498501  0  4.220585  0
C  C49  1  0.58920074  0.07836310  0.01156291  1  0  0.56397  0  3.915818  0  0  0.518714  0  4.214719  0  0  0.548244  0  4.20969  0  0  0.223223  0.498545  0  4.220557  0
C  C50  1  0.58920618  0.57835673  0.48843215  1  0  0.564062  0  3.915805  0  0  0.518763  0  4.214752  0  0  0.548292  0  4.20972  0  0  0.223231  0.498594  0  4.220594  0
C  C51  1  0.41079029  0.92164204  0.98843166  1  0  0.564292  0  3.915577  0  0  0.518999  0  4.214534  0  0  0.54853  0  4.209499  0  0  0.223282  0.49883  0  4.220374  0
N  N52  1  0.58289576  0.74926750  0.68393618  1  0  -0.490719  0  3.211775  0  0  -0.446893  0  3.499422  0  0  -0.468098  0  3.517386  0  0  -0.403886  -0.43643  0  3.487642  0
N  N53  1  0.41710387  0.75072987  0.18393684  1  0  -0.490692  0  3.211773  0  0  -0.446863  0  3.499417  0  0  -0.468065  0  3.51738  0  0  -0.403878  -0.436401  0  3.48764  0
N  N54  1  0.41710476  0.25072475  0.31606303  1  0  -0.490725  0  3.211852  0  0  -0.446923  0  3.499508  0  0  -0.468123  0  3.517475  0  0  -0.403883  -0.436459  0  3.48773  0
N  N55  1  0.58289648  0.24927523  0.81606354  1  0  -0.490593  0  3.211778  0  0  -0.446792  0  3.499422  0  0  -0.46799  0  3.517389  0  0  -0.403823  -0.436327  0  3.48764  0
N  N56  1  0.81914656  0.83432490  0.76885745  1  0  -0.276048  0  3.370155  0  0  -0.213317  0  3.60724  0  0  -0.228066  0  3.617984  0  0  -0.352312  -0.203234  0  3.599134  0
N  N57  1  0.18085464  0.66567378  0.26885881  1  0  -0.275907  0  3.369966  0  0  -0.213172  0  3.607029  0  0  -0.227923  0  3.617776  0  0  -0.352229  -0.203095  0  3.598919  0
N  N58  1  0.18085285  0.16567121  0.23114176  1  0  -0.276095  0  3.370154  0  0  -0.213353  0  3.607176  0  0  -0.228097  0  3.61792  0  0  -0.352281  -0.203269  0  3.599074  0
N  N59  1  0.81914765  0.33432617  0.73114214  1  0  -0.276037  0  3.370122  0  0  -0.21333  0  3.607194  0  0  -0.228076  0  3.617936  0  0  -0.352303  -0.203248  0  3.599089  0
O  O60  1  0.20963069  0.55885497  0.69894532  1  0  -0.677987  0  1.988922  0  0  -0.623727  0  2.227387  0  0  -0.653042  0  2.213851  0  0  -0.362173  -0.607003  0  2.234836  0
O  O61  1  0.79036429  0.94114757  0.19894464  1  0  -0.677954  0  1.988907  0  0  -0.623749  0  2.22737  0  0  -0.653062  0  2.213836  0  0  -0.36216  -0.607024  0  2.234818  0
O  O62  1  0.79036463  0.44114758  0.30105447  1  0  -0.677959  0  1.989051  0  0  -0.623745  0  2.2275  0  0  -0.653058  0  2.213971  0  0  -0.36216  -0.607022  0  2.234951  0
O  O63  1  0.20963554  0.05885625  0.80105342  1  0  -0.677972  0  1.989011  0  0  -0.623728  0  2.227443  0  0  -0.653036  0  2.213913  0  0  -0.362143  -0.607005  0  2.234894  0
O  O64  1  0.25534549  0.43286263  0.80773479  1  0  -0.730411  0  2.064232  0  0  -0.676086  0  2.313918  0  0  -0.705679  0  2.29884  0  0  -0.383162  -0.659414  0  2.32183  0
O  O65  1  0.74465681  0.06713991  0.30773459  1  0  -0.730401  0  2.064289  0  0  -0.676088  0  2.313929  0  0  -0.705684  0  2.298848  0  0  -0.383172  -0.65942  0  2.321851  0
O  O66  1  0.74465035  0.56714121  0.19226675  1  0  -0.730415  0  2.064008  0  0  -0.676126  0  2.313696  0  0  -0.705721  0  2.298603  0  0  -0.383222  -0.659457  0  2.321616  0
O  O67  1  0.25535080  0.93286001  0.69226579  1  0  -0.730394  0  2.063972  0  0  -0.676107  0  2.313697  0  0  -0.705709  0  2.29861  0  0  -0.383206  -0.659435  0  2.321611  0
O  O68  1  0.56976770  0.53868055  0.91917423  1  0  -0.739681  0  2.141959  0  0  -0.688534  0  2.408723  0  0  -0.720637  0  2.397382  0  0  -0.390419  -0.672311  0  2.416334  0
O  O69  1  0.43023137  0.96132075  0.41917610  1  0  -0.739685  0  2.142015  0  0  -0.688538  0  2.408792  0  0  -0.720648  0  2.397457  0  0  -0.390439  -0.672314  0  2.416407  0
O  O70  1  0.43022444  0.46132074  0.08082905  1  0  -0.739653  0  2.141995  0  0  -0.688466  0  2.408721  0  0  -0.720571  0  2.397379  0  0  -0.390369  -0.672244  0  2.416333  0
O  O71  1  0.56977707  0.03867788  0.58083007  1  0  -0.739673  0  2.142028  0  0  -0.688477  0  2.408715  0  0  -0.720588  0  2.397372  0  0  -0.390384  -0.672255  0  2.416328  0
O  O72  1  0.78856059  0.79840859  0.93424996  1  0  -0.691268  0  2.03147  0  0  -0.630828  0  2.263522  0  0  -0.660183  0  2.250752  0  0  -0.334165  -0.61352  0  2.271104  0
O  O73  1  0.21143976  0.70159271  0.43425016  1  0  -0.69122  0  2.031605  0  0  -0.630773  0  2.263648  0  0  -0.660131  0  2.250882  0  0  -0.33417  -0.613467  0  2.271232  0
O  O74  1  0.21144488  0.20159262  0.06574751  1  0  -0.691272  0  2.031446  0  0  -0.63083  0  2.263516  0  0  -0.660183  0  2.250746  0  0  -0.334204  -0.61352  0  2.271097  0
O  O75  1  0.78855750  0.29840470  0.56574790  1  0  -0.691211  0  2.031564  0  0  -0.630776  0  2.263614  0  0  -0.660134  0  2.250847  0  0  -0.334167  -0.613468  0  2.271195  0
O  O76  1  0.27928128  0.45036690  0.54807220  1  0  -0.650637  0  2.050087  0  0  -0.601899  0  2.287106  0  0  -0.628314  0  2.275089  0  0  -0.352025  -0.587136  0  2.293865  0
O  O77  1  0.72071789  0.04963557  0.04806969  1  0  -0.650618  0  2.050238  0  0  -0.601883  0  2.287256  0  0  -0.628291  0  2.275242  0  0  -0.352049  -0.587121  0  2.294015  0
O  O78  1  0.72071989  0.54963691  0.45192992  1  0  -0.650547  0  2.050334  0  0  -0.601807  0  2.287373  0  0  -0.62821  0  2.275358  0  0  -0.351996  -0.587047  0  2.294134  0
O  O79  1  0.27928779  0.95036949  0.95192953  1  0  -0.650705  0  2.05043  0  0  -0.601973  0  2.287493  0  0  -0.628372  0  2.275476  0  0  -0.35207  -0.587213  0  2.294255  0
O  O80  1  0.40972275  0.27520484  0.49091974  1  0  -0.669506  0  2.12384  0  0  -0.611096  0  2.360624  0  0  -0.640989  0  2.351236  0  0  -0.354113  -0.593809  0  2.365698  0
O  O81  1  0.59028182  0.22480159  0.99092081  1  0  -0.669628  0  2.123808  0  0  -0.611208  0  2.36058  0  0  -0.641101  0  2.351194  0  0  -0.354164  -0.593922  0  2.365653  0
O  O82  1  0.59028138  0.72479638  0.50908121  1  0  -0.669732  0  2.123637  0  0  -0.611305  0  2.360443  0  0  -0.641205  0  2.351051  0  0  -0.354237  -0.594016  0  2.365517  0
O  O83  1  0.40971217  0.77520097  0.00908478  1  0  -0.66977  0  2.123426  0  0  -0.611366  0  2.360254  0  0  -0.641264  0  2.350862  0  0  -0.354236  -0.594077  0  2.365329  0
O  O84  1  0.15594583  0.97391686  0.54871511  1  0  -0.858515  0  1.847752  0  0  -0.812049  0  2.033223  0  0  -0.834397  0  1.99875  0  0  -0.627891  -0.799431  0  2.054986  0
O  O85  1  0.84405314  0.52608433  0.04871425  1  0  -0.858571  0  1.847755  0  0  -0.812099  0  2.033192  0  0  -0.834445  0  1.99872  0  0  -0.627888  -0.799468  0  2.054934  0
O  O86  1  0.84405860  0.02608180  0.45128469  1  0  -0.858508  0  1.847762  0  0  -0.812054  0  2.03323  0  0  -0.834398  0  1.998759  0  0  -0.627894  -0.799431  0  2.054988  0
O  O87  1  0.15594034  0.47391695  0.95128555  1  0  -0.858539  0  1.847774  0  0  -0.812086  0  2.033225  0  0  -0.834428  0  1.998755  0  0  -0.627908  -0.799463  0  2.05498  0
O  O88  1  0.96736762  0.62642222  0.58059219  1  0  -0.896964  0  1.827095  0  0  -0.851089  0  2.028615  0  0  -0.874989  0  1.993254  0  0  -0.657132  -0.838393  0  2.050685  0
O  O89  1  0.03262940  0.87357770  0.08059198  1  0  -0.896935  0  1.8271  0  0  -0.85103  0  2.0286  0  0  -0.874931  0  1.993254  0  0  -0.657115  -0.83834  0  2.050672  0
O  O90  1  0.03263600  0.37357772  0.41940645  1  0  -0.896939  0  1.827071  0  0  -0.851075  0  2.028626  0  0  -0.874958  0  1.993274  0  0  -0.657117  -0.838382  0  2.050696  0
O  O91  1  0.96736304  0.12642101  0.91940666  1  0  -0.896961  0  1.827052  0  0  -0.851097  0  2.028599  0  0  -0.874984  0  1.993248  0  0  -0.657127  -0.838403  0  2.050667  0
