# generated using pymatgen
data_ZnH26C38N2(ClO4)2
_symmetry_space_group_name_H-M   'P 1'
_cell_length_a   14.63927132
_cell_length_b   15.94454474
_cell_length_c   23.64744147
_cell_angle_alpha   89.27717095
_cell_angle_beta   70.61101317
_cell_angle_gamma   80.07284913
_symmetry_Int_Tables_number   1
_chemical_formula_structural   ZnH26C38N2(ClO4)2
_chemical_formula_sum   'Zn2 H52 C76 N4 Cl4 O16'
_cell_volume   5122.79005597
_cell_formula_units_Z   2
loop_
 _symmetry_equiv_pos_site_id
 _symmetry_equiv_pos_as_xyz
  1  'x, y, z'
loop_
 _atom_site_type_symbol
 _atom_site_label
 _atom_site_symmetry_multiplicity
 _atom_site_fract_x
 _atom_site_fract_y
 _atom_site_fract_z
 _atom_site_occupancy
 _atom_site_pbe_bader_charge
 _atom_site_pbe_bader_spin_density
 _atom_site_pbe_cm5_charge
 _atom_site_pbe_ddec_charge
 _atom_site_pbe_ddec_spin_density
 _atom_site_pbe_ddec_sum_bond_order
 _atom_site_pbe_magmom
Zn  Zn0  1  0.60316985  0.51427437  0.47608384  1  1.304683  0  0.676764  0.862469  0  2.337401  0
Zn  Zn1  1  0.40211933  0.48640994  0.52412761  1  1.302758  0  0.679056  0.851797  0  2.392995  0
H  H2  1  0.64845546  0.33780979  0.03021273  1  0.119864  0  0.120455  0.126018  0  0.973582  0
H  H3  1  0.31417479  0.69254418  0.97869851  1  0.127997  0  0.119393  0.126037  0  0.973815  0
H  H4  1  0.79096974  0.09071676  0.48610766  1  0.060458  0  0.102607  0.10251  0  0.996098  0
H  H5  1  0.19839283  0.90745837  0.55716637  1  0.063642  0  0.101059  0.10191  0  0.998631  0
H  H6  1  0.64036467  0.85561931  0.48127603  1  0.059324  0  0.09233  0.100455  0  1.04882  0
H  H7  1  0.35661169  0.14584578  0.51059768  1  0.092257  0  0.085881  0.085554  0  1.086698  0
H  H8  1  0.94725629  0.36677610  0.63227375  1  0.087324  0  0.112068  0.11648  0  0.977775  0
H  H9  1  0.05757276  0.63718982  0.37846421  1  0.063745  0  0.112227  0.116574  0  0.97538  0
H  H10  1  0.75409377  0.49110419  0.53256693  1  0.131286  0  0.123862  0.100931  0  1.025282  0
H  H11  1  0.23409817  0.54247196  0.49255768  1  0.118611  0  0.125043  0.099753  0  1.010297  0
H  H12  1  0.11295407  0.34049273  0.64673252  1  0.076133  0  0.114937  0.138805  0  0.988168  0
H  H13  1  0.90745557  0.63694507  0.34982857  1  0.064504  0  0.113714  0.135735  0  1.001302  0
H  H14  1  0.84106818  0.43363978  0.57763150  1  0.070746  0  0.112493  0.114591  0  0.995813  0
H  H15  1  0.15517156  0.58630824  0.44202185  1  0.097774  0  0.114463  0.116766  0  0.993414  0
H  H16  1  0.64874932  0.33004194  0.92318475  1  0.103942  0  0.119754  0.124966  0  0.975533  0
H  H17  1  0.30434968  0.69410512  0.08762702  1  0.120166  0  0.118535  0.124533  0  0.975153  0
H  H18  1  0.64277812  0.54977561  0.65492366  1  0.114678  0  0.110243  0.126619  0  1.002139  0
H  H19  1  0.39800393  0.39913676  0.33925372  1  0.112128  0  0.113179  0.133937  0  0.993787  0
H  H20  1  0.36615786  0.46143994  0.70189038  1  0.126321  0  0.11167  0.134386  0  1.003595  0
H  H21  1  0.55063456  0.61191848  0.31525086  1  0.119711  0  0.110736  0.131543  0  1.004195  0
H  H22  1  0.75210870  0.95124318  0.48458226  1  0.052387  0  0.101642  0.102812  0  0.993571  0
H  H23  1  0.23793917  0.05042117  0.54233827  1  0.004853  0  0.100611  0.101761  0  0.99334  0
H  H24  1  0.25493301  0.74879794  0.55122837  1  0.08694  0  0.107801  0.116328  0  0.991039  0
H  H25  1  0.74165907  0.24999945  0.48959061  1  0.081024  0  0.107784  0.114978  0  0.987062  0
H  H26  1  0.73046982  0.54414124  0.28958301  1  0.054186  0  0.112113  0.087417  0  0.960796  0
H  H27  1  0.84957697  0.54823956  0.29306629  1  0.055844  0  0.101912  0.061325  0  0.986691  0
H  H28  1  0.69504218  0.70222504  0.28654894  1  0.033352  0  0.09061  0.088399  0  0.992036  0
H  H29  1  0.81152495  0.70956430  0.29101567  1  0.013171  0  0.089797  0.083133  0  0.979591  0
H  H30  1  0.89464018  0.62155717  0.19297015  1  -0.008349  0  0.083899  0.108543  0  1.004389  0
H  H31  1  0.81554717  0.71428673  0.18336814  1  0.050476  0  0.090783  0.123426  0  0.992464  0
H  H32  1  0.77711895  0.61409498  0.18893147  1  0.035067  0  0.081417  0.108881  0  1.028865  0
H  H33  1  0.35446870  0.25741087  0.57503919  1  0.083321  0  0.093538  0.057621  0  1.029516  0
H  H34  1  0.26016470  0.25150566  0.64594058  1  0.026755  0  0.09433  0.050941  0  0.982882  0
H  H35  1  0.46357115  0.29413035  0.62883950  1  0.050468  0  0.096771  0.10273  0  0.969031  0
H  H36  1  0.37258410  0.28444630  0.69888723  1  0.031732  0  0.090435  0.083075  0  0.978894  0
H  H37  1  0.38285303  0.12796262  0.66919117  1  0.023685  0  0.08224  0.105137  0  1.00497  0
H  H38  1  0.49660708  0.14968755  0.67130015  1  0.020087  0  0.090286  0.119452  0  0.995427  0
H  H39  1  0.47837139  0.13951235  0.60142382  1  0.053895  0  0.081718  0.111524  0  1.037585  0
H  H40  1  0.66958011  0.64862581  0.81669989  1  0.027131  0  0.102378  0.07053  0  0.960748  0
H  H41  1  0.55020123  0.66903430  0.80927110  1  0.096801  0  0.097904  0.066073  0  1.003324  0
H  H42  1  0.74435468  0.67607103  0.70788762  1  0.029602  0  0.090899  0.083365  0  0.973947  0
H  H43  1  0.62571331  0.69893318  0.70121736  1  0.01369  0  0.09239  0.087327  0  0.978697  0
H  H44  1  0.57748387  0.82264877  0.77723987  1  0.005295  0  0.08823  0.114195  0  0.999119  0
H  H45  1  0.68317700  0.83465477  0.71577470  1  0.016842  0  0.089333  0.116463  0  0.999111  0
H  H46  1  0.69589397  0.80008946  0.78480492  1  0.005407  0  0.08453  0.10582  0  1.006549  0
H  H47  1  0.27367883  0.38469491  0.20065882  1  0.046115  0  0.105233  0.074705  0  0.95638  0
H  H48  1  0.27437022  0.49240232  0.22032549  1  0.05171  0  0.094263  0.060894  0  1.004628  0
H  H49  1  0.22671075  0.35100644  0.30909147  1  0.036927  0  0.094514  0.091144  0  0.964269  0
H  H50  1  0.22687189  0.45764976  0.32887404  1  0.03333  0  0.087842  0.08068  0  0.998385  0
H  H51  1  0.09103558  0.50978491  0.28671108  1  0.012172  0  0.080522  0.1021  0  1.016646  0
H  H52  1  0.05472437  0.43624861  0.34319010  1  0.031499  0  0.085006  0.116399  0  1.013124  0
H  H53  1  0.08999416  0.40311813  0.26637468  1  0.013114  0  0.085451  0.109324  0  1.003418  0
C  C54  1  0.57497196  0.34026238  0.48517388  1  1.626306  0  0.212467  0.602223  0  4.183254  0
C  C55  1  0.43537013  0.66056678  0.50347840  1  1.610922  0  0.209965  0.60395  0  4.165794  0
C  C56  1  0.57281657  0.53308564  0.74908767  1  0.557758  0  0.089602  0.207575  0  4.053727  0
C  C57  1  0.42601962  0.45543784  0.25318981  1  0.519478  0  0.090269  0.208427  0  4.047695  0
C  C58  1  0.57969934  0.53083001  0.68886695  1  -0.041258  0  -0.092058  -0.209881  0  3.957946  0
C  C59  1  0.42928681  0.44886432  0.31132412  1  0.02301  0  -0.088783  -0.204098  0  3.945458  0
C  C60  1  0.50460137  0.50588555  0.67248685  1  0.014319  0  -0.007575  0.017654  0  3.96588  0
C  C61  1  0.47521700  0.50461708  0.33302997  1  -0.002682  0  -0.007573  0.022433  0  3.964571  0
C  C62  1  0.42386590  0.48049451  0.71565448  1  0.017721  0  -0.089468  -0.168457  0  3.944317  0
C  C63  1  0.51601738  0.56846246  0.29742273  1  0.011805  0  -0.093461  -0.179605  0  3.961761  0
C  C64  1  0.41923959  0.47945985  0.77535686  1  0.045247  0  0.019808  0.107536  0  4.0394  0
C  C65  1  0.51198700  0.57524573  0.23952094  1  0.035706  0  0.018812  0.102733  0  4.047295  0
C  C66  1  0.49236495  0.50681000  0.79268045  1  0.398276  0  0.078255  0.029283  0  3.997363  0
C  C67  1  0.46809724  0.51863760  0.21669167  1  0.388882  0  0.077942  0.026895  0  4.00126  0
C  C68  1  0.60261159  0.24477318  0.47897964  1  0.073183  0  -0.019517  -0.083549  0  3.956525  0
C  C69  1  0.40590014  0.75566938  0.50328514  1  0.063264  0  -0.023145  -0.093229  0  3.946694  0
C  C70  1  0.71937559  0.12035016  0.48379408  1  -0.044579  0  -0.094843  -0.142831  0  4.023159  0
C  C71  1  0.27606665  0.87926616  0.53707660  1  -0.099113  0  -0.096888  -0.149464  0  4.024062  0
C  C72  1  0.69321937  0.20760906  0.48509690  1  -0.052466  0  -0.087709  -0.089349  0  4.020931  0
C  C73  1  0.30634942  0.79221222  0.53307742  1  -0.030509  0  -0.088312  -0.085412  0  4.016927  0
C  C74  1  0.53978732  0.19248108  0.47125374  1  0.034329  0  0.025565  0.087349  0  3.949373  0
C  C75  1  0.47334859  0.80947046  0.47792162  1  0.038593  0  0.028445  0.100124  0  3.941722  0
C  C76  1  0.50764433  0.50649625  0.60832548  1  1.588005  0  0.216747  0.598173  0  4.164497  0
C  C77  1  0.48196776  0.49615929  0.39498281  1  1.607566  0  0.212464  0.588649  0  4.178767  0
C  C78  1  0.55775836  0.10264499  0.47789778  1  -0.017388  0  -0.004172  -0.030323  0  3.912819  0
C  C79  1  0.44830517  0.89930005  0.49058910  1  -0.004491  0  -0.004349  -0.027256  0  3.910582  0
C  C80  1  0.65305000  0.06717041  0.48083516  1  -0.058664  0  -0.006867  0.087338  0  4.034627  0
C  C81  1  0.34578909  0.93392183  0.51701454  1  0.055491  0  -0.007342  0.092578  0  4.034194  0
C  C82  1  0.48690374  0.04602479  0.48509920  1  -0.022617  0  -0.005368  0.038304  0  3.93678  0
C  C83  1  0.51895137  0.95617426  0.48169447  1  -0.002835  0  -0.004594  0.045752  0  3.939397  0
C  C84  1  0.61726662  0.92379349  0.47979912  1  -0.028976  0  -0.098633  -0.13367  0  4.046999  0
C  C85  1  0.38320475  0.07760388  0.50527782  1  -0.005438  0  -0.100536  -0.13526  0  4.043656  0
C  C86  1  0.67981777  0.97715679  0.48171760  1  0.013476  0  -0.09595  -0.133609  0  4.033528  0
C  C87  1  0.31628438  0.02412713  0.52294191  1  -0.035556  0  -0.095688  -0.133553  0  4.019269  0
C  C88  1  0.13725479  0.38472774  0.61166540  1  0.014193  0  -0.095117  -0.300329  0  3.942009  0
C  C89  1  0.87738124  0.60249119  0.38989958  1  -0.009144  0  -0.101376  -0.316292  0  3.968118  0
C  C90  1  0.23086352  0.40423443  0.59690565  1  1.050103  0  0.212349  0.395423  0  4.080486  0
C  C91  1  0.78538763  0.57995801  0.40326633  1  1.073925  0  0.211628  0.389365  0  4.09946  0
C  C92  1  0.20246578  0.49832748  0.52581502  1  0.528094  0  0.067839  0.089563  0  3.893372  0
C  C93  1  0.79407054  0.52048586  0.49214670  1  0.504858  0  0.067795  0.090808  0  3.881357  0
C  C94  1  0.10728449  0.48164325  0.53626199  1  0.030311  0  -0.004718  -0.028527  0  3.968816  0
C  C95  1  0.89116968  0.53361230  0.48036657  1  0.040218  0  -0.009274  -0.041695  0  3.975621  0
C  C96  1  0.07307224  0.42391682  0.58201384  1  -0.025664  0  0.00585  0.12598  0  4.036968  0
C  C97  1  0.93198020  0.57977187  0.42855283  1  -0.01712  0  0.005536  0.125713  0  4.052301  0
C  C98  1  0.40437819  0.58200448  0.13985241  1  1.354467  0  0.241563  0.43469  0  4.113269  0
C  C99  1  0.54529717  0.43950238  0.87169331  1  1.353871  0  0.246237  0.445771  0  4.085703  0
C  C100  1  0.04617658  0.51886827  0.50225473  1  -0.043328  0  0.000691  0.035165  0  3.976715  0
C  C101  1  0.94989017  0.50074176  0.51689244  1  -0.011996  0  0.002271  0.041351  0  3.975136  0
C  C102  1  0.91560357  0.44687368  0.56545947  1  -0.058534  0  -0.076154  -0.110165  0  3.982645  0
C  C103  1  0.08180610  0.57091332  0.45281929  1  -0.051315  0  -0.074015  -0.10658  0  3.980529  0
C  C104  1  0.97473722  0.40903087  0.59632865  1  0.031951  0  -0.082134  -0.127303  0  3.978532  0
C  C105  1  0.02753740  0.59981339  0.41703486  1  -0.015549  0  -0.081489  -0.127364  0  3.985863  0
C  C106  1  0.54174452  0.45515635  0.11628677  1  1.331517  0  0.246403  0.444765  0  4.08295  0
C  C107  1  0.42505486  0.57788638  0.89156702  1  1.356007  0  0.244043  0.43637  0  4.109319  0
C  C108  1  0.53994358  0.45127203  0.05414750  1  0.050171  0  -0.001089  -0.053761  0  3.975996  0
C  C109  1  0.42049113  0.57765945  0.95509221  1  -0.017987  0  -0.001935  -0.055328  0  3.978302  0
C  C110  1  0.47741383  0.51486488  0.03532522  1  -0.045981  0  0.005496  0.032707  0  3.993642  0
C  C111  1  0.48023153  0.51224902  0.97453770  1  0.016952  0  0.006012  0.032634  0  3.992052  0
C  C112  1  0.41228268  0.58102233  0.07567900  1  -0.04971  0  -0.002924  -0.056089  0  3.974446  0
C  C113  1  0.54280711  0.44437989  0.93477371  1  -0.029511  0  -0.000597  -0.052853  0  3.968808  0
C  C114  1  0.60126687  0.38570216  0.01419300  1  -0.051499  0  -0.058798  -0.065379  0  3.925026  0
C  C115  1  0.35868121  0.64285896  0.99522497  1  -0.057591  0  -0.061842  -0.068099  0  3.927661  0
C  C116  1  0.60186243  0.38172548  0.95476921  1  0.015886  0  -0.060134  -0.067323  0  3.926721  0
C  C117  1  0.35374782  0.64401204  0.05556160  1  0.044413  0  -0.061844  -0.066969  0  3.928736  0
C  C118  1  0.77382028  0.58383598  0.30412133  1  0.420268  0  -0.056917  0.043885  0  3.853239  0
C  C119  1  0.77174530  0.66864716  0.27422626  1  0.005612  0  -0.171918  -0.145474  0  3.994199  0
C  C120  1  0.81740186  0.65387121  0.20605746  1  -0.060021  0  -0.244657  -0.354843  0  3.980762  0
C  C121  1  0.32509684  0.28038961  0.62245660  1  0.387136  0  -0.062627  0.046085  0  3.86403  0
C  C122  1  0.40339931  0.25992753  0.65181965  1  0.013519  0  -0.166225  -0.126722  0  3.959626  0
C  C123  1  0.44225316  0.16400188  0.64821013  1  -0.093598  0  -0.243187  -0.348928  0  3.961941  0
C  C124  1  0.62923703  0.64677020  0.78502373  1  0.360039  0  -0.067687  0.031655  0  3.881518  0
C  C125  1  0.66656758  0.70231864  0.73245576  1  0.01353  0  -0.170573  -0.136558  0  3.987307  0
C  C126  1  0.65513606  0.79496117  0.75375095  1  -0.020779  0  -0.241268  -0.350039  0  3.982666  0
C  C127  1  0.28475678  0.42589992  0.23385842  1  0.408197  0  -0.067305  0.033351  0  3.88564  0
C  C128  1  0.21282653  0.41736583  0.29625625  1  -0.037207  0  -0.171272  -0.138831  0  3.986034  0
C  C129  1  0.10631783  0.44292365  0.29821765  1  -0.048729  0  -0.245201  -0.351423  0  3.990631  0
N  N130  1  0.47119405  0.51961113  0.15554936  1  -1.145807  0  -0.235272  -0.216456  0  3.65732  0
N  N131  1  0.48688429  0.50805560  0.85426260  1  -1.174635  0  -0.23486  -0.214029  0  3.655371  0
N  N132  1  0.26156424  0.46139536  0.55478403  1  -1.251571  0  -0.324119  -0.285152  0  3.502281  0
N  N133  1  0.74327123  0.54261485  0.45520839  1  -1.231295  0  -0.320658  -0.284897  0  3.488194  0
Cl  Cl134  1  0.32221274  0.44400108  0.82865157  1  -0.208778  0  -0.023671  -0.087792  0  1.434873  0
Cl  Cl135  1  0.56436884  0.65286564  0.19468347  1  -0.209913  0  -0.005451  -0.072022  0  1.47954  0
Cl  Cl136  1  0.58401245  0.76639461  0.42327039  1  -0.191516  0  0.012342  -0.060255  0  1.663687  0
Cl  Cl137  1  0.44576486  0.23993844  0.44532926  1  -0.197495  0  0.013214  -0.053444  0  1.593932  0
O  O138  1  0.64142229  0.38369699  0.46011886  1  -1.156377  0  -0.319344  -0.538831  0  2.266749  0
O  O139  1  0.36983427  0.61533856  0.50759267  1  -1.168962  0  -0.317835  -0.549553  0  2.287859  0
O  O140  1  0.48746000  0.36914810  0.51863765  1  -1.171938  0  -0.311141  -0.55703  0  2.420067  0
O  O141  1  0.52245782  0.63314777  0.50287698  1  -1.160501  0  -0.321374  -0.557198  0  2.393683  0
O  O142  1  0.59149621  0.49683117  0.56732410  1  -1.161148  0  -0.316887  -0.558337  0  2.308147  0
O  O143  1  0.41448347  0.46559814  0.43408496  1  -1.166114  0  -0.319704  -0.557168  0  2.321543  0
O  O144  1  0.42438549  0.51638726  0.60099949  1  -1.157367  0  -0.314987  -0.536735  0  2.345686  0
O  O145  1  0.55508027  0.52109066  0.40258111  1  -1.158822  0  -0.310159  -0.544049  0  2.363606  0
O  O146  1  0.34291465  0.63301268  0.17802139  1  -1.112977  0  -0.282525  -0.446831  0  2.082952  0
O  O147  1  0.59435877  0.38032294  0.83592376  1  -1.094627  0  -0.272524  -0.424004  0  2.057399  0
O  O148  1  0.60014350  0.40648842  0.13380430  1  -1.081966  0  -0.26744  -0.417092  0  2.061376  0
O  O149  1  0.37926086  0.63550752  0.87136873  1  -1.107676  0  -0.277002  -0.43895  0  2.084747  0
O  O150  1  0.72825854  0.59236610  0.36872256  1  -1.085406  0  -0.166725  -0.20656  0  2.587669  0
O  O151  1  0.29684677  0.37265964  0.62390219  1  -1.101218  0  -0.178631  -0.230987  0  2.519476  0
O  O152  1  0.64566116  0.55719234  0.76656666  1  -1.073342  0  -0.212314  -0.247358  0  2.480595  0
O  O153  1  0.38659563  0.39787649  0.22964499  1  -1.07387  0  -0.208529  -0.23998  0  2.478973  0
