# generated using pymatgen
data_Ag2H14C8S(N5O2)2
_symmetry_space_group_name_H-M   'P 1'
_cell_length_a   8.32908869
_cell_length_b   15.58924459
_cell_length_c   15.58924220
_cell_angle_alpha   112.43912520
_cell_angle_beta   101.60736973
_cell_angle_gamma   101.60795311
_symmetry_Int_Tables_number   1
_chemical_formula_structural   Ag2H14C8S(N5O2)2
_chemical_formula_sum   'Ag8 H56 C32 S4 N40 O16'
_cell_volume   1744.11278029
_cell_formula_units_Z   4
loop_
 _symmetry_equiv_pos_site_id
 _symmetry_equiv_pos_as_xyz
  1  'x, y, z'
loop_
 _atom_site_type_symbol
 _atom_site_label
 _atom_site_symmetry_multiplicity
 _atom_site_fract_x
 _atom_site_fract_y
 _atom_site_fract_z
 _atom_site_occupancy
 _atom_site_pbe_bader_charge
 _atom_site_pbe_bader_spin_density
 _atom_site_pbe_cm5_charge
 _atom_site_pbe_ddec_charge
 _atom_site_pbe_ddec_spin_density
 _atom_site_pbe_ddec_sum_bond_order
 _atom_site_pbe_magmom
Ag  Ag0  1  0.04993433  0.81454916  0.19750544  1  0.575613  0  0.491964  0.445888  0  1.874399  0
Ag  Ag1  1  0.45006754  0.80249258  0.18544837  1  0.575935  0  0.491967  0.445888  0  1.874411  0
Ag  Ag2  1  0.95006910  0.18545356  0.80249166  1  0.576036  0  0.491922  0.445838  0  1.87435  0
Ag  Ag3  1  0.54993820  0.19750724  0.81455168  1  0.575561  0  0.491962  0.445893  0  1.874436  0
Ag  Ag4  1  0.83478133  0.16585448  0.40023002  1  0.551606  0  0.483536  0.378974  0  1.8442  0
Ag  Ag5  1  0.66523220  0.59977138  0.83414409  1  0.551474  0  0.483501  0.37902  0  1.844075  0
Ag  Ag6  1  0.16521993  0.83415107  0.59977246  1  0.551489  0  0.483538  0.378989  0  1.844171  0
Ag  Ag7  1  0.33476683  0.40022981  0.16585389  1  0.551492  0  0.483509  0.378989  0  1.844103  0
H  H8  1  0.83052859  0.22468020  0.25813830  1  0.445256  0  0.308286  0.302711  0  0.954199  0
H  H9  1  0.66946316  0.74185693  0.77531859  1  0.445243  0  0.308248  0.302663  0  0.954236  0
H  H10  1  0.16947338  0.77532681  0.74186354  1  0.445013  0  0.308242  0.302593  0  0.954227  0
H  H11  1  0.33053677  0.25814353  0.22468177  1  0.445254  0  0.308248  0.302675  0  0.954134  0
H  H12  1  0.90406435  0.21990950  0.15899712  1  0.544116  0  0.305375  0.347196  0  0.947001  0
H  H13  1  0.59593151  0.84100084  0.78008525  1  0.544204  0  0.305344  0.347192  0  0.946975  0
H  H14  1  0.09593931  0.78009100  0.84100492  1  0.543998  0  0.305368  0.347187  0  0.946986  0
H  H15  1  0.40406577  0.15900178  0.21991247  1  0.54403  0  0.305355  0.347156  0  0.947104  0
H  H16  1  0.06382383  0.85558277  0.04657122  1  0.527983  0  0.294621  0.313424  0  1.003963  0
H  H17  1  0.43617824  0.95343031  0.14441884  1  0.528336  0  0.294607  0.31342  0  1.003974  0
H  H18  1  0.93617039  0.14442339  0.95343142  1  0.528051  0  0.294616  0.313376  0  1.003966  0
H  H19  1  0.56382844  0.04657387  0.85558237  1  0.528012  0  0.294584  0.313376  0  1.003992  0
H  H20  1  0.03902251  0.93184646  0.98856050  1  0.525395  0  0.293938  0.29457  0  1.019697  0
H  H21  1  0.46098093  0.01144543  0.06815468  1  0.525459  0  0.293947  0.294533  0  1.019742  0
H  H22  1  0.96097632  0.06815903  0.01144427  1  0.525464  0  0.293979  0.294595  0  1.019624  0
H  H23  1  0.53902492  0.98855945  0.93184864  1  0.52538  0  0.293947  0.294565  0  1.019657  0
H  H24  1  0.29414991  0.91294850  0.49261427  1  0.556936  0  0.296302  0.327796  0  0.990682  0
H  H25  1  0.20584302  0.50738429  0.08705155  1  0.55685  0  0.296274  0.327766  0  0.990688  0
H  H26  1  0.70585273  0.08704767  0.50738212  1  0.556782  0  0.296294  0.327788  0  0.990657  0
H  H27  1  0.79415741  0.49261473  0.91294765  1  0.556896  0  0.296286  0.327772  0  0.990696  0
H  H28  1  0.22189914  0.91466419  0.37981960  1  0.497121  0  0.296301  0.298226  0  1.004228  0
H  H29  1  0.27810259  0.62018351  0.08533745  1  0.49713  0  0.296237  0.298236  0  1.004209  0
H  H30  1  0.77809945  0.08533119  0.62017735  1  0.49747  0  0.296261  0.298225  0  1.004223  0
H  H31  1  0.72189849  0.37981911  0.91466643  1  0.497277  0  0.296253  0.298195  0  1.004245  0
H  H32  1  0.93188625  0.60770544  0.10665280  1  0.506132  0  0.297064  0.310013  0  0.985386  0
H  H33  1  0.56811107  0.89335164  0.39229146  1  0.506089  0  0.297081  0.310103  0  0.985391  0
H  H34  1  0.06810622  0.39229494  0.89334291  1  0.50622  0  0.297053  0.310021  0  0.985322  0
H  H35  1  0.43189023  0.10664667  0.60770755  1  0.506125  0  0.297047  0.309989  0  0.985357  0
H  H36  1  0.85780927  0.50622708  0.12787762  1  0.536298  0  0.302083  0.330027  0  0.970753  0
H  H37  1  0.64217943  0.87212696  0.49377296  1  0.53593  0  0.302042  0.330044  0  0.970775  0
H  H38  1  0.14218111  0.49377399  0.87211879  1  0.536372  0  0.302029  0.329951  0  0.970819  0
H  H39  1  0.35782631  0.12787287  0.50622710  1  0.535957  0  0.302046  0.330029  0  0.970732  0
H  H40  1  0.86342097  0.88174030  0.30865978  1  0.039235  0  0.085904  0.126694  0  1.05423  0
H  H41  1  0.63658946  0.69133909  0.11825484  1  0.039345  0  0.085875  0.126679  0  1.054266  0
H  H42  1  0.13658613  0.11825738  0.69133893  1  0.039261  0  0.085883  0.126679  0  1.054285  0
H  H43  1  0.36340701  0.30866420  0.88174691  1  0.039417  0  0.085906  0.126683  0  1.054287  0
H  H44  1  0.77709157  0.97957727  0.35995194  1  0.10952  0  0.091656  0.147135  0  1.079304  0
H  H45  1  0.72291943  0.64005046  0.02041714  1  0.109578  0  0.091666  0.147135  0  1.07926  0
H  H46  1  0.22291290  0.02041743  0.64005048  1  0.109655  0  0.091657  0.147107  0  1.079268  0
H  H47  1  0.27707718  0.35995067  0.97958442  1  0.109486  0  0.091682  0.147143  0  1.079243  0
H  H48  1  0.00348823  0.99818381  0.39820155  1  0.105817  0  0.106776  0.178655  0  0.977291  0
H  H49  1  0.49651886  0.60180083  0.00181188  1  0.105961  0  0.106753  0.178689  0  0.977206  0
H  H50  1  0.99651741  0.00181305  0.60180567  1  0.10593  0  0.106754  0.178643  0  0.977318  0
H  H51  1  0.50348168  0.39820325  0.99819060  1  0.105913  0  0.106755  0.178708  0  0.977163  0
H  H52  1  0.95962627  0.64115221  0.52890670  1  0.066024  0  0.093791  0.12897  0  1.023816  0
H  H53  1  0.54034443  0.47110398  0.35886134  1  0.06572  0  0.093912  0.129146  0  1.023915  0
H  H54  1  0.04037850  0.35884326  0.47109091  1  0.065876  0  0.093757  0.128905  0  1.023834  0
H  H55  1  0.45965755  0.52889792  0.64114492  1  0.065803  0  0.093895  0.129111  0  1.023884  0
H  H56  1  0.92211310  0.52430988  0.42936883  1  0.065317  0  0.101811  0.154625  0  0.990682  0
H  H57  1  0.57785318  0.57064451  0.47569835  1  0.06488  0  0.101889  0.154749  0  0.990749  0
H  H58  1  0.07789536  0.47568565  0.57062854  1  0.065329  0  0.101821  0.154644  0  0.990702  0
H  H59  1  0.42214838  0.42935669  0.52430374  1  0.064919  0  0.101872  0.154694  0  0.990695  0
H  H60  1  0.13614916  0.59872280  0.50620727  1  0.058966  0  0.102575  0.150036  0  0.98035  0
H  H61  1  0.36382168  0.49380107  0.40128677  1  0.058646  0  0.102573  0.150005  0  0.980438  0
H  H62  1  0.86385784  0.40127492  0.49378503  1  0.059044  0  0.102573  0.150019  0  0.980337  0
H  H63  1  0.63618676  0.50620168  0.59871535  1  0.058697  0  0.102559  0.149956  0  0.980532  0
C  C64  1  0.90737210  0.99178163  0.25883656  1  1.106321  0  0.258506  0.519822  0  3.975488  0
C  C65  1  0.59263087  0.74116421  0.00821249  1  1.106121  0  0.258458  0.519914  0  3.975747  0
C  C66  1  0.09262324  0.00821438  0.74116608  1  1.106473  0  0.258495  0.519879  0  3.975771  0
C  C67  1  0.40735723  0.25883463  0.99178667  1  1.106118  0  0.25846  0.51985  0  3.975475  0
C  C68  1  0.90069233  0.10397445  0.19597336  1  1.596178  0  0.351295  0.61191  0  4.129402  0
C  C69  1  0.59930967  0.80403074  0.89602492  1  1.595479  0  0.351272  0.611988  0  4.129373  0
C  C70  1  0.09931905  0.89602901  0.80403639  1  1.595798  0  0.351225  0.611985  0  4.129305  0
C  C71  1  0.40067574  0.19596516  0.10397345  1  1.596037  0  0.35123  0.611863  0  4.129362  0
C  C72  1  0.97583583  0.96777863  0.11709003  1  1.610516  0  0.352089  0.612579  0  4.100239  0
C  C73  1  0.52416481  0.88291364  0.03222177  1  1.610067  0  0.352144  0.612589  0  4.100342  0
C  C74  1  0.02417244  0.03222840  0.88292080  1  1.610714  0  0.35218  0.612497  0  4.10053  0
C  C75  1  0.47583600  0.11708611  0.96777839  1  1.610487  0  0.352083  0.612319  0  4.100513  0
C  C76  1  0.88524489  0.96051587  0.33576575  1  -0.093076  0  -0.257349  -0.528194  0  3.941661  0
C  C77  1  0.61476387  0.66423876  0.03947944  1  -0.093123  0  -0.257329  -0.528328  0  3.941871  0
C  C78  1  0.11475900  0.03948241  0.66424121  1  -0.093232  0  -0.257333  -0.528246  0  3.941929  0
C  C79  1  0.38523468  0.33576385  0.96052098  1  -0.093095  0  -0.257326  -0.528284  0  3.941662  0
C  C80  1  0.12347284  0.78424937  0.38338665  1  1.596389  0  0.343715  0.605405  0  4.098399  0
C  C81  1  0.37650865  0.61661383  0.21574912  1  1.596615  0  0.343757  0.605488  0  4.098488  0
C  C82  1  0.87652311  0.21574816  0.61660894  1  1.596501  0  0.343663  0.605237  0  4.09854  0
C  C83  1  0.62349410  0.38338741  0.78425054  1  1.59657  0  0.343649  0.605412  0  4.098367  0
C  C84  1  0.97041490  0.63585693  0.25048639  1  1.595586  0  0.347827  0.611009  0  4.107958  0
C  C85  1  0.52956465  0.74951482  0.36414148  1  1.595099  0  0.347894  0.611368  0  4.107575  0
C  C86  1  0.02958179  0.36414207  0.74950985  1  1.595188  0  0.347826  0.611032  0  4.107987  0
C  C87  1  0.47043154  0.25048049  0.63585968  1  1.59491  0  0.3479  0.611273  0  4.107937  0
C  C88  1  0.02325185  0.64625591  0.40396740  1  1.13233  0  0.24917  0.498387  0  4.023213  0
C  C89  1  0.47671395  0.59603664  0.35374446  1  1.133156  0  0.24918  0.498399  0  4.023148  0
C  C90  1  0.97674929  0.35373737  0.59602514  1  1.13173  0  0.249059  0.498221  0  4.023477  0
C  C91  1  0.52328684  0.40396312  0.64625442  1  1.13316  0  0.249147  0.498355  0  4.023306  0
C  C92  1  0.00810700  0.59924620  0.47082002  1  -0.097264  0  -0.233931  -0.48137  0  3.936093  0
C  C93  1  0.49186123  0.52918690  0.40076115  1  -0.096768  0  -0.23416  -0.481687  0  3.936361  0
C  C94  1  0.99189811  0.40075002  0.52917599  1  -0.096568  0  -0.233856  -0.481231  0  3.936129  0
C  C95  1  0.50814436  0.47081509  0.59923974  1  -0.096972  0  -0.234103  -0.481523  0  3.936283  0
S  S96  1  0.42147459  0.03514078  0.33030895  1  3.794592  0  0.540497  1.390711  0  6.410442  0
S  S97  1  0.07852677  0.66968562  0.96485831  1  3.795156  0  0.540645  1.390949  0  6.410035  0
S  S98  1  0.57851822  0.96485523  0.66968957  1  3.794502  0  0.540493  1.390677  0  6.41016  0
S  S99  1  0.92147168  0.33031193  0.03513948  1  3.7951  0  0.540547  1.390851  0  6.410172  0
N  N100  1  0.95441862  0.93531129  0.18577816  1  -1.199841  0  -0.364808  -0.469825  0  3.416228  0
N  N101  1  0.54558912  0.81422451  0.06468722  1  -1.199856  0  -0.364825  -0.469837  0  3.416247  0
N  N102  1  0.04558828  0.06469068  0.81422734  1  -1.199997  0  -0.364828  -0.469817  0  3.416314  0
N  N103  1  0.45440821  0.18577808  0.93531435  1  -1.199534  0  -0.364837  -0.469773  0  3.416068  0
N  N104  1  0.88014000  0.07683505  0.26811379  1  -1.190138  0  -0.375845  -0.469734  0  3.454101  0
N  N105  1  0.61986431  0.73189053  0.92316096  1  -1.190106  0  -0.375765  -0.469747  0  3.454222  0
N  N106  1  0.11986498  0.92316542  0.73189414  1  -1.190152  0  -0.375851  -0.469736  0  3.454112  0
N  N107  1  0.38013244  0.26810842  0.07683976  1  -1.190419  0  -0.375806  -0.469703  0  3.454162  0
N  N108  1  0.94576381  0.05068235  0.11996611  1  -1.244054  0  -0.3357  -0.520577  0  3.215972  0
N  N109  1  0.55423734  0.88003717  0.94931570  1  -1.243721  0  -0.335663  -0.520594  0  3.215977  0
N  N110  1  0.05423807  0.94932169  0.88004354  1  -1.243838  0  -0.335764  -0.520696  0  3.215811  0
N  N111  1  0.44575962  0.11995749  0.05067887  1  -1.243544  0  -0.335707  -0.520487  0  3.215714  0
N  N112  1  0.87532616  0.18845019  0.20363197  1  -1.291263  0  -0.55689  -0.62396  0  3.294855  0
N  N113  1  0.62467761  0.79637014  0.81154571  1  -1.290637  0  -0.556853  -0.623948  0  3.294673  0
N  N114  1  0.12468282  0.81155831  0.79637758  1  -1.290937  0  -0.556717  -0.623746  0  3.295042  0
N  N115  1  0.37531989  0.20362816  0.18844714  1  -1.29125  0  -0.556749  -0.623821  0  3.2951  0
N  N116  1  0.02541662  0.91394511  0.04479485  1  -1.345808  0  -0.559182  -0.597821  0  3.327585  0
N  N117  1  0.47458805  0.95520891  0.08605678  1  -1.346141  0  -0.559214  -0.597824  0  3.327569  0
N  N118  1  0.97458303  0.08605969  0.95520653  1  -1.346045  0  -0.559246  -0.597795  0  3.327639  0
N  N119  1  0.52542073  0.04479459  0.91394374  1  -1.345887  0  -0.559158  -0.597727  0  3.327544  0
N  N120  1  0.10949469  0.74277560  0.44591046  1  -1.197441  0  -0.377527  -0.468038  0  3.44463  0
N  N121  1  0.39048642  0.55409102  0.25722602  1  -1.197747  0  -0.377607  -0.468119  0  3.444553  0
N  N122  1  0.89049314  0.25722036  0.55408433  1  -1.19775  0  -0.377543  -0.467901  0  3.444757  0
N  N123  1  0.60951437  0.44590873  0.74277286  1  -1.197756  0  -0.377599  -0.468136  0  3.444617  0
N  N124  1  0.05038413  0.73313760  0.28539796  1  -1.203977  0  -0.375398  -0.526049  0  3.458589  0
N  N125  1  0.44960451  0.71460289  0.26685965  1  -1.203706  0  -0.375387  -0.526167  0  3.458578  0
N  N126  1  0.94960763  0.26686132  0.71459839  1  -1.203271  0  -0.375354  -0.525923  0  3.458574  0
N  N127  1  0.55039250  0.28539895  0.73314415  1  -1.203232  0  -0.375388  -0.526192  0  3.458585  0
N  N128  1  0.95380069  0.59042243  0.30913334  1  -1.192847  0  -0.349287  -0.498444  0  3.139356  0
N  N129  1  0.54616912  0.69087347  0.40957877  1  -1.192756  0  -0.349322  -0.498516  0  3.139339  0
N  N130  1  0.04618833  0.40957357  0.69085903  1  -1.192645  0  -0.349209  -0.49842  0  3.139364  0
N  N131  1  0.45383048  0.30912624  0.59042318  1  -1.192662  0  -0.349309  -0.498507  0  3.139426  0
N  N132  1  0.21093699  0.87837724  0.42190843  1  -1.345741  0  -0.571652  -0.627694  0  3.342297  0
N  N133  1  0.28906003  0.57809040  0.12162355  1  -1.345883  0  -0.571532  -0.627658  0  3.342531  0
N  N134  1  0.78906466  0.12162181  0.57809026  1  -1.346057  0  -0.571578  -0.627661  0  3.342383  0
N  N135  1  0.71093797  0.42190857  0.87837795  1  -1.345998  0  -0.571518  -0.62757  0  3.342389  0
N  N136  1  0.90475090  0.58122157  0.15481736  1  -1.345929  0  -0.554804  -0.599812  0  3.288637  0
N  N137  1  0.59523835  0.84519085  0.41877830  1  -1.345495  0  -0.554811  -0.600091  0  3.288426  0
N  N138  1  0.09523513  0.41877584  0.84517460  1  -1.346381  0  -0.554747  -0.599762  0  3.288662  0
N  N139  1  0.40476651  0.15481690  0.58122733  1  -1.345889  0  -0.554725  -0.599819  0  3.28878  0
O  O140  1  0.34536694  0.94451286  0.23467902  1  -1.336161  0  -0.376819  -0.672769  0  2.400457  0
O  O141  1  0.15463506  0.76531658  0.05548365  1  -1.336222  0  -0.376809  -0.672829  0  2.400501  0
O  O142  1  0.65463415  0.05548254  0.76532011  1  -1.336064  0  -0.376818  -0.672768  0  2.40044  0
O  O143  1  0.84536230  0.23468390  0.94450940  1  -1.33621  0  -0.3768  -0.672718  0  2.400411  0
O  O144  1  0.56112388  0.01777808  0.39347230  1  -1.358908  0  -0.370998  -0.684716  0  2.281943  0
O  O145  1  0.93888037  0.60651689  0.98221950  1  -1.359165  0  -0.371075  -0.684839  0  2.281783  0
O  O146  1  0.43887863  0.98221305  0.60651953  1  -1.359116  0  -0.370981  -0.6847  0  2.281843  0
O  O147  1  0.06110251  0.39347901  0.01777412  1  -1.359272  0  -0.371004  -0.684783  0  2.281888  0
O  O148  1  0.49630879  0.11950940  0.31269218  1  -1.347151  0  -0.378089  -0.671011  0  2.200267  0
O  O149  1  0.00368488  0.68730103  0.88048958  1  -1.347436  0  -0.378134  -0.671085  0  2.20014  0
O  O150  1  0.50369131  0.88048167  0.68730324  1  -1.347051  0  -0.378038  -0.670939  0  2.200049  0
O  O151  1  0.99631717  0.31269873  0.11951136  1  -1.347417  0  -0.37812  -0.671068  0  2.20008  0
O  O152  1  0.28476056  0.05039175  0.37722081  1  -1.353668  0  -0.356745  -0.644709  0  2.193146  0
O  O153  1  0.21524262  0.62277803  0.94960241  1  -1.353672  0  -0.356813  -0.64472  0  2.193083  0
O  O154  1  0.71523510  0.94960502  0.62277958  1  -1.353666  0  -0.356823  -0.644752  0  2.193181  0
O  O155  1  0.78474843  0.37721732  0.05038478  1  -1.353606  0  -0.356801  -0.644756  0  2.193149  0
