# generated using pymatgen
data_CuH12C14Br(NO2)2
_symmetry_space_group_name_H-M   'P 1'
_cell_length_a   11.99681093
_cell_length_b   12.91842241
_cell_length_c   12.85137870
_cell_angle_alpha   91.80003660
_cell_angle_beta   75.82885462
_cell_angle_gamma   71.18987475
_symmetry_Int_Tables_number   1
_chemical_formula_structural   CuH12C14Br(NO2)2
_chemical_formula_sum   'Cu4 H48 C56 Br4 N8 O16'
_cell_volume   1814.69882580
_cell_formula_units_Z   4
loop_
 _symmetry_equiv_pos_site_id
 _symmetry_equiv_pos_as_xyz
  1  'x, y, z'
loop_
 _atom_site_type_symbol
 _atom_site_label
 _atom_site_symmetry_multiplicity
 _atom_site_fract_x
 _atom_site_fract_y
 _atom_site_fract_z
 _atom_site_occupancy
 _atom_site_pbe_bader_charge
 _atom_site_pbe_bader_spin_density
 _atom_site_pbe_cm5_charge
 _atom_site_pbe_ddec_charge
 _atom_site_pbe_ddec_spin_density
 _atom_site_pbe_ddec_sum_bond_order
 _atom_site_pbe_magmom
Cu  Cu0  1  0.09228969  0.88483942  0.01360488  1  0.63809  0  0.426253  0.287946  0  2.537623  0
Cu  Cu1  1  0.90771149  0.11516101  0.98639825  1  0.638162  0  0.426269  0.288062  0  2.537549  0
Cu  Cu2  1  0.60229750  0.91553884  0.48318858  1  0.613451  0  0.414601  0.254225  0  2.651491  0
Cu  Cu3  1  0.39770361  0.08445704  0.51679820  1  0.613394  0  0.414553  0.254393  0  2.651026  0
H  H4  1  0.30385036  0.91047291  0.85710141  1  0.135537  0  0.098636  0.080582  0  1.046217  0
H  H5  1  0.69613977  0.08953183  0.14290975  1  0.135355  0  0.098653  0.080519  0  1.046287  0
H  H6  1  0.52081774  0.88301453  0.84793901  1  0.13234  0  0.098064  0.114121  0  1.04531  0
H  H7  1  0.47917415  0.11700375  0.15205626  1  0.132312  0  0.09808  0.114087  0  1.045457  0
H  H8  1  0.44338186  0.82339308  0.18340973  1  0.125229  0  0.114384  0.125152  0  1.008798  0
H  H9  1  0.55663295  0.17660307  0.81658556  1  0.125306  0  0.114381  0.125099  0  1.008812  0
H  H10  1  0.22972020  0.85369965  0.17952792  1  0.122815  0  0.112185  0.088126  0  1.026659  0
H  H11  1  0.77029276  0.14628772  0.82047709  1  0.122819  0  0.11218  0.0881  0  1.026625  0
H  H12  1  0.83613989  0.83047362  0.99771657  1  0.114517  0  0.108457  0.084104  0  1.037475  0
H  H13  1  0.16386683  0.16952573  0.00227672  1  0.114484  0  0.108433  0.084063  0  1.037541  0
H  H14  1  0.83701971  0.91125609  0.88736897  1  0.098706  0  0.10112  0.086193  0  1.025778  0
H  H15  1  0.16299085  0.08873760  0.11262728  1  0.098978  0  0.101079  0.086161  0  1.025775  0
H  H16  1  0.10487643  0.16568446  0.83497111  1  0.096428  0  0.107828  0.081313  0  1.03441  0
H  H17  1  0.89513470  0.83430776  0.16503124  1  0.096602  0  0.107876  0.081317  0  1.034464  0
H  H18  1  0.13445386  0.33589525  0.76154085  1  0.120006  0  0.111674  0.122622  0  1.007163  0
H  H19  1  0.86555748  0.66409877  0.23846690  1  0.120546  0  0.111715  0.122609  0  1.007235  0
H  H20  1  0.80470621  0.52667352  0.00397328  1  0.092747  0  0.115727  0.12752  0  0.994499  0
H  H21  1  0.19530458  0.47332190  0.99602605  1  0.092797  0  0.11573  0.127525  0  0.994522  0
H  H22  1  0.78650138  0.35070891  0.06572879  1  0.158596  0  0.115506  0.100449  0  1.028771  0
H  H23  1  0.21349987  0.64928904  0.93427354  1  0.158564  0  0.115484  0.100433  0  1.028782  0
H  H24  1  0.00264962  0.73975710  0.82598227  1  0.096276  0  0.107807  0.088899  0  1.000791  0
H  H25  1  0.99736854  0.26024161  0.17401615  1  0.096598  0  0.107794  0.088922  0  1.000894  0
H  H26  1  0.88861438  0.73908435  0.75964176  1  0.060752  0  0.10873  0.084843  0  0.970829  0
H  H27  1  0.11140204  0.26090296  0.24036089  1  0.060713  0  0.108666  0.084711  0  0.970906  0
H  H28  1  0.62771840  0.70886101  0.57722673  1  0.093723  0  0.113599  0.083197  0  0.991051  0
H  H29  1  0.37226412  0.29114322  0.42276673  1  0.093573  0  0.113532  0.083114  0  0.990835  0
H  H30  1  0.65230549  0.51486108  0.51540656  1  0.083938  0  0.116636  0.125892  0  0.985761  0
H  H31  1  0.34767763  0.48513936  0.48459841  1  0.084073  0  0.116604  0.125833  0  0.985949  0
H  H32  1  0.61757082  0.61995274  0.20579444  1  0.09621  0  0.115646  0.125152  0  0.993307  0
H  H33  1  0.38242178  0.38004984  0.79419824  1  0.096202  0  0.115566  0.125111  0  0.993203  0
H  H34  1  0.59503143  0.80939881  0.27977326  1  0.157996  0  0.102829  0.087867  0  1.062273  0
H  H35  1  0.40497128  0.19059978  0.72022251  1  0.158239  0  0.102799  0.087846  0  1.062241  0
H  H36  1  0.75221779  0.22192424  0.28127545  1  0.094064  0  0.100344  0.091205  0  1.012067  0
H  H37  1  0.24777741  0.77807605  0.71872285  1  0.093979  0  0.100348  0.091172  0  1.012138  0
H  H38  1  0.59154933  0.25574901  0.33673114  1  0.094944  0  0.103334  0.078255  0  1.009033  0
H  H39  1  0.40844160  0.74425114  0.66326269  1  0.095113  0  0.103297  0.078191  0  1.009248  0
H  H40  1  0.26098360  0.08733505  0.34882079  1  0.098721  0  0.110668  0.085517  0  1.001688  0
H  H41  1  0.73901685  0.91266266  0.65117316  1  0.09845  0  0.110668  0.085514  0  1.001875  0
H  H42  1  0.03862414  0.13114013  0.35608510  1  0.139992  0  0.109909  0.120112  0  1.021336  0
H  H43  1  0.96137242  0.86884970  0.64392138  1  0.139995  0  0.109962  0.120192  0  1.02118  0
H  H44  1  0.96593873  0.12569705  0.70152052  1  0.119188  0  0.104882  0.114641  0  1.03126  0
H  H45  1  0.03405289  0.87429673  0.29848089  1  0.118936  0  0.104859  0.114634  0  1.031394  0
H  H46  1  0.19048117  0.07624770  0.67928296  1  0.085311  0  0.102152  0.075757  0  1.043556  0
H  H47  1  0.80950443  0.92375534  0.32072691  1  0.085355  0  0.102071  0.075643  0  1.043526  0
H  H48  1  0.68202620  0.11528628  0.43810141  1  0.12377  0  0.09843  0.07696  0  1.04792  0
H  H49  1  0.31795697  0.88472323  0.56190439  1  0.123265  0  0.098375  0.076853  0  1.047892  0
H  H50  1  0.63718976  0.23997759  0.52578880  1  0.095619  0  0.107489  0.084817  0  1.001615  0
H  H51  1  0.36280389  0.76002908  0.47420288  1  0.096008  0  0.107488  0.084698  0  1.001425  0
C  C52  1  0.33894027  0.88971234  0.92724841  1  0.500092  0  0.037385  0.092825  0  3.904167  0
C  C53  1  0.66105462  0.11029800  0.07275702  1  0.500243  0  0.037483  0.092946  0  3.903924  0
C  C54  1  0.46004684  0.87435713  0.92278574  1  -0.070885  0  -0.080922  -0.133627  0  3.938996  0
C  C55  1  0.53994194  0.12565805  0.07721646  1  -0.070334  0  -0.080963  -0.133637  0  3.938973  0
C  C56  1  0.50090168  0.84818137  0.01491781  1  -0.025775  0  -0.00507  -0.011242  0  3.994152  0
C  C57  1  0.49909908  0.15181554  0.98507684  1  -0.02636  0  -0.005071  -0.011094  0  3.994238  0
C  C58  1  0.41652845  0.84137097  0.10912480  1  -0.012563  0  -0.07034  -0.121454  0  3.923786  0
C  C59  1  0.58347632  0.15862447  0.89087592  1  -0.012479  0  -0.070257  -0.121414  0  3.92374  0
C  C60  1  0.29690360  0.85834066  0.10705426  1  0.440084  0  0.03814  0.080846  0  3.915962  0
C  C61  1  0.70310540  0.14165728  0.89294705  1  0.439924  0  0.038125  0.080958  0  3.915795  0
C  C62  1  0.63010238  0.82669969  0.01581719  1  1.508759  0  0.235618  0.51048  0  4.107024  0
C  C63  1  0.36989583  0.17330632  0.98417966  1  1.508658  0  0.235593  0.510339  0  4.10701  0
C  C64  1  0.82207959  0.83680053  0.91681682  1  0.367611  0  -0.075485  -0.015103  0  3.882598  0
C  C65  1  0.17793599  0.16318892  0.08317436  1  0.367258  0  -0.075572  -0.015215  0  3.882876  0
C  C66  1  0.03994887  0.24757017  0.86854388  1  0.485532  0  0.035888  0.079337  0  3.937275  0
C  C67  1  0.96006258  0.75242346  0.13144984  1  0.485328  0  0.03581  0.079293  0  3.937631  0
C  C68  1  0.05610673  0.34160528  0.82852323  1  -0.036293  0  -0.070766  -0.115893  0  3.921989  0
C  C69  1  0.94390445  0.65839379  0.17148926  1  -0.037511  0  -0.07082  -0.115933  0  3.921773  0
C  C70  1  0.97053601  0.44481407  0.87566271  1  -0.029505  0  -0.004564  -0.012784  0  3.995942  0
C  C71  1  0.02947127  0.55518383  0.12433745  1  -0.028678  0  -0.004477  -0.012488  0  3.995638  0
C  C72  1  0.87247414  0.44836567  0.96328167  1  -0.011245  0  -0.076267  -0.136409  0  3.944447  0
C  C73  1  0.12754163  0.55163489  0.03672432  1  -0.011134  0  -0.076341  -0.136608  0  3.944633  0
C  C74  1  0.86213401  0.35023310  0.99810473  1  0.45955  0  0.037532  0.079448  0  3.904269  0
C  C75  1  0.13786987  0.64976468  0.00189154  1  0.459423  0  0.037542  0.079538  0  3.904313  0
C  C76  1  0.98824417  0.54447785  0.82952245  1  1.48857  0  0.229915  0.496976  0  4.133773  0
C  C77  1  0.01177782  0.45551526  0.17048128  1  1.488488  0  0.229998  0.496899  0  4.13376  0
C  C78  1  0.90907225  0.73869147  0.83856184  1  0.391906  0  -0.068755  -0.001866  0  3.883173  0
C  C79  1  0.09094407  0.26130067  0.16143697  1  0.391715  0  -0.068618  -0.001696  0  3.883133  0
C  C80  1  0.62619231  0.68513778  0.49546663  1  0.420452  0  0.038377  0.077361  0  3.945874  0
C  C81  1  0.37379279  0.31487567  0.50453329  1  0.420892  0  0.038294  0.077456  0  3.945835  0
C  C82  1  0.63929039  0.57797853  0.46105091  1  0.046433  0  -0.074712  -0.129763  0  3.944429  0
C  C83  1  0.36070306  0.42202409  0.53894313  1  0.046006  0  -0.074517  -0.129495  0  3.944323  0
C  C84  1  0.63571725  0.55261596  0.35538844  1  -0.012573  0  0.001355  0.000543  0  3.985633  0
C  C85  1  0.36426408  0.44738697  0.64461775  1  -0.012147  0  0.00141  0.000489  0  3.985738  0
C  C86  1  0.61943170  0.63669940  0.28879057  1  -0.005249  0  -0.069045  -0.123327  0  3.928905  0
C  C87  1  0.38056804  0.36330476  0.71119891  1  -0.005085  0  -0.069025  -0.123283  0  3.92938  0
C  C88  1  0.60675432  0.74187110  0.32940494  1  0.446268  0  0.038561  0.07923  0  3.914541  0
C  C89  1  0.39324316  0.25813923  0.67059989  1  0.445934  0  0.038655  0.079417  0  3.91428  0
C  C90  1  0.64853089  0.44006594  0.31198267  1  1.527737  0  0.236633  0.514441  0  4.119992  0
C  C91  1  0.35146619  0.55992929  0.68801127  1  1.527158  0  0.236455  0.514248  0  4.120333  0
C  C92  1  0.67615518  0.25691325  0.35445635  1  0.378478  0  -0.072651  -0.008371  0  3.884204  0
C  C93  1  0.32383671  0.74309131  0.64554818  1  0.378434  0  -0.072646  -0.008275  0  3.884246  0
C  C94  1  0.19148073  0.09841114  0.42522400  1  0.41485  0  0.0371  0.082299  0  3.92488  0
C  C95  1  0.80850175  0.90158177  0.57477641  1  0.41486  0  0.036981  0.082196  0  3.925219  0
C  C96  1  0.06858122  0.12353281  0.42978850  1  0.043306  0  -0.079287  -0.140431  0  3.944902  0
C  C97  1  0.93139949  0.87647175  0.57021705  1  0.044272  0  -0.07933  -0.140484  0  3.94451  0
C  C98  1  0.98399701  0.13626950  0.53059334  1  -0.103037  0  -0.005289  -0.010652  0  3.9869  0
C  C99  1  0.01598784  0.86371015  0.46940333  1  -0.103117  0  -0.005374  -0.010814  0  3.987312  0
C  C100  1  0.02777370  0.12010668  0.62224678  1  -0.014105  0  -0.078324  -0.128541  0  3.94744  0
C  C101  1  0.97222463  0.87989441  0.37775079  1  -0.014437  0  -0.078289  -0.128526  0  3.948034  0
C  C102  1  0.15198097  0.09357031  0.61056857  1  0.515872  0  0.034232  0.082646  0  3.926852  0
C  C103  1  0.84801553  0.90642197  0.38943715  1  0.515741  0  0.034201  0.08269  0  3.92666  0
C  C104  1  0.85048721  0.16276793  0.54416205  1  1.509796  0  0.232271  0.507178  0  4.119436  0
C  C105  1  0.14949603  0.83725053  0.45584067  1  1.509856  0  0.232574  0.507527  0  4.118997  0
C  C106  1  0.69731751  0.19392796  0.44811811  1  0.341859  0  -0.07072  0.001489  0  3.852965  0
C  C107  1  0.30267091  0.80607895  0.55188257  1  0.341921  0  -0.07066  0.001754  0  3.852256  0
Br  Br108  1  0.05950896  0.95825467  0.84303792  1  -0.608587  0  -0.265368  -0.466687  0  1.633328  0
Br  Br109  1  0.94049175  0.04174241  0.15696297  1  -0.608594  0  -0.265376  -0.466678  0  1.633327  0
Br  Br110  1  0.53900858  0.02891974  0.33475123  1  -0.589544  0  -0.266066  -0.447185  0  1.591593  0
Br  Br111  1  0.46105088  0.97112033  0.66525189  1  -0.589482  0  -0.266106  -0.447282  0  1.591639  0
N  N112  1  0.25774112  0.88101674  0.01725644  1  -1.23013  0  -0.360686  -0.198767  0  3.656665  0
N  N113  1  0.74226425  0.11897711  0.98274569  1  -1.230074  0  -0.360841  -0.199009  0  3.656895  0
N  N114  1  0.94363404  0.25005457  0.95104335  1  -1.213637  0  -0.364271  -0.20313  0  3.667602  0
N  N115  1  0.05637295  0.74994189  0.04896387  1  -1.213823  0  -0.364239  -0.203099  0  3.667822  0
N  N116  1  0.60948209  0.76674547  0.43145679  1  -1.209435  0  -0.36201  -0.19029  0  3.661327  0
N  N117  1  0.39051203  0.23326452  0.56853558  1  -1.209593  0  -0.361979  -0.19059  0  3.661145  0
N  N118  1  0.23355617  0.08447478  0.51423758  1  -1.217213  0  -0.363761  -0.191132  0  3.658075  0
N  N119  1  0.76642743  0.91552894  0.48576730  1  -1.217154  0  -0.363593  -0.190846  0  3.658133  0
O  O120  1  0.67150593  0.79225535  0.09104905  1  -1.135376  0  -0.270493  -0.46077  0  2.180903  0
O  O121  1  0.32849929  0.20773646  0.90893909  1  -1.135455  0  -0.270502  -0.460758  0  2.180844  0
O  O122  1  0.69570851  0.85010868  0.92336442  1  -1.066366  0  -0.167765  -0.229683  0  2.499744  0
O  O123  1  0.30429747  0.14988577  0.07662979  1  -1.066325  0  -0.167587  -0.229441  0  2.500023  0
O  O124  1  0.07233202  0.54167758  0.75161029  1  -1.131424  0  -0.282119  -0.464941  0  2.126836  0
O  O125  1  0.92768971  0.45831395  0.24839583  1  -1.131144  0  -0.282179  -0.464952  0  2.126616  0
O  O126  1  0.89996073  0.63889085  0.88292552  1  -1.053026  0  -0.166039  -0.228765  0  2.503243  0
O  O127  1  0.10005872  0.36109989  0.11708190  1  -1.05293  0  -0.166108  -0.228824  0  2.503403  0
O  O128  1  0.64261318  0.41515830  0.22111423  1  -1.142853  0  -0.282263  -0.470051  0  2.124063  0
O  O129  1  0.35737595  0.58484439  0.77888236  1  -1.142645  0  -0.282236  -0.470024  0  2.124212  0
O  O130  1  0.66515600  0.36927118  0.38616408  1  -1.066269  0  -0.164285  -0.232189  0  2.536831  0
O  O131  1  0.33482911  0.63073301  0.61382800  1  -1.066123  0  -0.164221  -0.232154  0  2.536613  0
O  O132  1  0.77530898  0.17433090  0.63163508  1  -1.142707  0  -0.280923  -0.467822  0  2.125621  0
O  O133  1  0.22467765  0.82567853  0.36836758  1  -1.142582  0  -0.281039  -0.467992  0  2.125606  0
O  O134  1  0.82374471  0.17157253  0.44815370  1  -1.048399  0  -0.161574  -0.219741  0  2.529752  0
O  O135  1  0.17624401  0.82842211  0.55184917  1  -1.04865  0  -0.161694  -0.219889  0  2.529527  0
