# generated using pymatgen
data_CdH3C6S(NO)3
_symmetry_space_group_name_H-M   'P 1'
_cell_length_a   6.19223337
_cell_length_b   10.44374642
_cell_length_c   13.15151830
_cell_angle_alpha   96.95433755
_cell_angle_beta   90.00084446
_cell_angle_gamma   90.00052853
_symmetry_Int_Tables_number   1
_chemical_formula_structural   CdH3C6S(NO)3
_chemical_formula_sum   'Cd4 H12 C24 S4 N12 O12'
_cell_volume   844.25296461
_cell_formula_units_Z   4
loop_
 _symmetry_equiv_pos_site_id
 _symmetry_equiv_pos_as_xyz
  1  'x, y, z'
loop_
 _atom_site_type_symbol
 _atom_site_label
 _atom_site_symmetry_multiplicity
 _atom_site_fract_x
 _atom_site_fract_y
 _atom_site_fract_z
 _atom_site_occupancy
 _atom_site_hle17_bader_spin_density
 _atom_site_hle17_ddec_charge
 _atom_site_hle17_ddec_spin_density
 _atom_site_hle17_ddec_sum_bond_order
 _atom_site_hle17_magmom
 _atom_site_hse06_10hf_bader_spin_density
 _atom_site_hse06_10hf_ddec_charge
 _atom_site_hse06_10hf_ddec_spin_density
 _atom_site_hse06_10hf_ddec_sum_bond_order
 _atom_site_hse06_10hf_magmom
 _atom_site_hse06_bader_spin_density
 _atom_site_hse06_ddec_charge
 _atom_site_hse06_ddec_spin_density
 _atom_site_hse06_ddec_sum_bond_order
 _atom_site_hse06_magmom
 _atom_site_pbe_bader_spin_density
 _atom_site_pbe_cm5_charge
 _atom_site_pbe_ddec_charge
 _atom_site_pbe_ddec_spin_density
 _atom_site_pbe_ddec_sum_bond_order
 _atom_site_pbe_magmom
Cd  Cd0  1  0.31559776  0.52134506  0.74445412  1  0  1.104668  0  1.803797  0  0  0.931131  0  2.262483  0  0  0.983426  0  2.2127  0  0  0.761669  0.894465  0  2.296261  0
Cd  Cd1  1  0.81559583  0.97865859  0.75554554  1  0  1.104629  0  1.803654  0  0  0.931136  0  2.262308  0  0  0.98343  0  2.212525  0  0  0.761673  0.894473  0  2.296091  0
Cd  Cd2  1  0.68440382  0.47865395  0.25555053  1  0  1.104725  0  1.803509  0  0  0.931215  0  2.262162  0  0  0.983509  0  2.212378  0  0  0.761675  0.894552  0  2.295945  0
Cd  Cd3  1  0.18441059  0.02133754  0.24445426  1  0  1.104627  0  1.803712  0  0  0.931139  0  2.26238  0  0  0.983429  0  2.212599  0  0  0.761654  0.894477  0  2.296165  0
H  H4  1  0.89939958  0.55388635  0.91306767  1  0  0.094971  0  0.95914  0  0  0.099085  0  1.028225  0  0  0.102023  0  1.026654  0  0  0.112674  0.096557  0  1.030545  0
H  H5  1  0.39939429  0.94610816  0.58693551  1  0  0.094926  0  0.959239  0  0  0.099051  0  1.028306  0  0  0.101989  0  1.026735  0  0  0.112653  0.096526  0  1.030624  0
H  H6  1  0.10059231  0.44610977  0.08693593  1  0  0.094951  0  0.959254  0  0  0.099112  0  1.028232  0  0  0.102052  0  1.026657  0  0  0.112667  0.096581  0  1.030558  0
H  H7  1  0.60062021  0.05389569  0.41306201  1  0  0.09493  0  0.959274  0  0  0.099068  0  1.028315  0  0  0.102009  0  1.02674  0  0  0.112647  0.096541  0  1.030636  0
H  H8  1  0.77505843  0.72199779  0.05719071  1  0  0.122982  0  0.965805  0  0  0.126382  0  1.035194  0  0  0.129861  0  1.032942  0  0  0.123923  0.123853  0  1.036762  0
H  H9  1  0.27504467  0.77799960  0.44280777  1  0  0.122876  0  0.965856  0  0  0.126264  0  1.035278  0  0  0.129734  0  1.03304  0  0  0.123872  0.123741  0  1.036828  0
H  H10  1  0.22494477  0.27800024  0.94281765  1  0  0.122973  0  0.965828  0  0  0.126382  0  1.035234  0  0  0.129844  0  1.033022  0  0  0.123923  0.123859  0  1.036786  0
H  H11  1  0.72495530  0.22200232  0.55719108  1  0  0.122986  0  0.965892  0  0  0.126335  0  1.035315  0  0  0.129797  0  1.033111  0  0  0.12388  0.123812  0  1.036868  0
H  H12  1  0.31448105  0.94779115  0.01013930  1  0  0.152368  0  0.940654  0  0  0.153653  0  1.009511  0  0  0.159154  0  1.003725  0  0  0.138159  0.149738  0  1.013739  0
H  H13  1  0.81447889  0.55221133  0.48985237  1  0  0.152456  0  0.940558  0  0  0.153745  0  1.009381  0  0  0.159245  0  1.003598  0  0  0.138188  0.149828  0  1.013607  0
H  H14  1  0.68552053  0.05220884  0.98986012  1  0  0.152404  0  0.940742  0  0  0.153681  0  1.009573  0  0  0.15918  0  1.00379  0  0  0.138178  0.149767  0  1.013799  0
H  H15  1  0.18552753  0.44778577  0.51014449  1  0  0.152504  0  0.940581  0  0  0.153762  0  1.009439  0  0  0.159263  0  1.003653  0  0  0.138191  0.149844  0  1.013666  0
C  C16  1  0.99445842  0.64081915  0.93562361  1  0  0.120869  0  3.691986  0  0  0.090168  0  3.95548  0  0  0.094916  0  3.969688  0  0  0.061216  0.086358  0  3.946815  0
C  C17  1  0.49444940  0.85917308  0.56437548  1  0  0.120932  0  3.692218  0  0  0.090245  0  3.955648  0  0  0.094993  0  3.969857  0  0  0.061293  0.086432  0  3.946988  0
C  C18  1  0.00553669  0.35917891  0.06437790  1  0  0.120866  0  3.692075  0  0  0.090198  0  3.955518  0  0  0.09495  0  3.969723  0  0  0.061271  0.086388  0  3.946855  0
C  C19  1  0.50555702  0.14082691  0.43562394  1  0  0.120961  0  3.692311  0  0  0.090255  0  3.955759  0  0  0.095006  0  3.969963  0  0  0.061341  0.086444  0  3.947098  0
C  C20  1  0.92179490  0.73170883  0.01323813  1  0  -0.017953  0  3.522248  0  0  -0.06051  0  3.786611  0  0  -0.057178  0  3.797537  0  0  0.048962  -0.061789  0  3.779003  0
C  C21  1  0.42178389  0.76828273  0.48676162  1  0  -0.017824  0  3.52242  0  0  -0.060374  0  3.786758  0  0  -0.057037  0  3.797672  0  0  0.049043  -0.06165  0  3.779154  0
C  C22  1  0.07820668  0.26828826  0.98676329  1  0  -0.017866  0  3.522233  0  0  -0.060467  0  3.7866  0  0  -0.057137  0  3.79751  0  0  0.048984  -0.061742  0  3.778996  0
C  C23  1  0.57822415  0.23171629  0.51323847  1  0  -0.018102  0  3.522557  0  0  -0.060566  0  3.786848  0  0  -0.057238  0  3.797759  0  0  0.048938  -0.061847  0  3.77925  0
C  C24  1  0.29401069  0.76387253  0.91104496  1  0  0.092954  0  3.737071  0  0  0.096854  0  3.983215  0  0  0.097805  0  3.998272  0  0  0.123222  0.095886  0  3.97342  0
C  C25  1  0.79400624  0.73612422  0.58895539  1  0  0.092942  0  3.736899  0  0  0.096843  0  3.983044  0  0  0.097802  0  3.998089  0  0  0.123194  0.095876  0  3.973244  0
C  C26  1  0.70597959  0.23611974  0.08895371  1  0  0.093061  0  3.736734  0  0  0.09693  0  3.982921  0  0  0.097893  0  3.997954  0  0  0.12327  0.095962  0  3.973131  0
C  C27  1  0.20599372  0.26387866  0.41104507  1  0  0.092824  0  3.736801  0  0  0.096753  0  3.982945  0  0  0.097708  0  3.997996  0  0  0.123145  0.095786  0  3.973149  0
C  C28  1  0.08499273  0.23949671  0.68321104  1  0  0.324905  0  3.985953  0  0  0.30187  0  4.291605  0  0  0.324351  0  4.306422  0  0  0.149635  0.286523  0  4.281077  0
C  C29  1  0.58501479  0.26051079  0.81678725  1  0  0.325061  0  3.986282  0  0  0.302014  0  4.291922  0  0  0.324491  0  4.30674  0  0  0.14966  0.286667  0  4.281403  0
C  C30  1  0.91497009  0.76051005  0.31678448  1  0  0.325358  0  3.986555  0  0  0.302313  0  4.292154  0  0  0.324782  0  4.306965  0  0  0.149773  0.286972  0  4.28164  0
C  C31  1  0.41498841  0.73948148  0.18320989  1  0  0.325124  0  3.986138  0  0  0.302085  0  4.291772  0  0  0.324559  0  4.306588  0  0  0.149627  0.286742  0  4.281249  0
C  C32  1  0.22748572  0.85848798  0.98756150  1  0  -0.027075  0  3.512021  0  0  -0.07801  0  3.775957  0  0  -0.073188  0  3.784626  0  0  0.05311  -0.081928  0  3.771298  0
C  C33  1  0.72747420  0.64151223  0.51243566  1  0  -0.027206  0  3.511871  0  0  -0.078137  0  3.77585  0  0  -0.073315  0  3.784515  0  0  0.053081  -0.082054  0  3.771188  0
C  C34  1  0.77251101  0.14150912  0.01243764  1  0  -0.027235  0  3.51222  0  0  -0.07811  0  3.776115  0  0  -0.073288  0  3.784778  0  0  0.05306  -0.082025  0  3.771454  0
C  C35  1  0.27252414  0.35848775  0.48756528  1  0  -0.027273  0  3.511934  0  0  -0.078192  0  3.775904  0  0  -0.073368  0  3.784569  0  0  0.053062  -0.082108  0  3.771242  0
C  C36  1  0.49910881  0.78238691  0.85060796  1  0  0.632979  0  3.905288  0  0  0.580596  0  4.201029  0  0  0.614665  0  4.194566  0  0  0.211961  0.557336  0  4.204532  0
C  C37  1  0.99911068  0.71761692  0.64939230  1  0  0.63308  0  3.905132  0  0  0.580725  0  4.200824  0  0  0.61479  0  4.194359  0  0  0.212066  0.557463  0  4.204333  0
C  C38  1  0.50089115  0.21760728  0.14939242  1  0  0.633111  0  3.905191  0  0  0.580714  0  4.200957  0  0  0.61478  0  4.194493  0  0  0.212038  0.557454  0  4.204466  0
C  C39  1  0.00089897  0.28238113  0.35060845  1  0  0.633042  0  3.905018  0  0  0.580666  0  4.200756  0  0  0.614732  0  4.194294  0  0  0.212058  0.557406  0  4.204264  0
S  S40  1  0.05862207  0.09654403  0.61910910  1  0  -0.362404  0  2.20845  0  0  -0.33167  0  2.549158  0  0  -0.352492  0  2.545008  0  0  -0.141299  -0.316705  0  2.551762  0
S  S41  1  0.55862419  0.40346522  0.88089297  1  0  -0.362503  0  2.208455  0  0  -0.331804  0  2.549225  0  0  -0.352628  0  2.545077  0  0  -0.141319  -0.316838  0  2.551832  0
S  S42  1  0.94136659  0.90347043  0.38089022  1  0  -0.362649  0  2.208226  0  0  -0.331964  0  2.548988  0  0  -0.352788  0  2.544831  0  0  -0.141347  -0.316994  0  2.551598  0
S  S43  1  0.44138385  0.59652898  0.11910588  1  0  -0.362471  0  2.208411  0  0  -0.331802  0  2.549202  0  0  -0.35263  0  2.545052  0  0  -0.141254  -0.316832  0  2.551807  0
N  N44  1  0.17837584  0.65596710  0.88510086  1  0  -0.313475  0  3.28219  0  0  -0.255812  0  3.546222  0  0  -0.268671  0  3.56171  0  0  -0.318021  -0.246944  0  3.535626  0
N  N45  1  0.67836912  0.84402797  0.61489999  1  0  -0.313473  0  3.282072  0  0  -0.255845  0  3.546131  0  0  -0.268707  0  3.561618  0  0  -0.31808  -0.246979  0  3.535544  0
N  N46  1  0.82162090  0.34403289  0.11490160  1  0  -0.313562  0  3.281953  0  0  -0.255953  0  3.546051  0  0  -0.268819  0  3.561536  0  0  -0.318118  -0.247086  0  3.535464  0
N  N47  1  0.32164053  0.15597009  0.38509924  1  0  -0.313406  0  3.281833  0  0  -0.255832  0  3.545946  0  0  -0.268692  0  3.561432  0  0  -0.3181  -0.246966  0  3.535358  0
N  N48  1  0.10113383  0.34490754  0.72716632  1  0  -0.547726  0  2.853035  0  0  -0.492725  0  3.130047  0  0  -0.514734  0  3.135727  0  0  -0.397268  -0.477602  0  3.125917  0
N  N49  1  0.60116090  0.15511453  0.77283352  1  0  -0.547768  0  2.853367  0  0  -0.492764  0  3.130388  0  0  -0.514767  0  3.136058  0  0  -0.397243  -0.477643  0  3.126266  0
N  N50  1  0.89883545  0.65512812  0.27284192  1  0  -0.547936  0  2.853882  0  0  -0.492931  0  3.130871  0  0  -0.514933  0  3.136545  0  0  -0.397314  -0.477815  0  3.126754  0
N  N51  1  0.39884714  0.84488066  0.22715859  1  0  -0.547871  0  2.853313  0  0  -0.49286  0  3.130326  0  0  -0.514866  0  3.136004  0  0  -0.397271  -0.477741  0  3.126205  0
N  N52  1  0.03876422  0.84163657  0.03808084  1  0  0.323236  0  3.714463  0  0  0.36927  0  3.981135  0  0  0.373674  0  4.002677  0  0  -0.089161  0.365707  0  3.96665  0
N  N53  1  0.53875494  0.65836224  0.46191757  1  0  0.3234  0  3.714374  0  0  0.369398  0  3.981058  0  0  0.373802  0  4.002596  0  0  -0.089075  0.365833  0  3.966576  0
N  N54  1  0.96123574  0.15836342  0.96191935  1  0  0.323269  0  3.714431  0  0  0.369287  0  3.981108  0  0  0.373693  0  4.002647  0  0  -0.089168  0.365723  0  3.966624  0
N  N55  1  0.46124987  0.34163679  0.53808251  1  0  0.323528  0  3.71419  0  0  0.369497  0  3.980871  0  0  0.373905  0  4.002408  0  0  -0.089011  0.365934  0  3.966386  0
O  O56  1  0.96559637  0.92977072  0.10786008  1  0  -0.487472  0  1.788215  0  0  -0.436059  0  2.023335  0  0  -0.462583  0  2.023251  0  0  -0.207256  -0.417261  0  2.023268  0
O  O57  1  0.46558409  0.57023077  0.39213640  1  0  -0.487606  0  1.788226  0  0  -0.436166  0  2.023336  0  0  -0.462688  0  2.023249  0  0  -0.207315  -0.417366  0  2.023267  0
O  O58  1  0.03440682  0.07023023  0.89214020  1  0  -0.48748  0  1.788179  0  0  -0.436074  0  2.023341  0  0  -0.462597  0  2.023252  0  0  -0.207241  -0.417272  0  2.02327  0
O  O59  1  0.53441425  0.42976921  0.60786530  1  0  -0.487629  0  1.788193  0  0  -0.436168  0  2.023315  0  0  -0.462693  0  2.023234  0  0  -0.207333  -0.417367  0  2.023242  0
O  O60  1  0.55434883  0.69329780  0.78184138  1  0  -0.598361  0  2.021456  0  0  -0.54022  0  2.268512  0  0  -0.568713  0  2.260567  0  0  -0.313714  -0.520592  0  2.273774  0
O  O61  1  0.05435961  0.80671001  0.71815221  1  0  -0.598385  0  2.02143  0  0  -0.540316  0  2.26854  0  0  -0.568806  0  2.260599  0  0  -0.313774  -0.52069  0  2.273807  0
O  O62  1  0.44564306  0.30669544  0.21815662  1  0  -0.598489  0  2.02133  0  0  -0.540313  0  2.26833  0  0  -0.568806  0  2.260385  0  0  -0.313772  -0.520684  0  2.273597  0
O  O63  1  0.94565166  0.19329385  0.28184303  1  0  -0.598278  0  2.02139  0  0  -0.540146  0  2.268429  0  0  -0.568639  0  2.260491  0  0  -0.313723  -0.520519  0  2.273693  0
O  O64  1  0.59934206  0.88790312  0.87488407  1  0  -0.615444  0  2.004604  0  0  -0.553958  0  2.254939  0  0  -0.582254  0  2.244275  0  0  -0.317841  -0.533569  0  2.260969  0
O  O65  1  0.09934038  0.61209917  0.62511615  1  0  -0.615552  0  2.004578  0  0  -0.554024  0  2.254827  0  0  -0.58234  0  2.244214  0  0  -0.317881  -0.533633  0  2.260858  0
O  O66  1  0.40065467  0.11209301  0.12511649  1  0  -0.615471  0  2.004825  0  0  -0.55399  0  2.255175  0  0  -0.582289  0  2.244515  0  0  -0.317841  -0.533596  0  2.261206  0
O  O67  1  0.90066605  0.38789792  0.37488603  1  0  -0.615537  0  2.004416  0  0  -0.55406  0  2.254735  0  0  -0.582359  0  2.244081  0  0  -0.317898  -0.533666  0  2.260767  0
