# generated using pymatgen
data_NdFe2H25C36(NO4)2
_symmetry_space_group_name_H-M   'P 1'
_cell_length_a   11.46166028
_cell_length_b   12.00354857
_cell_length_c   13.72280000
_cell_angle_alpha   94.60052348
_cell_angle_beta   109.50791865
_cell_angle_gamma   117.14354529
_symmetry_Int_Tables_number   1
_chemical_formula_structural   NdFe2H25C36(NO4)2
_chemical_formula_sum   'Nd2 Fe4 H50 C72 N4 O16'
_cell_volume   1521.53273153
_cell_formula_units_Z   2
loop_
 _symmetry_equiv_pos_site_id
 _symmetry_equiv_pos_as_xyz
  1  'x, y, z'
loop_
 _atom_site_type_symbol
 _atom_site_label
 _atom_site_symmetry_multiplicity
 _atom_site_fract_x
 _atom_site_fract_y
 _atom_site_fract_z
 _atom_site_occupancy
 _atom_site_hle17_bader_spin_density
 _atom_site_hle17_ddec_charge
 _atom_site_hle17_ddec_spin_density
 _atom_site_hle17_ddec_sum_bond_order
 _atom_site_hle17_magmom
 _atom_site_hse06_10hf_bader_spin_density
 _atom_site_hse06_10hf_ddec_charge
 _atom_site_hse06_10hf_ddec_spin_density
 _atom_site_hse06_10hf_ddec_sum_bond_order
 _atom_site_hse06_10hf_magmom
 _atom_site_hse06_bader_spin_density
 _atom_site_hse06_ddec_charge
 _atom_site_hse06_ddec_spin_density
 _atom_site_hse06_ddec_sum_bond_order
 _atom_site_hse06_magmom
 _atom_site_pbe_bader_charge
 _atom_site_pbe_bader_spin_density
 _atom_site_pbe_cm5_charge
 _atom_site_pbe_ddec_charge
 _atom_site_pbe_ddec_spin_density
 _atom_site_pbe_ddec_sum_bond_order
 _atom_site_pbe_magmom
Nd  Nd0  1  0.20082581  0.64451240  0.61319628  1  0  2.22441  0  1.707177  0  0  2.038367  0  2.200617  0  0  2.088743  0  2.147191  0  2.23438  0  1.488865  1.999069  0  2.242933  0
Nd  Nd1  1  0.79918383  0.35549081  0.38678806  1  0  2.224359  0  1.707182  0  0  2.03826  0  2.200683  0  0  2.088651  0  2.147246  0  2.234538  0  1.488777  1.998956  0  2.243001  0
Fe  Fe2  1  0.13859405  0.21574820  0.75253399  1  0  0.097405  0  3.580868  0  0  0.19595  0  3.997192  0  0  0.201029  0  3.983356  0  0.711602  0  0.531985  0.199853  0  3.999688  0
Fe  Fe3  1  0.86139820  0.78424721  0.24746972  1  0  0.097513  0  3.580819  0  0  0.196086  0  3.997188  0  0  0.201131  0  3.983369  0  0.711528  0  0.532009  0.199923  0  3.99969  0
Fe  Fe4  1  0.24615614  0.36629098  0.25748566  1  0  0.117193  0  3.570138  0  0  0.218024  0  3.983036  0  0  0.223109  0  3.96921  0  0.735769  0  0.538718  0.221877  0  3.985399  0
Fe  Fe5  1  0.75385831  0.63372392  0.74251978  1  0  0.11705  0  3.570306  0  0  0.217859  0  3.983149  0  0  0.222974  0  3.969335  0  0.735538  0  0.538673  0.221769  0  3.985507  0
H  H6  1  0.43856740  0.46752459  0.91752916  1  0  0.383362  0  0.84455  0  0  0.361637  0  0.912792  0  0  0.371041  0  0.902373  0  0.602885  0  0.325869  0.354738  0  0.920522  0
H  H7  1  0.56135715  0.53237631  0.08228435  1  0  0.383426  0  0.844262  0  0  0.361602  0  0.91279  0  0  0.371019  0  0.902325  0  0.602934  0  0.325814  0.354702  0  0.920519  0
H  H8  1  0.91991482  0.02074678  0.56302684  1  0  0.125643  0  0.93782  0  0  0.14232  0  0.988013  0  0  0.145219  0  0.987103  0  0.11391  0  0.114316  0.14023  0  0.988949  0
H  H9  1  0.08006706  0.97924668  0.43697166  1  0  0.125714  0  0.937874  0  0  0.142393  0  0.988051  0  0  0.145295  0  0.987133  0  0.11421  0  0.114374  0.140301  0  0.988986  0
H  H10  1  0.14494737  0.99278101  0.67668719  1  0  0.121655  0  0.943759  0  0  0.1355  0  0.998241  0  0  0.138381  0  0.997583  0  0.091425  0  0.112286  0.133451  0  0.998902  0
H  H11  1  0.85502841  0.00720174  0.32331250  1  0  0.121687  0  0.943701  0  0  0.135501  0  0.998225  0  0  0.138384  0  0.997566  0  0.0913  0  0.112286  0.133463  0  0.998875  0
H  H12  1  0.38890808  0.22756272  0.74688683  1  0  0.107868  0  0.972874  0  0  0.120926  0  1.031545  0  0  0.123176  0  1.032079  0  0.10075  0  0.102075  0.119287  0  1.031462  0
H  H13  1  0.61107770  0.77241321  0.25311371  1  0  0.107871  0  0.972795  0  0  0.120867  0  1.031544  0  0  0.123116  0  1.032079  0  0.100991  0  0.102007  0.119228  0  1.031459  0
H  H14  1  0.31561078  0.40336664  0.67559724  1  0  0.137137  0  0.950292  0  0  0.146945  0  1.012713  0  0  0.150713  0  1.010629  0  0.160178  0  0.116648  0.14415  0  1.014429  0
H  H15  1  0.68438850  0.59662000  0.32440199  1  0  0.137121  0  0.950184  0  0  0.146916  0  1.012623  0  0  0.150713  0  1.0105  0  0.160195  0  0.116641  0.144122  0  1.01433  0
H  H16  1  0.97535959  0.32649189  0.77305606  1  0  0.124108  0  0.938393  0  0  0.138834  0  0.993388  0  0  0.141868  0  0.991785  0  0.093069  0  0.115992  0.136672  0  0.994667  0
H  H17  1  0.02463191  0.67351522  0.22694025  1  0  0.124099  0  0.938218  0  0  0.138841  0  0.99322  0  0  0.141889  0  0.991584  0  0.093277  0  0.115971  0.13666  0  0.99453  0
H  H18  1  0.87878347  0.07174750  0.77631445  1  0  0.11575  0  0.975156  0  0  0.12993  0  1.02928  0  0  0.13232  0  1.029836  0  0.135425  0  0.106702  0.128278  0  1.029022  0
H  H19  1  0.12120099  0.92825863  0.22367180  1  0  0.115775  0  0.974951  0  0  0.129973  0  1.02907  0  0  0.132363  0  1.029629  0  0.135481  0  0.106689  0.128321  0  1.028812  0
H  H20  1  0.10979008  0.05761295  0.89526680  1  0  0.112469  0  0.95133  0  0  0.128382  0  1.005165  0  0  0.131143  0  1.004196  0  0.100989  0  0.111032  0.126473  0  1.005946  0
H  H21  1  0.89016386  0.94236882  0.10472162  1  0  0.112441  0  0.951447  0  0  0.128311  0  1.005347  0  0  0.131062  0  1.004372  0  0.101685  0  0.110993  0.1264  0  1.006128  0
H  H22  1  0.34511856  0.29473544  0.96806759  1  0  0.13391  0  0.972861  0  0  0.143644  0  1.03467  0  0  0.147428  0  1.032262  0  0.165012  0  0.111791  0.14095  0  1.036568  0
H  H23  1  0.65485778  0.70523367  0.03194659  1  0  0.13396  0  0.972988  0  0  0.143704  0  1.03478  0  0  0.147498  0  1.032356  0  0.165382  0  0.111818  0.140967  0  1.036726  0
H  H24  1  0.98803570  0.35601600  0.12682881  1  0  0.123772  0  0.950057  0  0  0.141112  0  1.000047  0  0  0.144447  0  0.997748  0  0.092478  0  0.113585  0.138791  0  1.001807  0
H  H25  1  0.01197320  0.64397941  0.87316934  1  0  0.123757  0  0.950048  0  0  0.14117  0  0.999955  0  0  0.144504  0  0.997658  0  0.092435  0  0.113653  0.138853  0  1.00171  0
H  H26  1  0.17772261  0.37920364  0.04315874  1  0  0.117722  0  0.983975  0  0  0.137714  0  1.027236  0  0  0.139614  0  1.028602  0  0.10911  0  0.10338  0.136409  0  1.026378  0
H  H27  1  0.82228871  0.62079275  0.95684453  1  0  0.117812  0  0.98392  0  0  0.137837  0  1.027115  0  0  0.139739  0  1.028477  0  0.10903  0  0.103421  0.136532  0  1.026267  0
H  H28  1  0.44768748  0.54793444  0.19647980  1  0  0.106782  0  0.956913  0  0  0.124664  0  1.009594  0  0  0.127297  0  1.008658  0  0.079665  0  0.106503  0.122678  0  1.0106  0
H  H29  1  0.55231087  0.45206682  0.80351144  1  0  0.106688  0  0.95703  0  0  0.124536  0  1.009768  0  0  0.127187  0  1.008807  0  0.079894  0  0.106462  0.122553  0  1.010773  0
H  H30  1  0.42487669  0.62802859  0.37560181  1  0  0.115742  0  0.950035  0  0  0.133566  0  1.001533  0  0  0.136691  0  0.999672  0  0.06776  0  0.109293  0.131339  0  1.003024  0
H  H31  1  0.57513942  0.37199410  0.62439080  1  0  0.115752  0  0.950165  0  0  0.133582  0  1.001635  0  0  0.136709  0  0.999774  0  0.067621  0  0.109311  0.131359  0  1.003123  0
H  H32  1  0.14792924  0.12279791  0.12606923  1  0  0.118687  0  0.939747  0  0  0.136044  0  0.990422  0  0  0.139596  0  0.98795  0  0.118578  0  0.109432  0.133473  0  0.992433  0
H  H33  1  0.85206597  0.87719946  0.87395585  1  0  0.118794  0  0.939469  0  0  0.136065  0  0.990257  0  0  0.139615  0  0.987788  0  0.118464  0  0.109479  0.133499  0  0.992266  0
H  H34  1  0.01316720  0.13773730  0.25362885  1  0  0.106434  0  0.963321  0  0  0.120435  0  1.022258  0  0  0.122925  0  1.021831  0  0.086455  0  0.106545  0.11863  0  1.022876  0
H  H35  1  0.98685724  0.86229514  0.74641048  1  0  0.106476  0  0.963568  0  0  0.120525  0  1.022414  0  0  0.123018  0  1.021983  0  0.086245  0  0.106552  0.118723  0  1.023031  0
H  H36  1  0.21930813  0.30900348  0.44598324  1  0  0.119999  0  0.944422  0  0  0.139775  0  0.988454  0  0  0.142066  0  0.989043  0  0.105193  0  0.111565  0.138162  0  0.988213  0
H  H37  1  0.78073814  0.69105430  0.55403845  1  0  0.119906  0  0.944488  0  0  0.139773  0  0.988417  0  0  0.142063  0  0.989007  0  0.105339  0  0.111555  0.138165  0  0.988171  0
H  H38  1  0.48006134  0.39958112  0.43736274  1  0  0.119107  0  0.943682  0  0  0.134629  0  0.999408  0  0  0.137604  0  0.99775  0  0.085184  0  0.114426  0.13245  0  1.000752  0
H  H39  1  0.51996957  0.60045619  0.56263793  1  0  0.119234  0  0.943721  0  0  0.134734  0  0.999452  0  0  0.137709  0  0.997796  0  0.085577  0  0.114485  0.132562  0  1.000786  0
H  H40  1  0.44066291  0.76559440  0.49828866  1  0  0.073197  0  0.967364  0  0  0.079914  0  1.035958  0  0  0.082949  0  1.032248  0  0.141761  0  0.118232  0.077646  0  1.038581  0
H  H41  1  0.55933340  0.23441465  0.50170184  1  0  0.073198  0  0.967256  0  0  0.079827  0  1.03595  0  0  0.08285  0  1.03225  0  0.141733  0  0.118219  0.077561  0  1.038566  0
H  H42  1  0.66349339  0.96167643  0.50616110  1  0  0.113467  0  0.930533  0  0  0.127157  0  0.982472  0  0  0.130433  0  0.981909  0  0.093802  0  0.11366  0.124514  0  0.983519  0
H  H43  1  0.33650013  0.03833750  0.49383115  1  0  0.113441  0  0.930509  0  0  0.12712  0  0.982469  0  0  0.130379  0  0.981931  0  0.093951  0  0.113646  0.12448  0  0.98351  0
H  H44  1  0.77129782  0.17041261  0.64218690  1  0  0.107579  0  0.937715  0  0  0.119463  0  0.996166  0  0  0.121679  0  0.995147  0  0.107183  0  0.116297  0.117847  0  0.996939  0
H  H45  1  0.22869904  0.82959742  0.35781184  1  0  0.107611  0  0.937594  0  0  0.119436  0  0.996118  0  0  0.121653  0  0.995099  0  0.107314  0  0.116298  0.117823  0  0.996886  0
H  H46  1  0.47722318  0.16811596  0.00071547  1  0  0.128161  0  0.940515  0  0  0.134494  0  1.004981  0  0  0.138574  0  1.001368  0  0.168168  0  0.115642  0.131455  0  1.007737  0
H  H47  1  0.52275610  0.83187458  0.99927627  1  0  0.128151  0  0.940481  0  0  0.134526  0  1.004907  0  0  0.138603  0  1.001298  0  0.168381  0  0.115713  0.131487  0  1.007662  0
H  H48  1  0.25829162  0.96306786  0.97688868  1  0  0.110719  0  0.934216  0  0  0.123372  0  0.986543  0  0  0.126872  0  0.985706  0  0.103529  0  0.112237  0.120801  0  0.987405  0
H  H49  1  0.74169507  0.03691781  0.02310260  1  0  0.110794  0  0.934191  0  0  0.123386  0  0.986573  0  0  0.126885  0  0.985737  0  0.10353  0  0.112254  0.12081  0  0.987443  0
H  H50  1  0.15745799  0.76606211  0.82434317  1  0  0.079022  0  0.976158  0  0  0.083514  0  1.047319  0  0  0.086742  0  1.043454  0  0.125738  0  0.120432  0.08105  0  1.050227  0
H  H51  1  0.84254296  0.23392745  0.17565236  1  0  0.079035  0  0.976149  0  0  0.083563  0  1.047259  0  0  0.086788  0  1.043403  0  0.125644  0  0.120445  0.081099  0  1.050166  0
H  H52  1  0.77775546  0.28876923  0.80749412  1  0  0.102318  0  0.955366  0  0  0.116824  0  1.008364  0  0  0.118653  0  1.009425  0  0.088377  0  0.105154  0.115388  0  1.00798  0
H  H53  1  0.22224196  0.71123690  0.19250741  1  0  0.10229  0  0.955308  0  0  0.11684  0  1.008255  0  0  0.118665  0  1.009322  0  0.088329  0  0.105136  0.1154  0  1.007868  0
H  H54  1  0.67104236  0.28629037  0.93767978  1  0  0.110775  0  0.959454  0  0  0.121597  0  1.018641  0  0  0.1242  0  1.018234  0  0.103019  0  0.105637  0.119735  0  1.018937  0
H  H55  1  0.32894581  0.71371089  0.06231737  1  0  0.110806  0  0.959353  0  0  0.121571  0  1.018625  0  0  0.124172  0  1.018216  0  0.103069  0  0.105635  0.119705  0  1.018927  0
C  C56  1  0.00485118  0.28668793  0.54209531  1  0  0.708892  0  3.892451  0  0  0.66738  0  4.17474  0  0  0.704291  0  4.162738  0  1.550846  0  0.22018  0.642166  0  4.182184  0
C  C57  1  0.99515328  0.71331431  0.45790719  1  0  0.708858  0  3.892499  0  0  0.66734  0  4.174797  0  0  0.70425  0  4.162788  0  1.551153  0  0.220178  0.642126  0  4.182246  0
C  C58  1  0.08957333  0.23036312  0.59892871  1  0  -0.096162  0  3.7258  0  0  -0.085652  0  3.982924  0  0  -0.096365  0  4.002136  0  -0.085473  0  -0.075797  -0.079464  0  3.970659  0
C  C59  1  0.91042113  0.76963131  0.40107701  1  0  -0.096196  0  3.725739  0  0  -0.085689  0  3.982896  0  0  -0.096402  0  4.002113  0  -0.085292  0  -0.075786  -0.079498  0  3.970628  0
C  C60  1  0.03297609  0.09638211  0.60075057  1  0  -0.103025  0  3.678273  0  0  -0.139141  0  3.948655  0  0  -0.139361  0  3.963578  0  -0.157447  0  -0.144088  -0.139523  0  3.93895  0
C  C61  1  0.96701042  0.90361136  0.39925431  1  0  -0.103163  0  3.67825  0  0  -0.13929  0  3.948662  0  0  -0.139504  0  3.963579  0  -0.157805  0  -0.144153  -0.139666  0  3.938952  0
C  C62  1  0.15154556  0.08229141  0.66120874  1  0  -0.090229  0  3.690458  0  0  -0.120841  0  3.967576  0  0  -0.123675  0  3.983183  0  -0.073897  0  -0.144273  -0.119695  0  3.95748  0
C  C63  1  0.84843373  0.91769426  0.33879140  1  0  -0.09027  0  3.690473  0  0  -0.120859  0  3.967598  0  0  -0.123693  0  3.983203  0  -0.073437  0  -0.1443  -0.119723  0  3.957484  0
C  C64  1  0.28130715  0.20713651  0.69766031  1  0  -0.110174  0  3.716984  0  0  -0.137229  0  3.990613  0  0  -0.141325  0  4.009012  0  -0.166526  0  -0.149801  -0.135149  0  3.978739  0
C  C65  1  0.71868159  0.79284623  0.30234153  1  0  -0.110166  0  3.716984  0  0  -0.137168  0  3.990606  0  0  -0.14126  0  4.009006  0  -0.167006  0  -0.149757  -0.135083  0  3.97873  0
C  C66  1  0.24377271  0.29927124  0.66045096  1  0  -0.120655  0  3.671605  0  0  -0.161079  0  3.950274  0  0  -0.163334  0  3.967097  0  -0.232538  0  -0.143764  -0.160087  0  3.939524  0
C  C67  1  0.75622213  0.70071735  0.33954936  1  0  -0.120524  0  3.671453  0  0  -0.16095  0  3.950161  0  0  -0.16322  0  3.966963  0  -0.232717  0  -0.143688  -0.159953  0  3.939405  0
C  C68  1  0.28324722  0.49981696  0.89294791  1  0  0.663285  0  3.804698  0  0  0.616446  0  4.105485  0  0  0.650945  0  4.093813  0  1.490158  0  0.237049  0.592649  0  4.113276  0
C  C69  1  0.71676502  0.50016969  0.10708480  1  0  0.663043  0  3.805583  0  0  0.616522  0  4.105819  0  0  0.651022  0  4.094152  0  1.491106  0  0.237441  0.592722  0  4.11361  0
C  C70  1  0.03804672  0.28538808  0.81431334  1  0  -0.10568  0  3.683312  0  0  -0.146117  0  3.96163  0  0  -0.146784  0  3.976176  0  -0.134927  0  -0.14082  -0.146064  0  3.952099  0
C  C71  1  0.96194571  0.71461902  0.18568833  1  0  -0.105759  0  3.683374  0  0  -0.146237  0  3.961739  0  0  -0.146898  0  3.976279  0  -0.134978  0  -0.140847  -0.146175  0  3.952192  0
C  C72  1  0.98868915  0.15330324  0.81681213  1  0  -0.101734  0  3.709765  0  0  -0.127781  0  3.977461  0  0  -0.130583  0  3.994007  0  -0.17401  0  -0.144877  -0.12645  0  3.966534  0
C  C73  1  0.01129568  0.84670192  0.18318801  1  0  -0.101656  0  3.709612  0  0  -0.127721  0  3.977312  0  0  -0.130526  0  3.993854  0  -0.173635  0  -0.144799  -0.126381  0  3.966371  0
C  C74  1  0.11094938  0.14505987  0.87934582  1  0  -0.079826  0  3.700698  0  0  -0.108161  0  3.971762  0  0  -0.110636  0  3.987482  0  -0.133639  0  -0.141451  -0.107232  0  3.961394  0
C  C75  1  0.88902528  0.85493067  0.12065410  1  0  -0.079728  0  3.70079  0  0  -0.108033  0  3.971848  0  0  -0.110485  0  3.987551  0  -0.134301  0  -0.141366  -0.107097  0  3.961461  0
C  C76  1  0.23730533  0.27101481  0.91540778  1  0  -0.146873  0  3.710251  0  0  -0.185679  0  3.98893  0  0  -0.186223  0  4.002543  0  -0.19526  0  -0.153305  -0.185797  0  3.980027  0
C  C77  1  0.76267951  0.72897086  0.08459391  1  0  -0.147068  0  3.710327  0  0  -0.185844  0  3.98896  0  0  -0.186394  0  4.002562  0  -0.195966  0  -0.153411  -0.185918  0  3.980076  0
C  C78  1  0.19185380  0.35932504  0.87530072  1  0  -0.154477  0  3.851595  0  0  -0.146018  0  4.116085  0  0  -0.156517  0  4.134593  0  -0.101878  0  -0.094221  -0.139672  0  4.103958  0
C  C79  1  0.80814086  0.64066160  0.12470013  1  0  -0.154411  0  3.851321  0  0  -0.146057  0  4.115767  0  0  -0.156556  0  4.134279  0  -0.101623  0  -0.094282  -0.1397  0  4.103621  0
C  C80  1  0.12163627  0.50120254  0.35445740  1  0  0.734737  0  3.862159  0  0  0.688799  0  4.153637  0  0  0.726915  0  4.139318  0  1.60713  0  0.233736  0.662638  0  4.162698  0
C  C81  1  0.87838059  0.49879872  0.64554193  1  0  0.734671  0  3.862169  0  0  0.688746  0  4.153618  0  0  0.72686  0  4.13931  0  1.606568  0  0.233736  0.662584  0  4.162672  0
C  C82  1  0.18476008  0.49720656  0.27715593  1  0  -0.118979  0  3.752504  0  0  -0.110684  0  4.015493  0  0  -0.121431  0  4.033789  0  -0.125724  0  -0.086054  -0.10436  0  4.003733  0
C  C83  1  0.81524974  0.50280347  0.72283986  1  0  -0.118967  0  3.752425  0  0  -0.110665  0  4.015396  0  0  -0.121412  0  4.033699  0  -0.123521  0  -0.086037  -0.104348  0  4.003646  0
C  C84  1  0.10463710  0.41599770  0.16776172  1  0  -0.113595  0  3.693322  0  0  -0.149224  0  3.960235  0  0  -0.148761  0  3.973493  0  -0.111181  0  -0.144915  -0.149967  0  3.951373  0
C  C85  1  0.89537032  0.58400648  0.83223737  1  0  -0.113553  0  3.693263  0  0  -0.149242  0  3.960186  0  0  -0.148786  0  3.973451  0  -0.111246  0  -0.144984  -0.149987  0  3.951329  0
C  C86  1  0.20509810  0.43080556  0.12321531  1  0  -0.099559  0  3.704058  0  0  -0.125289  0  3.967532  0  0  -0.128091  0  3.984078  0  -0.126377  0  -0.151172  -0.123794  0  3.956108  0
C  C87  1  0.79490840  0.56919863  0.87678425  1  0  -0.099797  0  3.704045  0  0  -0.125559  0  3.967539  0  0  -0.128364  0  3.984094  0  -0.125914  0  -0.151285  -0.124069  0  3.956122  0
C  C88  1  0.34765683  0.52059492  0.20418547  1  0  -0.10541  0  3.728784  0  0  -0.136488  0  4.009205  0  0  -0.139395  0  4.02524  0  -0.182425  0  -0.154395  -0.134989  0  3.99828  0
C  C89  1  0.65235077  0.47941609  0.79580904  1  0  -0.1052  0  3.728897  0  0  -0.136261  0  4.009303  0  0  -0.139181  0  4.025342  0  -0.182991  0  -0.154312  -0.134766  0  3.998382  0
C  C90  1  0.33613716  0.56219956  0.29937194  1  0  -0.125152  0  3.709954  0  0  -0.164231  0  3.988313  0  0  -0.164415  0  4.00264  0  -0.136004  0  -0.150648  -0.164375  0  3.978647  0
C  C91  1  0.66387451  0.43781534  0.70062471  1  0  -0.125124  0  3.710203  0  0  -0.164198  0  3.988495  0  0  -0.164391  0  4.002841  0  -0.137513  0  -0.150679  -0.164344  0  3.978827  0
C  C92  1  0.46126053  0.27947157  0.22764761  1  0  0.692941  0  3.905057  0  0  0.645588  0  4.20716  0  0  0.681029  0  4.196428  0  1.611672  0  0.209001  0.621304  0  4.213937  0
C  C93  1  0.53873819  0.72052872  0.77235315  1  0  0.692942  0  3.904805  0  0  0.645615  0  4.206885  0  0  0.681057  0  4.196151  0  1.611949  0  0.209046  0.621334  0  4.213666  0
C  C94  1  0.35153179  0.26553580  0.26941962  1  0  -0.096499  0  3.720158  0  0  -0.088549  0  3.980111  0  0  -0.097889  0  3.999914  0  -0.10383  0  -0.076871  -0.083318  0  3.96748  0
C  C95  1  0.64847951  0.73447521  0.73059268  1  0  -0.096605  0  3.719908  0  0  -0.088649  0  3.979832  0  0  -0.097999  0  3.999653  0  -0.102363  0  -0.076923  -0.083437  0  3.967241  0
C  C96  1  0.19833712  0.18008443  0.20914187  1  0  -0.121944  0  3.706678  0  0  -0.159047  0  3.979129  0  0  -0.16003  0  3.994176  0  -0.151449  0  -0.150345  -0.158861  0  3.969214  0
C  C97  1  0.80166770  0.81992170  0.79088067  1  0  -0.121609  0  3.706207  0  0  -0.158625  0  3.978612  0  0  -0.159608  0  3.993665  0  -0.151529  0  -0.150222  -0.158442  0  3.968708  0
C  C98  1  0.12860914  0.18813195  0.27636109  1  0  -0.105812  0  3.718101  0  0  -0.134642  0  3.996405  0  0  -0.13824  0  4.014493  0  -0.153871  0  -0.152215  -0.132945  0  3.98449  0
C  C99  1  0.87141567  0.81189465  0.72366846  1  0  -0.106199  0  3.718014  0  0  -0.135086  0  3.996371  0  0  -0.13869  0  4.01446  0  -0.15331  0  -0.15229  -0.133389  0  3.984464  0
C  C100  1  0.23812339  0.27893858  0.37862811  1  0  -0.098066  0  3.691186  0  0  -0.125481  0  3.959648  0  0  -0.129485  0  3.978436  0  -0.16885  0  -0.14834  -0.123385  0  3.947093  0
C  C101  1  0.76191381  0.72110166  0.62139274  1  0  -0.097799  0  3.690762  0  0  -0.125269  0  3.959243  0  0  -0.129272  0  3.97803  0  -0.170008  0  -0.148261  -0.123178  0  3.946694  0
C  C102  1  0.37530725  0.32737469  0.37422311  1  0  -0.128423  0  3.714644  0  0  -0.167339  0  3.993906  0  0  -0.169289  0  4.010495  0  -0.157686  0  -0.149144  -0.166314  0  3.982725  0
C  C103  1  0.62472255  0.67265580  0.62578625  1  0  -0.128572  0  3.714313  0  0  -0.167484  0  3.993637  0  0  -0.16944  0  4.010228  0  -0.158609  0  -0.149223  -0.16646  0  3.982471  0
C  C104  1  0.49533744  0.85762487  0.55955170  1  0  0.151689  0  3.722749  0  0  0.122861  0  3.981297  0  0  0.130834  0  3.99763  0  0.46998  0  0.061843  0.117874  0  3.969611  0
C  C105  1  0.50466554  0.14238126  0.44044409  1  0  0.1518  0  3.722634  0  0  0.123062  0  3.981135  0  0  0.131044  0  3.997453  0  0.469794  0  0.061887  0.118074  0  3.969453  0
C  C106  1  0.61944123  0.96706482  0.56434305  1  0  -0.110349  0  3.721642  0  0  -0.126069  0  3.976699  0  0  -0.132387  0  3.997184  0  0.030469  0  -0.080113  -0.121698  0  3.962909  0
C  C107  1  0.38055526  0.03294618  0.43565128  1  0  -0.110422  0  3.721685  0  0  -0.126106  0  3.976686  0  0  -0.132411  0  3.997166  0  0.03053  0  -0.080146  -0.12174  0  3.962898  0
C  C108  1  0.67936253  0.08254182  0.64031044  1  0  -0.043477  0  3.682894  0  0  -0.066775  0  3.933937  0  0  -0.064087  0  3.951219  0  -0.109948  0  -0.058551  -0.068455  0  3.922149  0
C  C109  1  0.32063340  0.91746820  0.35968585  1  0  -0.043533  0  3.682789  0  0  -0.066773  0  3.933868  0  0  -0.064086  0  3.951145  0  -0.109916  0  -0.058598  -0.068454  0  3.922082  0
C  C110  1  0.61988813  0.08666253  0.71487472  1  0  0.019386  0  3.776402  0  0  0.035944  0  4.006214  0  0  0.033233  0  4.030436  0  0.027885  0  -0.001053  0.037533  0  3.990146  0
C  C111  1  0.38010929  0.91334360  0.28512317  1  0  0.019442  0  3.776343  0  0  0.035922  0  4.006338  0  0  0.033213  0  4.030561  0  0.027797  0  -0.001005  0.037509  0  3.990268  0
C  C112  1  0.49457570  0.97040894  0.70415126  1  0  0.149178  0  3.731091  0  0  0.143938  0  3.96892  0  0  0.148622  0  3.989347  0  0.466642  0  0.129562  0.140821  0  3.95506  0
C  C113  1  0.50542302  0.02959135  0.29584440  1  0  0.149106  0  3.731317  0  0  0.143742  0  3.969273  0  0  0.148423  0  3.989703  0  0.466597  0  0.129486  0.140632  0  3.955397  0
C  C114  1  0.43038242  0.97002113  0.77865271  1  0  0.153017  0  3.726683  0  0  0.147974  0  3.964609  0  0  0.152894  0  3.984619  0  0.482253  0  0.128383  0.144637  0  3.950976  0
C  C115  1  0.56961686  0.02997526  0.22134428  1  0  0.152941  0  3.726894  0  0  0.148127  0  3.964544  0  0  0.153047  0  3.984553  0  0.482194  0  0.1284  0.144785  0  3.950912  0
C  C116  1  0.49460763  0.08577096  0.86188507  1  0  0.02117  0  3.783329  0  0  0.038875  0  4.01293  0  0  0.035725  0  4.038083  0  0.048099  0  0.001482  0.040874  0  3.995929  0
C  C117  1  0.50539165  0.91422542  0.13811484  1  0  0.021138  0  3.78346  0  0  0.03879  0  4.013026  0  0  0.03564  0  4.038175  0  0.048044  0  0.001446  0.040789  0  3.996027  0
C  C118  1  0.43000261  0.08279030  0.93391893  1  0  -0.034739  0  3.637709  0  0  -0.059459  0  3.885633  0  0  -0.057069  0  3.904061  0  -0.070595  0  -0.056602  -0.060852  0  3.873235  0
C  C119  1  0.56998704  0.91720219  0.06607656  1  0  -0.034675  0  3.637626  0  0  -0.059429  0  3.885565  0  0  -0.057027  0  3.903971  0  -0.071024  0  -0.05662  -0.060823  0  3.873171  0
C  C120  1  0.30822233  0.96853810  0.92098063  1  0  -0.118064  0  3.728885  0  0  -0.130752  0  3.984572  0  0  -0.13845  0  4.006608  0  -0.071043  0  -0.080902  -0.125773  0  3.969756  0
C  C121  1  0.69176714  0.03145244  0.07901321  1  0  -0.118196  0  3.728862  0  0  -0.130821  0  3.984564  0  0  -0.138516  0  4.006593  0  -0.070946  0  -0.080931  -0.125844  0  3.969751  0
C  C122  1  0.25267840  0.85839756  0.83713811  1  0  0.14275  0  3.719193  0  0  0.111493  0  3.98386  0  0  0.119493  0  3.999312  0  0.50155  0  0.061542  0.106304  0  3.973356  0
C  C123  1  0.74731773  0.14159493  0.16285555  1  0  0.142577  0  3.719085  0  0  0.111289  0  3.983756  0  0  0.11929  0  3.999205  0  0.501605  0  0.061422  0.106101  0  3.973252  0
C  C124  1  0.68168745  0.20070844  0.80010925  1  0  -0.094303  0  3.746067  0  0  -0.112505  0  3.990057  0  0  -0.115758  0  4.014305  0  -0.05739  0  -0.083336  -0.11044  0  3.974204  0
C  C125  1  0.31830719  0.79929769  0.19988859  1  0  -0.094322  0  3.745974  0  0  -0.112513  0  3.989976  0  0  -0.115767  0  4.014226  0  -0.057955  0  -0.083305  -0.110439  0  3.974123  0
C  C126  1  0.62220659  0.20009165  0.87146967  1  0  -0.106933  0  3.743575  0  0  -0.127711  0  3.992578  0  0  -0.13125  0  4.015761  0  -0.043944  0  -0.085156  -0.125185  0  3.976927  0
C  C127  1  0.37778990  0.79990961  0.12853126  1  0  -0.106825  0  3.743444  0  0  -0.127572  0  3.992478  0  0  -0.13111  0  4.01566  0  -0.04347  0  -0.085132  -0.125048  0  3.976832  0
N  N128  1  0.43323238  0.85893445  0.62579076  1  0  -0.415483  0  3.233449  0  0  -0.363122  0  3.497472  0  0  -0.37781  0  3.515081  0  -1.23988  0  -0.36741  -0.352779  0  3.485121  0
N  N129  1  0.56677005  0.14106583  0.37420593  1  0  -0.415536  0  3.233633  0  0  -0.363166  0  3.497702  0  0  -0.377856  0  3.51531  0  -1.239879  0  -0.367388  -0.352827  0  3.485349  0
N  N130  1  0.31112369  0.85813350  0.76780704  1  0  -0.429715  0  3.221343  0  0  -0.379552  0  3.4939  0  0  -0.393817  0  3.509588  0  -1.244746  0  -0.369633  -0.369619  0  3.483297  0
N  N131  1  0.68887596  0.14186191  0.23218780  1  0  -0.429459  0  3.221207  0  0  -0.379349  0  3.493718  0  0  -0.393615  0  3.509406  0  -1.244502  0  -0.369528  -0.369416  0  3.483117  0
O  O132  1  0.06676161  0.41066582  0.55799834  1  0  -0.811265  0  2.101069  0  0  -0.746364  0  2.359223  0  0  -0.772304  0  2.345034  0  -1.22442  0  -0.420567  -0.727575  0  2.368357  0
O  O133  1  0.93325617  0.58933544  0.44200635  1  0  -0.81127  0  2.101127  0  0  -0.746315  0  2.359201  0  0  -0.772289  0  2.345085  0  -1.224741  0  -0.420532  -0.727501  0  2.368283  0
O  O134  1  0.87396219  0.21010549  0.47585064  1  0  -0.685215  0  1.947471  0  0  -0.639737  0  2.188047  0  0  -0.663856  0  2.178865  0  -1.195661  0  -0.373665  -0.622617  0  2.193978  0
O  O135  1  0.12604375  0.78990259  0.52415049  1  0  -0.685195  0  1.947425  0  0  -0.639729  0  2.187997  0  0  -0.663843  0  2.178813  0  -1.195837  0  -0.373723  -0.622624  0  2.193946  0
O  O136  1  0.24138896  0.57715650  0.88500417  1  0  -0.510469  0  1.896943  0  0  -0.475094  0  2.109761  0  0  -0.493391  0  2.100541  0  -1.134474  0  -0.259006  -0.462391  0  2.115929  0
O  O137  1  0.75867232  0.42285451  0.11512555  1  0  -0.510639  0  1.897154  0  0  -0.475444  0  2.109835  0  0  -0.493755  0  2.100626  0  -1.135502  0  -0.259448  -0.462741  0  2.116005  0
O  O138  1  0.42713460  0.54342495  0.92529920  1  0  -0.54009  0  2.089955  0  0  -0.486768  0  2.300711  0  0  -0.506199  0  2.285424  0  -1.118951  0  -0.330593  -0.473117  0  2.3114  0
O  O139  1  0.57287545  0.45651395  0.07465815  1  0  -0.540021  0  2.09018  0  0  -0.486673  0  2.300648  0  0  -0.506091  0  2.285362  0  -1.11958  0  -0.330653  -0.473031  0  2.311339  0
O  O140  1  0.20498492  0.59047353  0.44380310  1  0  -0.736591  0  2.015765  0  0  -0.680429  0  2.274829  0  0  -0.705118  0  2.260414  0  -1.211795  0  -0.405151  -0.662623  0  2.284035  0
O  O141  1  0.79502786  0.40953845  0.55619147  1  0  -0.736649  0  2.015802  0  0  -0.680487  0  2.274877  0  0  -0.705162  0  2.260435  0  -1.211942  0  -0.405153  -0.662698  0  2.284134  0
O  O142  1  0.98924155  0.41631438  0.32671218  1  0  -0.734384  0  2.025537  0  0  -0.678126  0  2.281505  0  0  -0.703529  0  2.268626  0  -1.217311  0  -0.396869  -0.659834  0  2.289782  0
O  O143  1  0.01078291  0.58367421  0.67329785  1  0  -0.734409  0  2.025418  0  0  -0.678167  0  2.281378  0  0  -0.703566  0  2.268498  0  -1.217039  0  -0.396885  -0.65989  0  2.289692  0
O  O144  1  0.59576808  0.36611949  0.29088449  1  0  -0.806031  0  1.99876  0  0  -0.750191  0  2.271781  0  0  -0.776609  0  2.256671  0  -1.222157  0  -0.460859  -0.730811  0  2.281737  0
O  O145  1  0.40423416  0.63388372  0.70911016  1  0  -0.806007  0  1.998751  0  0  -0.75018  0  2.271776  0  0  -0.776592  0  2.256658  0  -1.222166  0  -0.460859  -0.730799  0  2.281732  0
O  O146  1  0.41881072  0.20589903  0.13846320  1  0  -0.591888  0  1.878096  0  0  -0.552501  0  2.101431  0  0  -0.574844  0  2.093545  0  -1.172594  0  -0.314953  -0.536763  0  2.106494  0
O  O147  1  0.58117523  0.79409346  0.86153928  1  0  -0.591923  0  1.87792  0  0  -0.552555  0  2.101269  0  0  -0.574896  0  2.093378  0  -1.172861  0  -0.315012  -0.536812  0  2.106326  0
