# generated using pymatgen
data_Tm2MnH28(C8O9)2
_symmetry_space_group_name_H-M   'P 1'
_cell_length_a   8.84268993
_cell_length_b   9.11924463
_cell_length_c   10.69368938
_cell_angle_alpha   80.39751736
_cell_angle_beta   73.51380522
_cell_angle_gamma   76.91929410
_symmetry_Int_Tables_number   1
_chemical_formula_structural   Tm2MnH28(C8O9)2
_chemical_formula_sum   'Tm2 Mn1 H28 C16 O18'
_cell_volume   800.54472849
_cell_formula_units_Z   1
loop_
 _symmetry_equiv_pos_site_id
 _symmetry_equiv_pos_as_xyz
  1  'x, y, z'
loop_
 _atom_site_type_symbol
 _atom_site_label
 _atom_site_symmetry_multiplicity
 _atom_site_fract_x
 _atom_site_fract_y
 _atom_site_fract_z
 _atom_site_occupancy
 _atom_site_hle17_ddec_charge
 _atom_site_hle17_ddec_spin_density
 _atom_site_hle17_ddec_sum_bond_order
 _atom_site_hle17_magmom
 _atom_site_hse06_10hf_ddec_charge
 _atom_site_hse06_10hf_ddec_spin_density
 _atom_site_hse06_10hf_ddec_sum_bond_order
 _atom_site_hse06_10hf_magmom
 _atom_site_hse06_ddec_charge
 _atom_site_hse06_ddec_spin_density
 _atom_site_hse06_ddec_sum_bond_order
 _atom_site_hse06_magmom
 _atom_site_pbe_cm5_charge
 _atom_site_pbe_ddec_charge
 _atom_site_pbe_ddec_spin_density
 _atom_site_pbe_ddec_sum_bond_order
 _atom_site_pbe_magmom
Tm  Tm0  1  0.09827009  0.93100022  0.80960143  1  2.225846  -0.001554  1.636884  0.0  2.076504  -0.001296  2.117508  0.001  2.219169  -0.001791  1.906105  0.0  1.535083  2.036749  -0.000841  2.150835  0.001
Tm  Tm1  1  0.90172846  0.06900201  0.19039467  1  2.225782  -0.001552  1.636829  0.0  2.076412  -0.001294  2.117504  0.001  2.219114  -0.001791  1.906042  0.0  1.535059  2.036659  -0.000841  2.150834  0.001
Mn  Mn2  1  0.99999583  0.99999189  0.49999651  1  1.278263  4.774772  1.79609  4.678  1.133051  4.692726  2.298521  4.536  1.187642  4.739614  2.230773  4.601  0.624367  1.090697  4.643343  2.35316  4.47
H  H3  1  0.52521010  0.12008861  0.92163634  1  0.135253  0.000277  0.948713  0.0  0.15395  0.00042  1.006998  0.0  0.156717  0.000337  1.005276  0.0  0.096428  0.152147  0.000508  1.007807  0.0
H  H4  1  0.47479407  0.87991473  0.07836487  1  0.135259  0.000284  0.948665  0.0  0.15398  0.000419  1.006928  0.0  0.156747  0.000337  1.005203  0.0  0.096442  0.152176  0.000508  1.007736  0.0
H  H5  1  0.48189635  0.07354654  0.77980027  1  0.172195  -3.1e-05  0.952722  0.0  0.188433  0.000108  1.012036  0.0  0.192256  5.9e-05  1.009941  0.0  0.108844  0.185883  0.000164  1.013312  0.0
H  H6  1  0.51810278  0.92645231  0.22020366  1  0.172193  -2.7e-05  0.952734  0.0  0.188422  0.000108  1.012064  0.0  0.192241  6e-05  1.009974  0.0  0.108849  0.185873  0.000164  1.01334  0.0
H  H7  1  0.53201194  0.25087684  0.77639449  1  0.128475  3.9e-05  0.940969  0.0  0.147683  0.000205  1.001728  0.0  0.149441  0.000141  1.001441  0.0  0.099263  0.146517  0.000276  1.001819  0.0
H  H8  1  0.46798769  0.74912541  0.22361165  1  0.128513  4.3e-05  0.940994  0.0  0.147734  0.000205  1.001723  0.0  0.149492  0.000141  1.001434  0.0  0.099272  0.146568  0.000276  1.001814  0.0
H  H9  1  0.26160345  0.27152586  0.42013531  1  0.14194  -0.000162  0.9241  0.0  0.161239  -0.00019  0.978234  0.0  0.16413  -0.000187  0.976396  0.0  0.10203  0.159081  -0.000185  0.979522  0.0
H  H10  1  0.73841068  0.72846381  0.57984313  1  0.141975  -0.000176  0.924111  0.0  0.161219  -0.00019  0.978287  0.0  0.164109  -0.000188  0.976442  0.0  0.102019  0.159062  -0.000186  0.979574  0.0
H  H11  1  0.43648116  0.12390868  0.41517155  1  0.173993  0.000267  0.939819  0.0  0.190207  0.000503  0.998612  0.001  0.194494  0.000325  0.995811  0.0  0.111485  0.187173  0.000723  1.000376  0.001
H  H12  1  0.56352244  0.87607994  0.58482065  1  0.174015  0.000261  0.939829  0.0  0.190254  0.000503  0.998573  0.001  0.194493  0.000325  0.995827  0.0  0.111495  0.187217  0.000723  1.000343  0.001
H  H13  1  0.40287395  0.27087704  0.51279251  1  0.133654  0.000128  0.943293  0.0  0.153333  0.000256  1.003335  0.0  0.155099  0.000154  1.003122  0.0  0.100417  0.151998  0.000388  1.003375  0.0
H  H14  1  0.59713170  0.72911382  0.48718676  1  0.133641  0.000124  0.943194  0.0  0.153287  0.000256  1.003269  0.0  0.155055  0.000154  1.003047  0.0  0.100396  0.151948  0.000388  1.003312  0.0
H  H15  1  0.80053059  0.66560295  0.23845696  1  0.132198  1e-06  0.953588  0.0  0.151144  7.5e-05  1.013013  0.0  0.15273  3.8e-05  1.013256  0.0  0.098315  0.150042  0.000121  1.012609  0.0
H  H16  1  0.19946409  0.33440046  0.76155014  1  0.132198  1.1e-05  0.953627  0.0  0.151147  7.5e-05  1.013061  0.0  0.152728  3.7e-05  1.013304  0.0  0.098329  0.150045  0.000121  1.012655  0.0
H  H17  1  0.91646753  0.52263935  0.13239316  1  0.163388  0.0  0.943061  0.0  0.179625  1e-05  1.002875  0.0  0.183477  2e-06  1.00028  0.0  0.105284  0.177054  2e-05  1.004261  0.0
H  H18  1  0.08354270  0.47735717  0.86760576  1  0.163465  2e-06  0.943158  0.0  0.179706  1e-05  1.00296  0.0  0.183554  2e-06  1.000367  0.0  0.105333  0.177138  2e-05  1.004348  0.0
H  H19  1  0.73073594  0.62483024  0.10918508  1  0.139105  1.7e-05  0.92988  0.0  0.158946  4.7e-05  0.98683  0.0  0.161576  3.4e-05  0.985219  0.0  0.103984  0.157122  6.3e-05  0.987744  0.0
H  H20  1  0.26925455  0.37517092  0.89081489  1  0.139046  1.8e-05  0.929952  0.0  0.158924  4.7e-05  0.986873  0.0  0.161556  3.4e-05  0.985259  0.0  0.103984  0.157101  6.3e-05  0.987787  0.0
H  H21  1  0.35995757  0.51827003  0.55105165  1  0.126219  4.8e-05  0.960869  0.0  0.144124  6e-05  1.022959  0.0  0.146205  4.7e-05  1.022021  0.0  0.096572  0.142631  7.6e-05  1.023497  0.0
H  H22  1  0.64005245  0.48173329  0.44895290  1  0.12614  4.9e-05  0.960687  0.0  0.144077  6e-05  1.02279  0.0  0.146161  4.7e-05  1.021848  0.0  0.096535  0.142585  7.7e-05  1.023325  0.0
H  H23  1  0.26889147  0.65882682  0.44141384  1  0.146969  -9.8e-05  0.936165  0.0  0.164365  -5e-06  0.996516  0.0  0.167172  -0.0001  0.995131  0.0  0.106986  0.162236  0.000116  0.997491  0.0
H  H24  1  0.73112907  0.34117078  0.55859193  1  0.146977  -0.000105  0.936202  0.0  0.164427  -6e-06  0.996488  0.0  0.167232  -0.0001  0.995104  0.0  0.107051  0.162298  0.000116  0.997463  0.0
H  H25  1  0.15317948  0.53518692  0.55303532  1  0.144814  4.2e-05  0.919032  0.0  0.166957  0.000122  0.971107  0.0  0.169319  4.7e-05  0.970155  0.0  0.10963  0.165177  0.000226  0.971765  0.0
H  H26  1  0.84683116  0.46480733  0.44696663  1  0.144817  3.8e-05  0.919041  0.0  0.166965  0.000123  0.971129  0.0  0.169326  4.7e-05  0.970179  0.0  0.10962  0.165184  0.000226  0.971787  0.0
H  H27  1  0.31692117  0.73818615  0.94852246  1  0.444194  -3e-06  0.803934  0.0  0.432682  5e-06  0.84281  0.0  0.440917  0.0  0.831458  0.0  0.340571  0.427146  1.9e-05  0.850702  0.0
H  H28  1  0.68307444  0.26182515  0.05147302  1  0.443972  -4e-06  0.804033  0.0  0.432416  5e-06  0.843133  0.0  0.440649  0.0  0.831787  0.0  0.340504  0.426886  1.9e-05  0.851014  0.0
H  H29  1  0.24156511  0.88372346  0.03094780  1  0.440705  7e-06  0.863425  0.0  0.406199  2.4e-05  0.932374  0.0  0.418391  2.3e-05  0.915137  0.0  0.299482  0.397815  3e-05  0.944409  0.0
H  H30  1  0.75842763  0.11629013  0.96905456  1  0.440536  7e-06  0.863652  0.0  0.406041  2.4e-05  0.932573  0.0  0.418228  2.3e-05  0.915345  0.0  0.299451  0.397657  3e-05  0.944612  0.0
C  C31  1  0.73183402  0.06768695  0.75658378  1  0.800635  0.003988  3.772842  0.005  0.760995  0.007179  4.061338  0.007  0.796888  0.005561  4.053925  0.006  0.238797  0.736625  0.008753  4.066654  0.009
C  C32  1  0.26816663  0.93231641  0.24341542  1  0.800629  0.003991  3.772833  0.005  0.760997  0.007179  4.061302  0.007  0.79689  0.005561  4.053891  0.006  0.238779  0.736625  0.008753  4.066619  0.009
C  C33  1  0.91919533  0.75081345  0.04308675  1  0.810057  0.000101  3.801836  0.0  0.778044  0.000166  4.083607  0.0  0.813737  0.000105  4.078874  0.0  0.227101  0.754235  0.000198  4.090703  0.0
C  C34  1  0.08079366  0.24918886  0.95692274  1  0.809888  0.0001  3.801851  0.0  0.778048  0.000165  4.083384  0.0  0.813693  0.000105  4.078719  0.0  0.227125  0.75427  0.000198  4.090444  0.0
C  C35  1  0.25138309  0.10911027  0.59178403  1  0.761973  0.007885  3.820606  0.008  0.720742  0.012477  4.118937  0.011  0.755139  0.009043  4.117885  0.008  0.208906  0.69582  0.016421  4.125647  0.014
C  C36  1  0.74861283  0.89088745  0.40821051  1  0.761935  0.007895  3.820847  0.008  0.720667  0.012479  4.119202  0.011  0.755065  0.009048  4.118149  0.008  0.208881  0.695749  0.016426  4.125908  0.014
C  C37  1  0.55697373  0.13038217  0.81424730  1  -0.475346  0.000998  3.644421  0.001  -0.550384  0.001223  3.873904  0.001  -0.557702  0.000881  3.874243  0.001  -0.246213  -0.544811  0.001554  3.872259  0.001
C  C38  1  0.44302840  0.86961327  0.18575923  1  -0.475391  0.000971  3.644385  0.001  -0.550451  0.001224  3.873853  0.001  -0.557765  0.000882  3.874191  0.001  -0.246236  -0.544879  0.001554  3.87221  0.001
C  C39  1  0.20003997  0.70954303  0.63930027  1  0.77133  0.005171  3.808776  0.006  0.735446  0.008456  4.095853  0.009  0.769172  0.00591  4.095693  0.007  0.211824  0.71123  0.011391  4.101415  0.011
C  C40  1  0.79996405  0.29045467  0.36070832  1  0.771266  0.005151  3.808719  0.006  0.735521  0.008459  4.095603  0.009  0.769265  0.005912  4.095423  0.007  0.211899  0.711297  0.011395  4.101176  0.011
C  C41  1  0.34154856  0.20062218  0.47729064  1  -0.452694  -0.000741  3.638178  0.0  -0.527436  -0.000104  3.871343  0.0  -0.533988  -0.000362  3.870736  0.0  -0.239806  -0.522038  0.000138  3.871051  0.0
C  C42  1  0.65844900  0.79937327  0.52270198  1  -0.452743  -0.000691  3.638254  0.0  -0.527378  -0.000105  3.871315  0.0  -0.533908  -0.000363  3.87079  0.0  -0.239764  -0.521978  0.000139  3.871028  0.0
C  C43  1  0.83730486  0.63450970  0.13827663  1  -0.454224  3.1e-05  3.628674  0.0  -0.52723  9e-05  3.853647  0.0  -0.533688  5.5e-05  3.853479  0.0  -0.240646  -0.521911  0.000122  3.851916  0.0
C  C44  1  0.16268894  0.36549257  0.86172336  1  -0.454203  1e-05  3.628737  0.0  -0.527304  9.2e-05  3.853706  0.0  -0.533738  5.4e-05  3.853541  0.0  -0.240729  -0.522002  0.000122  3.851973  0.0
C  C45  1  0.25016346  0.59752171  0.54036910  1  -0.444897  -0.000453  3.654167  0.0  -0.520641  -4.6e-05  3.885332  0.0  -0.526744  -0.000217  3.886514  0.0  -0.234286  -0.515607  0.000124  3.883953  0.0
C  C46  1  0.74985207  0.40247140  0.45963751  1  -0.444851  -0.000429  3.654162  0.0  -0.520708  -4.4e-05  3.885291  0.0  -0.526816  -0.000219  3.886463  0.0  -0.234323  -0.515669  0.000124  3.88391  0.0
O  O47  1  0.09794389  0.11736239  0.61259016  1  -0.773222  0.026097  2.038187  0.011  -0.714877  0.033246  2.305798  0.015  -0.753016  0.03026  2.29112  0.013  -0.372612  -0.693546  0.036296  2.316193  0.017
O  O48  1  0.90205363  0.88263307  0.38740621  1  -0.773141  0.026106  2.038342  0.011  -0.714807  0.033257  2.306005  0.015  -0.752946  0.03027  2.291319  0.013  -0.372605  -0.693466  0.036307  2.316386  0.017
O  O49  1  0.07223858  0.81349112  0.63811918  1  -0.783057  0.028621  2.075601  0.013  -0.72116  0.036132  2.348342  0.018  -0.761435  0.03313  2.332609  0.015  -0.391881  -0.698845  0.03909  2.358504  0.02
O  O50  1  0.92775869  0.18649303  0.36188727  1  -0.783004  0.028628  2.075765  0.013  -0.721158  0.036135  2.348471  0.018  -0.761436  0.033131  2.332706  0.015  -0.391888  -0.698847  0.039093  2.358655  0.02
O  O51  1  0.27647425  0.84660702  0.94113798  1  -0.90306  6.2e-05  1.879095  0.0  -0.856507  0.000124  2.065587  0.0  -0.887462  9.6e-05  2.026677  0.0  -0.635504  -0.842855  0.000179  2.08664  0.0
O  O52  1  0.72350460  0.15340551  0.05886210  1  -0.902634  6.3e-05  1.879282  0.0  -0.85602  0.000125  2.066  0.0  -0.886977  9.5e-05  2.027088  0.0  -0.635401  -0.842374  0.000179  2.087046  0.0
O  O53  1  0.92805837  0.87364993  0.08179033  1  -0.833412  -3.8e-05  2.103809  0.0  -0.776333  9.5e-05  2.364415  0.0  -0.823977  4.5e-05  2.35056  0.0  -0.440698  -0.756742  0.00019  2.371594  0.0
O  O54  1  0.07191225  0.12636832  0.91821548  1  -0.833272  -3e-05  2.103882  0.0  -0.77627  9.5e-05  2.364435  0.0  -0.82388  4.6e-05  2.350589  0.0  -0.44068  -0.756674  0.00019  2.371567  0.0
O  O55  1  0.32353177  0.02123260  0.67115023  1  -0.69993  0.004711  1.986268  0.006  -0.649704  0.007762  2.222655  0.009  -0.686566  0.005937  2.21341  0.007  -0.375007  -0.631486  0.009735  2.227956  0.011
O  O56  1  0.67646459  0.97876853  0.32885121  1  -0.69992  0.004704  1.986342  0.006  -0.649693  0.007765  2.222759  0.009  -0.686549  0.005938  2.213498  0.007  -0.374988  -0.631477  0.009738  2.228061  0.011
O  O57  1  0.82829450  0.03826053  0.83199875  1  -0.761581  0.001284  2.059483  0.002  -0.698554  0.002857  2.298396  0.004  -0.739062  0.002019  2.283302  0.003  -0.383619  -0.678552  0.003669  2.305427  0.005
O  O58  1  0.17171164  0.96174506  0.16799608  1  -0.761576  0.001284  2.059413  0.002  -0.698552  0.002856  2.298349  0.004  -0.739069  0.002019  2.283251  0.003  -0.383582  -0.678544  0.003669  2.305374  0.005
O  O59  1  0.98013671  0.72617729  0.92410044  1  -0.723157  -0.000124  1.971178  0.0  -0.678374  -1.1e-05  2.204463  0.0  -0.714889  -7.5e-05  2.191093  0.0  -0.388592  -0.660505  4.2e-05  2.210651  0.0
O  O60  1  0.01986956  0.27383285  0.07591054  1  -0.723177  -0.000125  1.971096  0.0  -0.678438  -1.1e-05  2.204299  0.0  -0.714946  -7.5e-05  2.190948  0.0  -0.388612  -0.660582  4.2e-05  2.210478  0.0
O  O61  1  0.77498006  0.04973115  0.63602926  1  -0.650226  0.03159  2.007566  0.019  -0.581333  0.036423  2.257622  0.02  -0.613029  0.033061  2.245561  0.017  -0.297507  -0.557597  0.039673  2.265115  0.023
O  O62  1  0.22501861  0.95026430  0.36396965  1  -0.650234  0.031589  2.007602  0.019  -0.581323  0.036423  2.257638  0.02  -0.613025  0.03306  2.245586  0.017  -0.297497  -0.557588  0.039672  2.265131  0.023
O  O63  1  0.27662965  0.70590374  0.72335479  1  -0.677272  0.00443  1.902102  0.005  -0.634637  0.00721  2.123447  0.008  -0.668315  0.005604  2.113824  0.007  -0.366843  -0.61757  0.009034  2.129166  0.01
O  O64  1  0.72337720  0.29410410  0.27664236  1  -0.67723  0.004445  1.901821  0.005  -0.634645  0.007211  2.123101  0.008  -0.668338  0.005609  2.113475  0.007  -0.366874  -0.617575  0.009038  2.128821  0.01
