# generated using pymatgen
data_LiH49(C15O4)2
_symmetry_space_group_name_H-M   'P 1'
_cell_length_a   8.25350373
_cell_length_b   12.28398956
_cell_length_c   33.20920068
_cell_angle_alpha   89.99981933
_cell_angle_beta   90.00009874
_cell_angle_gamma   90.00003343
_symmetry_Int_Tables_number   1
_chemical_formula_structural   LiH49(C15O4)2
_chemical_formula_sum   'Li4 H196 C120 O32'
_cell_volume   3366.94647945
_cell_formula_units_Z   4
loop_
 _symmetry_equiv_pos_site_id
 _symmetry_equiv_pos_as_xyz
  1  'x, y, z'
loop_
 _atom_site_type_symbol
 _atom_site_label
 _atom_site_symmetry_multiplicity
 _atom_site_fract_x
 _atom_site_fract_y
 _atom_site_fract_z
 _atom_site_occupancy
 _atom_site_pbe_bader_charge
 _atom_site_pbe_bader_spin_density
 _atom_site_pbe_cm5_charge
 _atom_site_pbe_ddec_charge
 _atom_site_pbe_ddec_spin_density
 _atom_site_pbe_ddec_sum_bond_order
 _atom_site_pbe_magmom
Li  Li0  1  0.01574289  0.84256733  0.03243390  1  0.859027  0  0.51931  0.795041  0  0.538601  0
Li  Li1  1  0.48425686  0.15744097  0.53243529  1  0.858983  0  0.519286  0.794979  0  0.53864  0
Li  Li2  1  0.98425892  0.34256280  0.46756501  1  0.85902  0  0.519291  0.794991  0  0.538612  0
Li  Li3  1  0.51574219  0.65743711  0.96756502  1  0.859016  0  0.519302  0.794989  0  0.538624  0
H  H4  1  0.31059025  0.51527396  0.20570029  1  0.001557  0  0.085301  0.048601  0  0.999658  0
H  H5  1  0.18940586  0.48472473  0.70570178  1  0.001603  0  0.08531  0.048626  0  0.999704  0
H  H6  1  0.68940400  0.01527160  0.29429900  1  0.001544  0  0.085317  0.048619  0  0.999662  0
H  H7  1  0.81059348  0.98472734  0.79429936  1  0.001556  0  0.085326  0.048616  0  0.999638  0
H  H8  1  0.44032886  0.42112972  0.15147414  1  0.012066  0  0.080783  0.071597  0  1.054926  0
H  H9  1  0.05966929  0.57887106  0.65147486  1  0.012073  0  0.080764  0.071613  0  1.054938  0
H  H10  1  0.55966817  0.92112852  0.34852709  1  0.012054  0  0.080802  0.071618  0  1.054854  0
H  H11  1  0.94033090  0.07887078  0.84852615  1  0.012072  0  0.080805  0.07163  0  1.054941  0
H  H12  1  0.50780563  0.54173804  0.12854790  1  0.044776  0  0.09029  0.094339  0  0.993073  0
H  H13  1  0.99219434  0.45826150  0.62854805  1  0.044755  0  0.090303  0.094359  0  0.993053  0
H  H14  1  0.49219591  0.04174065  0.37145316  1  0.044725  0  0.090324  0.094397  0  0.993083  0
H  H15  1  0.00780619  0.95825988  0.87145312  1  0.044715  0  0.090322  0.094397  0  0.993097  0
H  H16  1  0.69019255  0.40967732  0.18621698  1  0.012573  0  0.082774  0.078185  0  1.010149  0
H  H17  1  0.80980660  0.59032255  0.68621689  1  0.012567  0  0.082773  0.07817  0  1.010167  0
H  H18  1  0.30980446  0.90967957  0.31378487  1  0.012607  0  0.082763  0.078179  0  1.010261  0
H  H19  1  0.19019481  0.09032146  0.81378380  1  0.01259  0  0.082761  0.078177  0  1.01021  0
H  H20  1  0.74928744  0.53615831  0.16582528  1  0.025291  0  0.084793  0.08153  0  1.025346  0
H  H21  1  0.75070915  0.46384091  0.66582501  1  0.025263  0  0.084793  0.081532  0  1.025378  0
H  H22  1  0.25071046  0.03616114  0.33417610  1  0.02522  0  0.084781  0.081531  0  1.025352  0
H  H23  1  0.24928896  0.96383808  0.83417524  1  0.025244  0  0.084784  0.081527  0  1.025384  0
H  H24  1  0.54314250  0.49288130  0.24016942  1  0.009501  0  0.088801  0.051268  0  0.988186  0
H  H25  1  0.95685824  0.50711729  0.74016918  1  0.00951  0  0.088811  0.051244  0  0.988214  0
H  H26  1  0.45685701  0.99288081  0.25983233  1  0.009539  0  0.088861  0.051323  0  0.988149  0
H  H27  1  0.04314068  0.00711824  0.75983160  1  0.009513  0  0.088841  0.051279  0  0.988222  0
H  H28  1  0.82202652  0.65179393  0.23092526  1  0.004289  0  0.089442  0.058154  0  1.00679  0
H  H29  1  0.67796809  0.34820962  0.73092539  1  0.004331  0  0.089427  0.058093  0  1.006863  0
H  H30  1  0.17797269  0.15179241  0.26907418  1  0.004328  0  0.089412  0.058074  0  1.006861  0
H  H31  1  0.32202749  0.84820900  0.76907469  1  0.004339  0  0.089425  0.05809  0  1.006864  0
H  H32  1  0.79450613  0.42706547  0.26961255  1  -0.010513  0  0.083025  0.069968  0  1.022847  0
H  H33  1  0.70549724  0.57293613  0.76961394  1  -0.01058  0  0.083017  0.06994  0  1.022931  0
H  H34  1  0.20549939  0.92706269  0.23038807  1  -0.010593  0  0.082993  0.069891  0  1.022938  0
H  H35  1  0.29450052  0.07293660  0.73038767  1  -0.010578  0  0.083008  0.06991  0  1.022983  0
H  H36  1  0.92286361  0.46376303  0.22962214  1  0.007414  0  0.087413  0.082883  0  1.016783  0
H  H37  1  0.57714190  0.53624135  0.72962321  1  0.007606  0  0.08739  0.082863  0  1.0169  0
H  H38  1  0.07713830  0.96376067  0.27037784  1  0.007547  0  0.087419  0.082872  0  1.01681  0
H  H39  1  0.42285704  0.03624154  0.77037814  1  0.007572  0  0.087418  0.082869  0  1.016801  0
H  H40  1  0.08603133  0.58189287  0.27281082  1  -0.005434  0  0.084049  0.073543  0  1.034315  0
H  H41  1  0.41397372  0.41810851  0.77281007  1  -0.005408  0  0.084034  0.073501  0  1.034281  0
H  H42  1  0.91397509  0.08189198  0.22718899  1  -0.00537  0  0.084045  0.073515  0  1.034324  0
H  H43  1  0.58602435  0.91811160  0.72719053  1  -0.005384  0  0.084051  0.073529  0  1.034279  0
H  H44  1  0.07152600  0.45308527  0.29571479  1  -0.004468  0  0.084777  0.081173  0  0.98865  0
H  H45  1  0.42847315  0.54691429  0.79571510  1  -0.004488  0  0.084779  0.081184  0  0.988625  0
H  H46  1  0.92847711  0.95308380  0.20428520  1  -0.004546  0  0.08478  0.081174  0  0.988659  0
H  H47  1  0.57152217  0.04691672  0.70428534  1  -0.004534  0  0.084773  0.081161  0  0.988677  0
H  H48  1  0.03639449  0.61239324  0.34302507  1  0.006172  0  0.087091  0.049538  0  0.982072  0
H  H49  1  0.46360378  0.38760428  0.84302438  1  0.006144  0  0.087063  0.049509  0  0.9821  0
H  H50  1  0.96361196  0.11239053  0.15697471  1  0.006298  0  0.08707  0.049558  0  0.982116  0
H  H51  1  0.53639426  0.88760633  0.65697687  1  0.006213  0  0.087088  0.049525  0  0.982103  0
H  H52  1  0.74593427  0.45698379  0.33689177  1  0.007507  0  0.090579  0.087361  0  1.012867  0
H  H53  1  0.75406350  0.54301560  0.83689262  1  0.007539  0  0.090608  0.087404  0  1.012818  0
H  H54  1  0.25407127  0.95698079  0.16310761  1  0.007445  0  0.090602  0.087385  0  1.012822  0
H  H55  1  0.24593302  0.04301663  0.66310753  1  0.007484  0  0.090599  0.087392  0  1.012797  0
H  H56  1  0.93163124  0.43039709  0.36075389  1  0.036108  0  0.095357  0.093375  0  1.013495  0
H  H57  1  0.56836307  0.56960048  0.86075432  1  0.03609  0  0.095366  0.093324  0  1.013557  0
H  H58  1  0.06837307  0.93039585  0.13924582  1  0.036133  0  0.095353  0.093345  0  1.013493  0
H  H59  1  0.43163469  0.06960015  0.63924549  1  0.036125  0  0.095371  0.093361  0  1.01349  0
H  H60  1  0.88072703  0.58108326  0.40915363  1  0.042493  0  0.097282  0.031489  0  0.98117  0
H  H61  1  0.61927488  0.41891552  0.90915456  1  0.042473  0  0.097292  0.03148  0  0.981244  0
H  H62  1  0.11927939  0.08108404  0.09084709  1  0.042561  0  0.097255  0.031377  0  0.98111  0
H  H63  1  0.38072319  0.91891400  0.59084635  1  0.042511  0  0.097247  0.03142  0  0.981151  0
H  H64  1  0.61398338  0.67701703  0.40806948  1  0.038439  0  0.09233  0.095727  0  0.984489  0
H  H65  1  0.88601973  0.32298339  0.90806973  1  0.038397  0  0.092406  0.095845  0  0.984513  0
H  H66  1  0.38602555  0.17701384  0.09193083  1  0.038365  0  0.09236  0.095785  0  0.984555  0
H  H67  1  0.11397583  0.82298338  0.59193068  1  0.038391  0  0.092369  0.095781  0  0.984635  0
H  H68  1  0.55750658  0.60488917  0.36433826  1  0.01895  0  0.090833  0.094793  0  0.992091  0
H  H69  1  0.94249260  0.39511243  0.86433875  1  0.018954  0  0.090826  0.09471  0  0.992153  0
H  H70  1  0.44250229  0.10488481  0.13566153  1  0.018841  0  0.090811  0.09474  0  0.992159  0
H  H71  1  0.05750303  0.89511366  0.63566188  1  0.018887  0  0.090832  0.094765  0  0.992142  0
H  H72  1  0.85566248  0.75402315  0.37348269  1  0.016014  0  0.088915  0.083981  0  0.982443  0
H  H73  1  0.64434040  0.24597594  0.87348323  1  0.016253  0  0.088917  0.083976  0  0.982452  0
H  H74  1  0.14434894  0.25402201  0.12651693  1  0.016366  0  0.088948  0.084003  0  0.982394  0
H  H75  1  0.35565631  0.74597817  0.62651728  1  0.016086  0  0.088932  0.083995  0  0.982406  0
H  H76  1  0.67531961  0.79300078  0.34968320  1  0.02961  0  0.087612  0.082664  0  1.043394  0
H  H77  1  0.82468431  0.20700013  0.84968416  1  0.029603  0  0.087613  0.082709  0  1.043356  0
H  H78  1  0.32469306  0.29299625  0.15031728  1  0.029509  0  0.087688  0.082767  0  1.043424  0
H  H79  1  0.17531236  0.70699884  0.65031669  1  0.02965  0  0.087647  0.082748  0  1.043367  0
H  H80  1  0.35282711  0.62235863  0.26505638  1  0.006307  0  0.083585  0.074784  0  1.012104  0
H  H81  1  0.14716941  0.37763141  0.76505707  1  0.006312  0  0.083552  0.074729  0  1.012106  0
H  H82  1  0.64717571  0.12235921  0.23494429  1  0.006319  0  0.083592  0.074809  0  1.012063  0
H  H83  1  0.85282378  0.87764106  0.73494419  1  0.006299  0  0.083597  0.074816  0  1.012146  0
H  H84  1  0.33534482  0.75412536  0.24424399  1  -0.020825  0  0.083388  0.078456  0  1.027391  0
H  H85  1  0.16465034  0.24586731  0.74424244  1  -0.021032  0  0.083406  0.078486  0  1.027276  0
H  H86  1  0.66465690  0.25412576  0.25575653  1  -0.020853  0  0.083408  0.078466  0  1.02731  0
H  H87  1  0.83534031  0.74587514  0.75575627  1  -0.020862  0  0.083396  0.078463  0  1.027326  0
H  H88  1  0.61460328  0.80024552  0.26405691  1  0.001679  0  0.084973  0.078352  0  1.00951  0
H  H89  1  0.88538914  0.19974961  0.76405460  1  0.001497  0  0.085001  0.078337  0  1.009463  0
H  H90  1  0.38539727  0.30024354  0.23594386  1  0.001682  0  0.084984  0.078361  0  1.009429  0
H  H91  1  0.11459904  0.69975570  0.73594416  1  0.001677  0  0.084975  0.078345  0  1.00944  0
H  H92  1  0.50118733  0.75622786  0.30571434  1  0.03761  0  0.08812  0.084231  0  1.004806  0
H  H93  1  0.99880538  0.24376040  0.80571233  1  0.037413  0  0.088126  0.0842  0  1.004867  0
H  H94  1  0.49881440  0.25622791  0.19428618  1  0.037613  0  0.088129  0.08422  0  1.004807  0
H  H95  1  0.00118405  0.74377250  0.69428608  1  0.0376  0  0.08812  0.084209  0  1.004797  0
H  H96  1  0.61905475  0.57381974  0.30185048  1  -0.019952  0  0.088338  0.053283  0  1.006313  0
H  H97  1  0.88095247  0.42617263  0.80185062  1  -0.019888  0  0.088368  0.053314  0  1.006296  0
H  H98  1  0.38095045  0.07381808  0.19815025  1  -0.01964  0  0.088353  0.053325  0  1.006352  0
H  H99  1  0.11905166  0.92617986  0.69814938  1  -0.019974  0  0.088333  0.053272  0  1.006307  0
H  H100  1  0.29426488  0.66860556  0.13384993  1  0.027474  0  0.092374  0.060792  0  0.974254  0
H  H101  1  0.20573073  0.33139782  0.63385010  1  0.027465  0  0.092392  0.060838  0  0.974157  0
H  H102  1  0.70574041  0.16860097  0.36614979  1  0.027353  0  0.092381  0.060857  0  0.974071  0
H  H103  1  0.79426120  0.83139899  0.86615001  1  0.027314  0  0.092382  0.060829  0  0.974183  0
H  H104  1  0.21527164  0.47502760  0.12347790  1  0.01555  0  0.091987  0.08867  0  1.014921  0
H  H105  1  0.28471420  0.52497668  0.62347998  1  0.0154  0  0.092048  0.088852  0  1.014906  0
H  H106  1  0.78472544  0.97502217  0.37652086  1  0.015482  0  0.092041  0.088775  0  1.014907  0
H  H107  1  0.71527746  0.02497689  0.87652078  1  0.015471  0  0.09203  0.088746  0  1.014908  0
H  H108  1  0.07966271  0.48309888  0.16455443  1  -0.002859  0  0.085129  0.075139  0  1.01818  0
H  H109  1  0.42032342  0.51690586  0.66455538  1  -0.002842  0  0.085201  0.075235  0  1.018293  0
H  H110  1  0.92033316  0.98309304  0.33544522  1  -0.002893  0  0.085144  0.07515  0  1.018206  0
H  H111  1  0.57966945  0.01690637  0.83544509  1  -0.002887  0  0.085159  0.07517  0  1.018193  0
H  H112  1  0.93881519  0.49313841  0.09939285  1  0.054395  0  0.101835  0.120456  0  0.958432  0
H  H113  1  0.56117367  0.50687522  0.59939426  1  0.054239  0  0.101799  0.120362  0  0.958426  0
H  H114  1  0.06118190  0.99312924  0.40060649  1  0.054281  0  0.101794  0.120375  0  0.958464  0
H  H115  1  0.43882040  0.00687186  0.90060683  1  0.054277  0  0.101789  0.12036  0  0.9584  0
H  H116  1  0.90874083  0.61588180  0.12600377  1  0.028785  0  0.091501  0.097099  0  1.028314  0
H  H117  1  0.59124942  0.38412835  0.62600624  1  0.028349  0  0.091445  0.097005  0  1.028308  0
H  H118  1  0.09125835  0.11587283  0.37399450  1  0.028786  0  0.091473  0.097025  0  1.028354  0
H  H119  1  0.40874256  0.88412687  0.87399441  1  0.028743  0  0.091467  0.09704  0  1.02834  0
H  H120  1  0.02855361  0.73211569  0.16391108  1  0.011848  0  0.083531  0.112188  0  1.025871  0
H  H121  1  0.47144341  0.26788906  0.66390933  1  0.011868  0  0.083529  0.11223  0  1.025801  0
H  H122  1  0.97144809  0.23211064  0.33608976  1  0.011858  0  0.083516  0.112228  0  1.025858  0
H  H123  1  0.52855210  0.76788876  0.83609025  1  0.011843  0  0.083479  0.112171  0  1.025824  0
H  H124  1  0.19649817  0.77251127  0.19308193  1  0.017926  0  0.081944  0.105648  0  1.060231  0
H  H125  1  0.30350512  0.22748997  0.69308135  1  0.018009  0  0.081903  0.105631  0  1.060241  0
H  H126  1  0.80350600  0.27250885  0.30691827  1  0.018014  0  0.081949  0.105694  0  1.060194  0
H  H127  1  0.69649520  0.72749080  0.80691888  1  0.018021  0  0.081912  0.105645  0  1.060249  0
H  H128  1  0.07623167  0.66059314  0.20885139  1  0.014038  0  0.082993  0.110543  0  1.039413  0
H  H129  1  0.42377294  0.33940797  0.70885044  1  0.014056  0  0.082983  0.110562  0  1.039471  0
H  H130  1  0.92377603  0.16059090  0.29114833  1  0.013969  0  0.08301  0.110613  0  1.03943  0
H  H131  1  0.57622506  0.83940970  0.79114936  1  0.014017  0  0.083024  0.110645  0  1.039389  0
H  H132  1  0.97870076  0.74714475  0.26789812  1  0.009573  0  0.084961  0.116308  0  1.038713  0
H  H133  1  0.52130259  0.25284872  0.76789890  1  0.00937  0  0.084994  0.116365  0  1.038764  0
H  H134  1  0.02130459  0.24714673  0.23210060  1  0.009389  0  0.084996  0.116355  0  1.03873  0
H  H135  1  0.47869896  0.75285010  0.73210099  1  0.009554  0  0.084988  0.116343  0  1.038779  0
H  H136  1  0.02221020  0.79320187  0.31728450  1  -0.005127  0  0.084436  0.111879  0  1.017643  0
H  H137  1  0.47779395  0.20679262  0.81728524  1  -0.00507  0  0.084408  0.111876  0  1.017685  0
H  H138  1  0.97779641  0.29320139  0.18271416  1  -0.004986  0  0.08439  0.111786  0  1.017678  0
H  H139  1  0.52220272  0.70679607  0.68271472  1  -0.005001  0  0.084413  0.111875  0  1.017652  0
H  H140  1  0.84948788  0.84278049  0.29151770  1  0.012147  0  0.084575  0.112493  0  1.038098  0
H  H141  1  0.65051685  0.15721766  0.79151955  1  0.012069  0  0.084591  0.112548  0  1.038038  0
H  H142  1  0.15051998  0.34277947  0.20848091  1  0.012135  0  0.084539  0.112423  0  1.038115  0
H  H143  1  0.34948463  0.65721757  0.70848136  1  0.012076  0  0.084589  0.112535  0  1.038068  0
H  H144  1  0.60826858  0.70185531  0.15517298  1  0.009999  0  0.087511  0.12131  0  1.033119  0
H  H145  1  0.89172793  0.29814726  0.65517237  1  0.009943  0  0.087501  0.121284  0  1.033096  0
H  H146  1  0.39173189  0.20185567  0.34482699  1  0.009988  0  0.087496  0.121294  0  1.033156  0
H  H147  1  0.10827003  0.79814347  0.84482688  1  0.009994  0  0.087521  0.121308  0  1.033145  0
H  H148  1  0.66464361  0.77274334  0.19952121  1  0.019042  0  0.081652  0.109599  0  1.029794  0
H  H149  1  0.83535079  0.22725722  0.69952035  1  0.018928  0  0.081652  0.109589  0  1.029811  0
H  H150  1  0.33535571  0.27274324  0.30047869  1  0.019054  0  0.081661  0.10962  0  1.029777  0
H  H151  1  0.16464348  0.72725709  0.80047838  1  0.019042  0  0.081646  0.109587  0  1.029793  0
H  H152  1  0.47172548  0.79482010  0.17768413  1  0.015678  0  0.082427  0.109655  0  1.027292  0
H  H153  1  0.02826680  0.20517964  0.67768347  1  0.015744  0  0.082402  0.109614  0  1.027309  0
H  H154  1  0.52827265  0.29482070  0.32231634  1  0.015676  0  0.082425  0.109655  0  1.027318  0
H  H155  1  0.97172866  0.70517882  0.82231589  1  0.015685  0  0.082416  0.109653  0  1.027346  0
H  H156  1  0.64435365  0.56296185  0.46010031  1  0.058107  0  0.122067  0.048057  0  0.944235  0
H  H157  1  0.85564498  0.43703813  0.96010103  1  0.05811  0  0.122062  0.048071  0  0.944222  0
H  H158  1  0.35564912  0.06296397  0.03989922  1  0.058086  0  0.122059  0.048118  0  0.944214  0
H  H159  1  0.14435189  0.93703695  0.53989926  1  0.05811  0  0.122049  0.048066  0  0.94423  0
H  H160  1  0.54409812  0.41148236  0.50276928  1  0.070206  0  0.112736  0.062715  0  0.999681  0
H  H161  1  0.95590218  0.58851581  0.00276958  1  0.070192  0  0.112714  0.062724  0  0.999702  0
H  H162  1  0.45590236  0.91148636  0.99723013  1  0.070161  0  0.112715  0.062401  0  0.999807  0
H  H163  1  0.04409819  0.08851718  0.49723053  1  0.070216  0  0.112731  0.062736  0  0.999664  0
H  H164  1  0.64237849  0.27264750  0.43003020  1  0.083874  0  0.114302  0.0556  0  0.992544  0
H  H165  1  0.85762598  0.72735355  0.93003027  1  0.083903  0  0.114306  0.055594  0  0.99261  0
H  H166  1  0.35762567  0.77264859  0.06996939  1  0.083918  0  0.1143  0.055646  0  0.992612  0
H  H167  1  0.14237797  0.22735289  0.56996965  1  0.083885  0  0.114315  0.055609  0  0.992527  0
H  H168  1  0.32840898  0.32435764  0.47510135  1  0.057746  0  0.11346  0.037388  0  1.050629  0
H  H169  1  0.17159384  0.67564445  0.97510230  1  0.057716  0  0.11348  0.037451  0  1.050626  0
H  H170  1  0.67159523  0.82435598  0.02489818  1  0.057695  0  0.113472  0.037439  0  1.050678  0
H  H171  1  0.82840887  0.17564526  0.52489798  1  0.057727  0  0.113474  0.037412  0  1.050637  0
H  H172  1  0.44864977  0.37462997  0.38955487  1  0.063187  0  0.108544  0.063164  0  0.98325  0
H  H173  1  0.05134883  0.62537367  0.88955584  1  0.063198  0  0.108601  0.063246  0  0.983178  0
H  H174  1  0.55135086  0.87462672  0.11044340  1  0.063224  0  0.108547  0.063145  0  0.983243  0
H  H175  1  0.94865141  0.12537216  0.61044451  1  0.063154  0  0.108563  0.063169  0  0.983167  0
H  H176  1  0.79403202  0.36590837  0.52090229  1  0.634974  0  0.308648  0.345787  0  0.981816  0
H  H177  1  0.70596962  0.63409372  0.02090182  1  0.635482  0  0.308703  0.345918  0  0.981638  0
H  H178  1  0.20597206  0.86590755  0.97909688  1  0.634951  0  0.308676  0.345903  0  0.981675  0
H  H179  1  0.29403079  0.13409207  0.47909794  1  0.634973  0  0.308701  0.345912  0  0.98165  0
H  H180  1  0.68720197  0.14947156  0.46990327  1  0.654981  0  0.298286  0.354983  0  1.000706  0
H  H181  1  0.81279673  0.85052833  0.96990258  1  0.654963  0  0.298288  0.355041  0  1.000642  0
H  H182  1  0.31279724  0.64947541  0.03009587  1  0.654993  0  0.298286  0.355031  0  1.00066  0
H  H183  1  0.18720370  0.35053048  0.53009630  1  0.65494  0  0.29825  0.354942  0  1.000769  0
H  H184  1  0.20506480  0.21284844  0.42914906  1  0.608736  0  0.29392  0.327029  0  1.016691  0
H  H185  1  0.29493892  0.78715079  0.92914904  1  0.60871  0  0.29393  0.327006  0  1.01672  0
H  H186  1  0.79493689  0.71284969  0.07085030  1  0.608724  0  0.293936  0.326988  0  1.016765  0
H  H187  1  0.70506509  0.28715197  0.57085112  1  0.608739  0  0.293933  0.327044  0  1.016648  0
H  H188  1  0.21172012  0.49227333  0.38346247  1  0.053953  0  0.103113  0.071511  0  0.976186  0
H  H189  1  0.28827480  0.50772710  0.88346367  1  0.053995  0  0.103134  0.071523  0  0.976213  0
H  H190  1  0.78827334  0.99227337  0.11653717  1  0.053963  0  0.103113  0.071484  0  0.976212  0
H  H191  1  0.71172291  0.00772790  0.61653682  1  0.053983  0  0.103111  0.071499  0  0.97624  0
H  H192  1  0.14646416  0.35532510  0.39228509  1  0.076246  0  0.11691  0.084098  0  1.004486  0
H  H193  1  0.35353445  0.64467526  0.89228555  1  0.076254  0  0.116911  0.084111  0  1.004475  0
H  H194  1  0.85353644  0.85532525  0.10771471  1  0.076265  0  0.116907  0.084103  0  1.004462  0
H  H195  1  0.64646580  0.14467610  0.60771537  1  0.076231  0  0.116887  0.084062  0  1.004514  0
H  H196  1  0.18446043  0.50637348  0.45588756  1  0.609827  0  0.340387  0.372527  0  0.877054  0
H  H197  1  0.31554225  0.49362552  0.95588789  1  0.609845  0  0.340406  0.37258  0  0.87705  0
H  H198  1  0.81554471  0.00637575  0.04411295  1  0.609856  0  0.34043  0.372587  0  0.877023  0
H  H199  1  0.68445346  0.99362858  0.54411233  1  0.609896  0  0.340383  0.372529  0  0.877109  0
C  C200  1  0.37140195  0.57049310  0.18406018  1  0.000636  0  -0.083919  -0.059061  0  3.760002  0
C  C201  1  0.12859401  0.42950497  0.68406171  1  0.000669  0  -0.083963  -0.059305  0  3.760135  0
C  C202  1  0.62859720  0.07049135  0.31593965  1  0.000645  0  -0.083992  -0.059302  0  3.760198  0
C  C203  1  0.87140165  0.92950741  0.81593949  1  0.000628  0  -0.083978  -0.059167  0  3.760029  0
C  C204  1  0.49000479  0.50193733  0.15790786  1  -0.04994  0  -0.168149  -0.185151  0  3.890939  0
C  C205  1  0.00999220  0.49806340  0.65790835  1  -0.049941  0  -0.168158  -0.185169  0  3.890976  0
C  C206  1  0.50999429  0.00193856  0.34209326  1  -0.049898  0  -0.168221  -0.185213  0  3.890893  0
C  C207  1  0.99000715  0.99806160  0.84209307  1  -0.049906  0  -0.168236  -0.185268  0  3.890977  0
C  C208  1  0.65057546  0.49418652  0.18169498  1  -0.057424  0  -0.170294  -0.177304  0  3.912344  0
C  C209  1  0.84942124  0.50581339  0.68169531  1  -0.057424  0  -0.170287  -0.177277  0  3.912292  0
C  C210  1  0.34942042  0.99418793  0.31830586  1  -0.057258  0  -0.17028  -0.177319  0  3.912343  0
C  C211  1  0.15057889  0.00581224  0.81830518  1  -0.057414  0  -0.170256  -0.177268  0  3.912358  0
C  C212  1  0.61270565  0.55148369  0.22151734  1  -0.009016  0  -0.088339  -0.04972  0  3.825133  0
C  C213  1  0.88729496  0.44851506  0.72151775  1  -0.009039  0  -0.088384  -0.049722  0  3.825116  0
C  C214  1  0.38729469  0.05148460  0.27848342  1  -0.009221  0  -0.08839  -0.049749  0  3.825104  0
C  C215  1  0.11270313  0.94851510  0.77848283  1  -0.009017  0  -0.08841  -0.049746  0  3.825283  0
C  C216  1  0.75320487  0.58950464  0.24767546  1  0.013819  0  -0.09309  -0.034005  0  3.849574  0
C  C217  1  0.74679592  0.41049633  0.74767585  1  0.013544  0  -0.093077  -0.033938  0  3.849561  0
C  C218  1  0.24679671  0.08950247  0.25232525  1  0.013562  0  -0.093092  -0.033877  0  3.849594  0
C  C219  1  0.25320214  0.91049583  0.75232447  1  0.013592  0  -0.093106  -0.033945  0  3.849683  0
C  C220  1  0.86761325  0.49481470  0.25748125  1  0.001449  0  -0.16619  -0.170436  0  3.925708  0
C  C221  1  0.63238882  0.50518700  0.75748239  1  0.001563  0  -0.166198  -0.170399  0  3.925899  0
C  C222  1  0.13238869  0.99481179  0.24251868  1  0.001584  0  -0.166171  -0.170355  0  3.925759  0
C  C223  1  0.36760888  0.00518740  0.74251870  1  0.001533  0  -0.166153  -0.170309  0  3.925851  0
C  C224  1  0.00042408  0.52575142  0.28745949  1  -0.004734  0  -0.167693  -0.1761  0  3.937773  0
C  C225  1  0.49957865  0.47424820  0.78745992  1  -0.004726  0  -0.167659  -0.176078  0  3.937706  0
C  C226  1  0.99958108  0.02574988  0.21254009  1  -0.004682  0  -0.167679  -0.176121  0  3.937872  0
C  C227  1  0.50041826  0.97424976  0.71254093  1  -0.004643  0  -0.167719  -0.1762  0  3.93785  0
C  C228  1  0.93288398  0.57951573  0.32566925  1  0.011444  0  -0.086322  -0.013183  0  3.806367  0
C  C229  1  0.56711614  0.42047888  0.82566895  1  0.011304  0  -0.086278  -0.013131  0  3.806437  0
C  C230  1  0.06712244  0.07951497  0.17433087  1  0.011254  0  -0.086317  -0.013229  0  3.806495  0
C  C231  1  0.43288193  0.92048074  0.67433196  1  0.01129  0  -0.086283  -0.013016  0  3.806311  0
C  C232  1  0.84735067  0.49615913  0.35282169  1  -0.011502  0  -0.166722  -0.243172  0  3.907802  0
C  C233  1  0.65264479  0.50383850  0.85282103  1  -0.011451  0  -0.166733  -0.243137  0  3.907694  0
C  C234  1  0.15265369  0.99615704  0.14717884  1  -0.011516  0  -0.166719  -0.24305  0  3.907668  0
C  C235  1  0.34735291  0.00383890  0.64717915  1  -0.011443  0  -0.166738  -0.243144  0  3.907497  0
C  C236  1  0.78009696  0.54684851  0.39111254  1  0.430604  0  0.001576  0.193673  0  3.864759  0
C  C237  1  0.71989998  0.45315205  0.89111258  1  0.430619  0  0.001594  0.19367  0  3.864734  0
C  C238  1  0.21990822  0.04684674  0.10888792  1  0.430635  0  0.001588  0.193778  0  3.864543  0
C  C239  1  0.28009570  0.95315197  0.60888769  1  0.430611  0  0.001579  0.193683  0  3.864526  0
C  C240  1  0.66226701  0.63821868  0.38076443  1  -0.043799  0  -0.172106  -0.224115  0  3.954643  0
C  C241  1  0.83773349  0.36178197  0.88076552  1  -0.04379  0  -0.172117  -0.224064  0  3.954807  0
C  C242  1  0.33774067  0.13821687  0.11923562  1  -0.043678  0  -0.172062  -0.224062  0  3.954787  0
C  C243  1  0.16226210  0.86178093  0.61923515  1  -0.04376  0  -0.17209  -0.224078  0  3.954759  0
C  C244  1  0.75317865  0.72245936  0.35557048  1  -0.039743  0  -0.162473  -0.190283  0  3.906217  0
C  C245  1  0.74682410  0.27754070  0.85557163  1  -0.039967  0  -0.162505  -0.190348  0  3.906193  0
C  C246  1  0.24683274  0.22245729  0.14442948  1  -0.039977  0  -0.162574  -0.190396  0  3.906176  0
C  C247  1  0.25317384  0.77754111  0.64443005  1  -0.039778  0  -0.162524  -0.190409  0  3.906196  0
C  C248  1  0.82196019  0.67834928  0.31560147  1  0.038099  0  -0.015748  0.134952  0  3.725987  0
C  C249  1  0.67804349  0.32164704  0.81560224  1  0.038259  0  -0.015797  0.13491  0  3.725874  0
C  C250  1  0.17804753  0.17834684  0.18439823  1  0.038225  0  -0.015793  0.134922  0  3.72584  0
C  C251  1  0.32195570  0.82164877  0.68439908  1  0.0382  0  -0.015787  0.134894  0  3.726038  0
C  C252  1  0.42126953  0.68728387  0.24955523  1  0.002749  0  -0.165603  -0.201009  0  3.914218  0
C  C253  1  0.07872567  0.31271037  0.74955506  1  0.002988  0  -0.165586  -0.200995  0  3.913997  0
C  C254  1  0.57873093  0.18728429  0.25044507  1  0.002753  0  -0.165595  -0.201017  0  3.914103  0
C  C255  1  0.92126746  0.81271584  0.75044446  1  0.002743  0  -0.165594  -0.201008  0  3.914137  0
C  C256  1  0.55678664  0.72801566  0.27748093  1  -0.051559  0  -0.166628  -0.167389  0  3.910528  0
C  C257  1  0.94320709  0.27197773  0.77748006  1  -0.051341  0  -0.166667  -0.16732  0  3.910376  0
C  C258  1  0.44321507  0.22801464  0.22251902  1  -0.051567  0  -0.166641  -0.167332  0  3.910342  0
C  C259  1  0.05678479  0.77198473  0.72251921  1  -0.051578  0  -0.166613  -0.167294  0  3.910385  0
C  C260  1  0.68474562  0.64059047  0.28660227  1  0.026965  0  -0.08567  -0.048162  0  3.764645  0
C  C261  1  0.81525423  0.35940610  0.78660216  1  0.026984  0  -0.085675  -0.048173  0  3.764656  0
C  C262  1  0.31525722  0.14058703  0.21339868  1  0.026604  0  -0.085693  -0.048323  0  3.764824  0
C  C263  1  0.18474258  0.85940997  0.71339762  1  0.026934  0  -0.085682  -0.048214  0  3.764802  0
C  C264  1  0.48850870  0.64104745  0.20998100  1  0.037201  0  -0.017509  0.140217  0  3.732871  0
C  C265  1  0.01148865  0.35895121  0.70998195  1  0.037121  0  -0.017461  0.1403  0  3.732737  0
C  C266  1  0.51149172  0.14104750  0.29001935  1  0.037194  0  -0.017514  0.140271  0  3.732797  0
C  C267  1  0.98850694  0.85895148  0.79001903  1  0.037189  0  -0.017466  0.140203  0  3.732992  0
C  C268  1  0.23635620  0.62291589  0.15863765  1  0.025642  0  -0.091143  0.047707  0  3.835537  0
C  C269  1  0.26363715  0.37708728  0.65863809  1  0.02566  0  -0.09114  0.047873  0  3.835387  0
C  C270  1  0.76364541  0.12290990  0.34136151  1  0.025838  0  -0.091109  0.0478  0  3.835146  0
C  C271  1  0.73635603  0.87708783  0.84136226  1  0.025863  0  -0.091173  0.047709  0  3.835469  0
C  C272  1  0.13477863  0.53045250  0.13993202  1  0.021544  0  -0.165654  -0.162461  0  3.916679  0
C  C273  1  0.36520854  0.46955408  0.63993360  1  0.021484  0  -0.165807  -0.162932  0  3.916943  0
C  C274  1  0.86521926  0.03044558  0.36006665  1  0.021424  0  -0.165701  -0.162625  0  3.91663  0
C  C275  1  0.63478473  0.96955443  0.86006634  1  0.021462  0  -0.165706  -0.162568  0  3.916667  0
C  C276  1  0.00104383  0.56609981  0.11096801  1  -0.051934  0  -0.169494  -0.305221  0  3.946269  0
C  C277  1  0.49894920  0.43391108  0.61097150  1  -0.050995  0  -0.169439  -0.304901  0  3.945716  0
C  C278  1  0.99895652  0.06609107  0.38902911  1  -0.05154  0  -0.169435  -0.304943  0  3.945859  0
C  C279  1  0.50104525  0.93390870  0.88902849  1  -0.051439  0  -0.16946  -0.305024  0  3.945782  0
C  C280  1  0.06754034  0.62856828  0.07503849  1  1.570552  0  0.217865  0.657955  0  4.141071  0
C  C281  1  0.43244880  0.37143966  0.57503660  1  1.570527  0  0.217885  0.657843  0  4.141563  0
C  C282  1  0.93245522  0.12856653  0.42496248  1  1.570504  0  0.217799  0.657741  0  4.141609  0
C  C283  1  0.56754317  0.87143211  0.92496256  1  1.570473  0  0.217767  0.657704  0  4.141588  0
C  C284  1  0.12892801  0.70135771  0.18242226  1  -0.075875  0  -0.247154  -0.386351  0  3.921667  0
C  C285  1  0.37107278  0.29864607  0.68242133  1  -0.075938  0  -0.247104  -0.386433  0  3.921594  0
C  C286  1  0.87107610  0.20135359  0.31757772  1  -0.0759  0  -0.247215  -0.386597  0  3.92165  0
C  C287  1  0.62892397  0.79864678  0.81757821  1  -0.075927  0  -0.247097  -0.386445  0  3.921612  0
C  C288  1  0.92355096  0.76985792  0.29673378  1  -0.043805  0  -0.2446  -0.418837  0  3.935651  0
C  C289  1  0.57645138  0.23013937  0.79673491  1  -0.043645  0  -0.244592  -0.418931  0  3.935774  0
C  C290  1  0.07645441  0.26985529  0.20326552  1  -0.043664  0  -0.244509  -0.418665  0  3.935564  0
C  C291  1  0.42354652  0.73014098  0.70326561  1  -0.043877  0  -0.244592  -0.418899  0  3.935813  0
C  C292  1  0.56333142  0.73217676  0.18420738  1  -0.066409  0  -0.244374  -0.405345  0  3.898113  0
C  C293  1  0.93666409  0.26782556  0.68420712  1  -0.066293  0  -0.244381  -0.405302  0  3.898163  0
C  C294  1  0.43666908  0.23217657  0.31579317  1  -0.066412  0  -0.244376  -0.405366  0  3.898165  0
C  C295  1  0.06333142  0.76782363  0.81579276  1  -0.066404  0  -0.244378  -0.405327  0  3.898262  0
C  C296  1  0.61212846  0.48386789  0.44673478  1  0.941821  0  0.089261  0.265676  0  3.933767  0
C  C297  1  0.88787250  0.51613546  0.94673511  1  0.941806  0  0.08931  0.265711  0  3.933802  0
C  C298  1  0.38787468  0.98386669  0.05326366  1  0.941807  0  0.089293  0.265339  0  3.934108  0
C  C299  1  0.11212400  0.01613412  0.55326416  1  0.941818  0  0.089302  0.265675  0  3.933796  0
C  C300  1  0.62729542  0.39269217  0.47783887  1  0.471879  0  -0.004462  0.079161  0  3.879332  0
C  C301  1  0.87270575  0.60731010  0.97783909  1  0.471892  0  -0.004528  0.079021  0  3.879578  0
C  C302  1  0.37270885  0.89268960  0.02216028  1  0.471894  0  -0.004431  0.080009  0  3.879376  0
C  C303  1  0.12729446  0.10730984  0.52216128  1  0.471939  0  -0.004509  0.079061  0  3.87946  0
C  C304  1  0.57260338  0.28537857  0.45793028  1  0.49214  0  -0.004061  0.12051  0  3.861142  0
C  C305  1  0.92739766  0.71462305  0.95793100  1  0.492167  0  -0.004125  0.120457  0  3.861411  0
C  C306  1  0.42739837  0.78537748  0.04206810  1  0.492178  0  -0.00415  0.120099  0  3.86157  0
C  C307  1  0.07260387  0.21462342  0.54206925  1  0.492123  0  -0.004125  0.120554  0  3.861316  0
C  C308  1  0.39352547  0.30123092  0.44739671  1  0.440281  0  -0.010254  0.084489  0  3.877832  0
C  C309  1  0.10647595  0.69876897  0.94739761  1  0.440243  0  -0.010292  0.084378  0  3.878031  0
C  C310  1  0.60647630  0.80123307  0.05260195  1  0.440253  0  -0.010289  0.084326  0  3.878056  0
C  C311  1  0.89352556  0.19876956  0.55260266  1  0.440287  0  -0.010332  0.084256  0  3.878104  0
C  C312  1  0.38082898  0.39589818  0.41711859  1  0.405798  0  -0.009859  0.065291  0  3.889706  0
C  C313  1  0.11917223  0.60410360  0.91711931  1  0.405791  0  -0.009871  0.065336  0  3.889596  0
C  C314  1  0.61917409  0.89589926  0.08288116  1  0.405907  0  -0.009842  0.065488  0  3.889598  0
C  C315  1  0.88082556  0.10410312  0.58288106  1  0.405853  0  -0.009847  0.065428  0  3.889522  0
C  C316  1  0.20891408  0.42540652  0.40560215  1  0.411998  0  -0.069719  0.019209  0  3.915651  0
C  C317  1  0.29108704  0.57459372  0.90560298  1  0.411888  0  -0.069758  0.019132  0  3.915767  0
C  C318  1  0.79109022  0.92540757  0.09439726  1  0.411351  0  -0.069689  0.019254  0  3.915689  0
C  C319  1  0.70890951  0.07459389  0.59439743  1  0.411892  0  -0.069702  0.019251  0  3.915769  0
O  O320  1  0.99846620  0.71933380  0.06625131  1  -1.240977  0  -0.413976  -0.682521  0  2.226208  0
O  O321  1  0.50152606  0.28067523  0.56625416  1  -1.240821  0  -0.413964  -0.682513  0  2.226493  0
O  O322  1  0.00153549  0.21932266  0.43374714  1  -1.240982  0  -0.413882  -0.682417  0  2.226514  0
O  O323  1  0.49846825  0.78067490  0.93374661  1  -1.241002  0  -0.413864  -0.682345  0  2.226566  0
O  O324  1  0.18494373  0.58734318  0.05594835  1  -1.196044  0  -0.321866  -0.563234  0  2.149054  0
O  O325  1  0.31506588  0.41266004  0.55594877  1  -1.196237  0  -0.321852  -0.563162  0  2.149576  0
O  O326  1  0.81506149  0.08734204  0.44404905  1  -1.196097  0  -0.32185  -0.563153  0  2.149477  0
O  O327  1  0.68494188  0.91265726  0.94404974  1  -1.196097  0  -0.321844  -0.563157  0  2.14941  0
O  O328  1  0.71182176  0.45762332  0.41394059  1  -1.070349  0  -0.205913  -0.298228  0  2.49168  0
O  O329  1  0.78817534  0.54237705  0.91394055  1  -1.070385  0  -0.205965  -0.298257  0  2.491691  0
O  O330  1  0.28818015  0.95762261  0.08605848  1  -1.070378  0  -0.205909  -0.298191  0  2.491814  0
O  O331  1  0.21182118  0.04237791  0.58605929  1  -1.070335  0  -0.205933  -0.298265  0  2.491638  0
O  O332  1  0.44568396  0.49433519  0.43476456  1  -1.032486  0  -0.229253  -0.327416  0  2.426465  0
O  O333  1  0.05431615  0.50566562  0.93476536  1  -1.03246  0  -0.229258  -0.327451  0  2.426442  0
O  O334  1  0.55431555  0.99433314  0.06523417  1  -1.032492  0  -0.229238  -0.327424  0  2.426623  0
O  O335  1  0.94568155  0.00566613  0.56523482  1  -1.032478  0  -0.229259  -0.327437  0  2.426366  0
O  O336  1  0.78951143  0.39069360  0.49235235  1  -1.181605  0  -0.471001  -0.574751  0  2.363218  0
O  O337  1  0.71049106  0.60930773  0.99235280  1  -1.182052  0  -0.471017  -0.574799  0  2.363149  0
O  O338  1  0.21049527  0.89069598  0.00764650  1  -1.181529  0  -0.471073  -0.575216  0  2.36327  0
O  O339  1  0.28951158  0.10930684  0.50764727  1  -1.181586  0  -0.471013  -0.574802  0  2.363105  0
O  O340  1  0.59918002  0.19446826  0.48352776  1  -1.207665  0  -0.467609  -0.590957  0  2.355485  0
O  O341  1  0.90081998  0.80553558  0.98352806  1  -1.207679  0  -0.467509  -0.590851  0  2.355353  0
O  O342  1  0.40082044  0.69446657  0.01647012  1  -1.207798  0  -0.46752  -0.590818  0  2.355507  0
O  O343  1  0.09918162  0.30553292  0.51647147  1  -1.207692  0  -0.467495  -0.590815  0  2.355491  0
O  O344  1  0.32556635  0.20239257  0.43190435  1  -1.136472  0  -0.390013  -0.486211  0  2.257248  0
O  O345  1  0.17443859  0.79760501  0.93190517  1  -1.136431  0  -0.390031  -0.486163  0  2.257345  0
O  O346  1  0.67444018  0.70239542  0.06809412  1  -1.136424  0  -0.390052  -0.486132  0  2.257422  0
O  O347  1  0.82556300  0.29760626  0.56809468  1  -1.136459  0  -0.390009  -0.486141  0  2.257352  0
O  O348  1  0.11540605  0.45744969  0.44028226  1  -1.129791  0  -0.440202  -0.517175  0  2.263994  0
O  O349  1  0.38459410  0.54254944  0.94028286  1  -1.129714  0  -0.440244  -0.517235  0  2.264074  0
O  O350  1  0.88459707  0.95745189  0.05971712  1  -1.129319  0  -0.440292  -0.517276  0  2.264001  0
O  O351  1  0.61540242  0.04255313  0.55971698  1  -1.12978  0  -0.440198  -0.517187  0  2.264112  0
