# generated using pymatgen
data_CuH17C11S2IO2
_symmetry_space_group_name_H-M   'P 1'
_cell_length_a   8.16790228
_cell_length_b   9.39036872
_cell_length_c   10.15850753
_cell_angle_alpha   83.29954107
_cell_angle_beta   66.30802061
_cell_angle_gamma   73.10554476
_symmetry_Int_Tables_number   1
_chemical_formula_structural   CuH17C11S2IO2
_chemical_formula_sum   'Cu2 H34 C22 S4 I2 O4'
_cell_volume   682.69282306
_cell_formula_units_Z   2
loop_
 _symmetry_equiv_pos_site_id
 _symmetry_equiv_pos_as_xyz
  1  'x, y, z'
loop_
 _atom_site_type_symbol
 _atom_site_label
 _atom_site_symmetry_multiplicity
 _atom_site_fract_x
 _atom_site_fract_y
 _atom_site_fract_z
 _atom_site_occupancy
 _atom_site_hle17_bader_spin_density
 _atom_site_hle17_ddec_charge
 _atom_site_hle17_ddec_spin_density
 _atom_site_hle17_ddec_sum_bond_order
 _atom_site_hle17_magmom
 _atom_site_hse06_10hf_bader_spin_density
 _atom_site_hse06_10hf_ddec_charge
 _atom_site_hse06_10hf_ddec_spin_density
 _atom_site_hse06_10hf_ddec_sum_bond_order
 _atom_site_hse06_10hf_magmom
 _atom_site_hse06_bader_spin_density
 _atom_site_hse06_ddec_charge
 _atom_site_hse06_ddec_spin_density
 _atom_site_hse06_ddec_sum_bond_order
 _atom_site_hse06_magmom
 _atom_site_pbe_bader_spin_density
 _atom_site_pbe_cm5_charge
 _atom_site_pbe_ddec_charge
 _atom_site_pbe_ddec_spin_density
 _atom_site_pbe_ddec_sum_bond_order
 _atom_site_pbe_magmom
Cu  Cu0  1  0.82701985  0.55409309  0.99990817  1  0  0.119236  0  2.353674  0  0  0.047751  0  2.850001  0  0  0.056355  0  2.801078  0  0  0.223675  0.042647  0  2.883546  0
Cu  Cu1  1  0.17298641  0.44590689  0.00009016  1  0  0.119314  0  2.353692  0  0  0.047806  0  2.850028  0  0  0.056347  0  2.80108  0  0  0.223664  0.042726  0  2.883439  0
H  H2  1  0.75493850  0.61719181  0.31774608  1  0  0.095119  0  0.93941  0  0  0.113601  0  1.000045  0  0  0.114514  0  0.999369  0  0  0.097253  0.113192  0  0.999976  0
H  H3  1  0.92734113  0.38256816  0.31801393  1  0  0.094675  0  0.940876  0  0  0.113201  0  1.001406  0  0  0.114085  0  1.00079  0  0  0.096936  0.112675  0  1.001408  0
H  H4  1  0.24505314  0.38280487  0.68226507  1  0  0.095148  0  0.939477  0  0  0.113628  0  1.000094  0  0  0.114544  0  0.999421  0  0  0.097276  0.113221  0  1.00002  0
H  H5  1  0.07266382  0.61743072  0.68198208  1  0  0.09466  0  0.940898  0  0  0.113198  0  1.001413  0  0  0.114079  0  1.000799  0  0  0.096927  0.112667  0  1.001414  0
H  H6  1  0.65300606  0.79562399  0.26766227  1  0  0.104249  0  0.954896  0  0  0.118933  0  1.018268  0  0  0.120257  0  1.018811  0  0  0.09646  0.11817  0  1.017231  0
H  H7  1  0.07931394  0.20419749  0.26779433  1  0  0.104095  0  0.954199  0  0  0.11781  0  1.019278  0  0  0.119168  0  1.019792  0  0  0.0962  0.117439  0  1.017366  0
H  H8  1  0.34699093  0.20437156  0.73234398  1  0  0.104228  0  0.95492  0  0  0.118893  0  1.018295  0  0  0.120219  0  1.018838  0  0  0.096421  0.118128  0  1.017259  0
H  H9  1  0.92069263  0.79579916  0.73220213  1  0  0.104076  0  0.954226  0  0  0.117804  0  1.019292  0  0  0.119158  0  1.019809  0  0  0.096195  0.117427  0  1.017379  0
H  H10  1  0.32968831  0.68562948  0.11281047  1  0  0.093914  0  0.984872  0  0  0.105565  0  1.056694  0  0  0.10712  0  1.056082  0  0  0.08563  0.105418  0  1.055024  0
H  H11  1  0.55734429  0.31451763  0.11285818  1  0  0.094574  0  0.984889  0  0  0.106033  0  1.057144  0  0  0.107592  0  1.056473  0  0  0.085789  0.105796  0  1.055707  0
H  H12  1  0.67030962  0.31437163  0.88719569  1  0  0.093867  0  0.984912  0  0  0.105541  0  1.056704  0  0  0.107094  0  1.0561  0  0  0.085642  0.105388  0  1.055039  0
H  H13  1  0.44265917  0.68547793  0.88713508  1  0  0.094522  0  0.984791  0  0  0.105985  0  1.05706  0  0  0.107544  0  1.056387  0  0  0.085773  0.10575  0  1.055613  0
H  H14  1  0.27540230  0.78583714  0.26848306  1  0  0.099006  0  0.970449  0  0  0.111734  0  1.037414  0  0  0.113521  0  1.036776  0  0  0.09824  0.110337  0  1.037862  0
H  H15  1  0.45637309  0.21418825  0.26849879  1  0  0.09895  0  0.970232  0  0  0.111434  0  1.037274  0  0  0.113192  0  1.03667  0  0  0.09804  0.11024  0  1.037805  0
H  H16  1  0.72460522  0.21416173  0.73151571  1  0  0.099088  0  0.970426  0  0  0.111857  0  1.037353  0  0  0.113645  0  1.036716  0  0  0.098322  0.11045  0  1.037799  0
H  H17  1  0.54363357  0.78581509  0.73149145  1  0  0.098902  0  0.970032  0  0  0.111398  0  1.037092  0  0  0.11316  0  1.036482  0  0  0.097994  0.110202  0  1.037621  0
H  H18  1  0.43574278  0.62160374  0.52387218  1  0  0.039284  0  0.944727  0  0  0.051688  0  1.015866  0  0  0.052344  0  1.015296  0  0  0.086498  0.051146  0  1.016282  0
H  H19  1  0.04063568  0.37794082  0.52411751  1  0  0.038951  0  0.943915  0  0  0.051069  0  1.01584  0  0  0.051587  0  1.015384  0  0  0.086556  0.050503  0  1.015863  0
H  H20  1  0.56424590  0.37839740  0.47613381  1  0  0.039261  0  0.944768  0  0  0.051665  0  1.015911  0  0  0.052323  0  1.01534  0  0  0.086513  0.051126  0  1.016328  0
H  H21  1  0.95936817  0.62206140  0.47587851  1  0  0.038985  0  0.943874  0  0  0.051086  0  1.015812  0  0  0.051607  0  1.015358  0  0  0.086554  0.05052  0  1.015837  0
H  H22  1  0.56306481  0.74221206  0.53456684  1  0  0.052593  0  0.968862  0  0  0.064186  0  1.039764  0  0  0.06507  0  1.038963  0  0  0.099355  0.06341  0  1.040914  0
H  H23  1  0.90234346  0.25763487  0.53472375  1  0  0.051315  0  0.969056  0  0  0.062871  0  1.040658  0  0  0.063784  0  1.039732  0  0  0.098531  0.061939  0  1.041599  0
H  H24  1  0.43692613  0.25778796  0.46543861  1  0  0.052566  0  0.968915  0  0  0.064171  0  1.039799  0  0  0.065054  0  1.039002  0  0  0.099346  0.063394  0  1.040951  0
H  H25  1  0.09765766  0.74236958  0.46527423  1  0  0.051319  0  0.969055  0  0  0.062796  0  1.040732  0  0  0.063711  0  1.039812  0  0  0.098499  0.061867  0  1.04167  0
H  H26  1  0.36756494  0.99993369  0.26525915  1  0  0.102696  0  0.989668  0  0  0.102462  0  1.071376  0  0  0.106916  0  1.067827  0  0  0.097739  0.099479  0  1.073139  0
H  H27  1  0.63245228  0.00005959  0.73473321  1  0  0.102722  0  0.989592  0  0  0.102488  0  1.071304  0  0  0.106947  0  1.067756  0  0  0.097729  0.099499  0  1.073067  0
H  H28  1  0.38929451  0.96849818  0.61226869  1  0  0.057165  0  0.929456  0  0  0.070471  0  0.996978  0  0  0.071293  0  0.995895  0  0  0.099949  0.070031  0  0.997384  0
H  H29  1  0.99818126  0.03099397  0.61221315  1  0  0.055252  0  0.929398  0  0  0.068928  0  0.997015  0  0  0.069743  0  0.995946  0  0  0.099337  0.068348  0  0.997825  0
H  H30  1  0.61070058  0.03150072  0.38773570  1  0  0.057083  0  0.929458  0  0  0.070452  0  0.996938  0  0  0.071274  0  0.995858  0  0  0.09994  0.070013  0  0.997345  0
H  H31  1  0.00181346  0.96901272  0.38778644  1  0  0.05524  0  0.929423  0  0  0.068932  0  0.997015  0  0  0.069748  0  0.995946  0  0  0.099339  0.068352  0  0.997833  0
H  H32  1  0.22131141  0.86757357  0.71013508  1  0  0.05463  0  0.953076  0  0  0.067111  0  1.023076  0  0  0.067835  0  1.022865  0  0  0.087763  0.066503  0  1.024226  0
H  H33  1  0.06831234  0.13167798  0.71030062  1  0  0.053938  0  0.953937  0  0  0.066273  0  1.024673  0  0  0.066994  0  1.024466  0  0  0.087586  0.066325  0  1.024571  0
H  H34  1  0.77867664  0.13242980  0.28986949  1  0  0.054643  0  0.95307  0  0  0.067114  0  1.023092  0  0  0.067853  0  1.022866  0  0  0.087719  0.066503  0  1.024249  0
H  H35  1  0.93168463  0.86832760  0.28969843  1  0  0.053929  0  0.953913  0  0  0.066273  0  1.024622  0  0  0.066989  0  1.024431  0  0  0.087597  0.06631  0  1.024568  0
C  C36  1  0.62226669  0.69203721  0.32015081  1  0  -0.181416  0  3.657392  0  0  -0.218471  0  3.914521  0  0  -0.219093  0  3.925473  0  0  -0.158702  -0.217861  0  3.906753  0
C  C37  1  0.05765301  0.30774308  0.32034377  1  0  -0.180232  0  3.658635  0  0  -0.216668  0  3.915434  0  0  -0.217336  0  3.926431  0  0  -0.157455  -0.215998  0  3.907108  0
C  C38  1  0.37772725  0.30795948  0.67985411  1  0  -0.181408  0  3.657367  0  0  -0.218467  0  3.914534  0  0  -0.219097  0  3.925493  0  0  -0.15866  -0.217864  0  3.90676  0
C  C39  1  0.94235147  0.69225691  0.67965368  1  0  -0.180206  0  3.658708  0  0  -0.216677  0  3.915532  0  0  -0.217334  0  3.926534  0  0  -0.157451  -0.215987  0  3.907182  0
C  C40  1  0.38516576  0.74564083  0.16451624  1  0  -0.180822  0  3.645859  0  0  -0.219952  0  3.891102  0  0  -0.220329  0  3.902551  0  0  -0.151447  -0.219311  0  3.882641  0
C  C41  1  0.45037874  0.25435122  0.16459300  1  0  -0.182338  0  3.645243  0  0  -0.221428  0  3.890621  0  0  -0.221753  0  3.902044  0  0  -0.15211  -0.22093  0  3.882723  0
C  C42  1  0.61484385  0.25436138  0.83547675  1  0  -0.180788  0  3.645406  0  0  -0.219945  0  3.890733  0  0  -0.22033  0  3.902184  0  0  -0.151464  -0.219285  0  3.882223  0
C  C43  1  0.54962528  0.74565433  0.83541102  1  0  -0.182182  0  3.645528  0  0  -0.221293  0  3.890905  0  0  -0.221619  0  3.902334  0  0  -0.152036  -0.220793  0  3.882997  0
C  C44  1  0.48626326  0.71997488  0.47494994  1  0  0.093141  0  3.661385  0  0  0.033271  0  3.933476  0  0  0.039758  0  3.94014  0  0  -0.07853  0.029215  0  3.928659  0
C  C45  1  0.03880474  0.27970404  0.47513075  1  0  0.095648  0  3.659556  0  0  0.036367  0  3.931091  0  0  0.042953  0  3.937872  0  0  -0.077831  0.031859  0  3.926897  0
C  C46  1  0.51372805  0.28002403  0.52505551  1  0  0.093244  0  3.661473  0  0  0.033336  0  3.933496  0  0  0.039822  0  3.940165  0  0  -0.078545  0.029273  0  3.928684  0
C  C47  1  0.96119548  0.72030041  0.52486678  1  0  0.09565  0  3.659539  0  0  0.036443  0  3.93104  0  0  0.043016  0  3.93784  0  0  -0.077775  0.031932  0  3.926835  0
C  C48  1  0.44799452  0.87307076  0.07586443  1  0  0.064188  0  3.734872  0  0  0.079067  0  3.972744  0  0  0.078715  0  3.997292  0  0  -0.017673  0.077854  0  3.956228  0
C  C49  1  0.47618347  0.12691925  0.07589128  1  0  0.064439  0  3.736079  0  0  0.079695  0  3.973597  0  0  0.079305  0  3.998085  0  0  -0.018012  0.078114  0  3.957134  0
C  C50  1  0.55199606  0.12691258  0.92414547  1  0  0.064205  0  3.73511  0  0  0.078986  0  3.973155  0  0  0.078636  0  3.997695  0  0  -0.017734  0.077772  0  3.956622  0
C  C51  1  0.52383273  0.87306183  0.92409415  1  0  0.064376  0  3.736003  0  0  0.079651  0  3.973447  0  0  0.07926  0  3.997943  0  0  -0.017965  0.078073  0  3.956987  0
C  C52  1  0.42618801  0.99998971  0.14780236  1  0  -0.163023  0  3.698731  0  0  -0.192027  0  3.955125  0  0  -0.195691  0  3.975819  0  0  -0.096262  -0.185343  0  3.937316  0
C  C53  1  0.57381595  0.00002029  0.85219499  1  0  -0.163087  0  3.6987  0  0  -0.192075  0  3.955089  0  0  -0.195747  0  3.97579  0  0  -0.096294  -0.185387  0  3.93727  0
C  C54  1  0.27195454  0.93294398  0.61138326  1  0  0.054036  0  3.65889  0  0  -0.005834  0  3.931915  0  0  0.0005  0  3.936616  0  0  -0.077821  -0.009949  0  3.928258  0
C  C55  1  0.11640168  0.06647794  0.61143600  1  0  0.057587  0  3.65863  0  0  -0.003173  0  3.932614  0  0  0.003138  0  3.937432  0  0  -0.076623  -0.007516  0  3.929108  0
C  C56  1  0.72804081  0.06705715  0.38862015  1  0  0.054161  0  3.658858  0  0  -0.005821  0  3.931979  0  0  0.000498  0  3.936681  0  0  -0.077787  -0.009926  0  3.928325  0
C  C57  1  0.88359492  0.93352541  0.38856545  1  0  0.057642  0  3.658568  0  0  -0.00311  0  3.93258  0  0  0.003199  0  3.937402  0  0  -0.076594  -0.007468  0  3.929075  0
S  S58  1  0.56401510  0.59880627  0.20484992  1  0  0.043341  0  2.728275  0  0  0.064478  0  3.152167  0  0  0.063552  0  3.140065  0  0  -0.042011  0.064873  0  3.158347  0
S  S59  1  0.23100982  0.40106948  0.20509304  1  0  0.043656  0  2.728148  0  0  0.065374  0  3.151312  0  0  0.06433  0  3.139375  0  0  -0.04164  0.065009  0  3.15764  0
S  S60  1  0.43597988  0.40119931  0.79515109  1  0  0.043277  0  2.728192  0  0  0.064418  0  3.152107  0  0  0.063519  0  3.139974  0  0  -0.04205  0.064815  0  3.158193  0
S  S61  1  0.76899193  0.59893608  0.79490396  1  0  0.043655  0  2.728192  0  0  0.065366  0  3.151392  0  0  0.064296  0  3.13949  0  0  -0.041636  0.064981  0  3.157784  0
I  I62  1  0.97868652  0.26223974  0.99993691  1  0  -0.415603  0  1.43178  0  0  -0.361547  0  1.810624  0  0  -0.377291  0  1.781326  0  0  -0.208362  -0.35485  0  1.847737  0
I  I63  1  0.02132151  0.73775914  0.00005474  1  0  -0.415606  0  1.431805  0  0  -0.361556  0  1.810659  0  0  -0.377301  0  1.781363  0  0  -0.208372  -0.354854  0  1.84777  0
O  O64  1  0.33336918  0.84632718  0.48485756  1  0  -0.310995  0  2.24264  0  0  -0.234974  0  2.491852  0  0  -0.250814  0  2.493748  0  0  -0.233224  -0.223964  0  2.489851  0
O  O65  1  0.18158889  0.15317345  0.48503310  1  0  -0.311266  0  2.242133  0  0  -0.235282  0  2.491619  0  0  -0.251256  0  2.493612  0  0  -0.233826  -0.224787  0  2.490344  0
O  O66  1  0.66662223  0.15367173  0.51514647  1  0  -0.31114  0  2.242635  0  0  -0.235026  0  2.491831  0  0  -0.250865  0  2.493733  0  0  -0.233215  -0.224009  0  2.489823  0
O  O67  1  0.81841045  0.84682767  0.51496639  1  0  -0.311328  0  2.242191  0  0  -0.235336  0  2.491662  0  0  -0.251306  0  2.493665  0  0  -0.23388  -0.224831  0  2.49038  0
