# generated using pymatgen
data_CuH9C14SN6
_symmetry_space_group_name_H-M   'P 1'
_cell_length_a   5.71395288
_cell_length_b   5.71414377
_cell_length_c   20.69694850
_cell_angle_alpha   89.99889095
_cell_angle_beta   89.99819275
_cell_angle_gamma   101.02442527
_symmetry_Int_Tables_number   1
_chemical_formula_structural   CuH9C14SN6
_chemical_formula_sum   'Cu2 H18 C28 S2 N12'
_cell_volume   663.29188603
_cell_formula_units_Z   2
loop_
 _symmetry_equiv_pos_site_id
 _symmetry_equiv_pos_as_xyz
  1  'x, y, z'
loop_
 _atom_site_type_symbol
 _atom_site_label
 _atom_site_symmetry_multiplicity
 _atom_site_fract_x
 _atom_site_fract_y
 _atom_site_fract_z
 _atom_site_occupancy
 _atom_site_hle17_bader_spin_density
 _atom_site_hle17_ddec_charge
 _atom_site_hle17_ddec_spin_density
 _atom_site_hle17_ddec_sum_bond_order
 _atom_site_hle17_magmom
 _atom_site_hse06_10hf_bader_charge
 _atom_site_hse06_10hf_bader_spin_density
 _atom_site_hse06_10hf_ddec_charge
 _atom_site_hse06_10hf_ddec_spin_density
 _atom_site_hse06_10hf_ddec_sum_bond_order
 _atom_site_hse06_10hf_magmom
 _atom_site_hse06_bader_spin_density
 _atom_site_hse06_ddec_charge
 _atom_site_hse06_ddec_spin_density
 _atom_site_hse06_ddec_sum_bond_order
 _atom_site_hse06_magmom
 _atom_site_pbe_bader_spin_density
 _atom_site_pbe_cm5_charge
 _atom_site_pbe_ddec_charge
 _atom_site_pbe_ddec_spin_density
 _atom_site_pbe_ddec_sum_bond_order
 _atom_site_pbe_magmom
Cu  Cu0  1  0.60807838  0.61452138  0.74999923  1  0  0.452903  0  2.208434  0  0.710651  0  0.354481  0  2.720984  0  0  0.330983  0  2.694179  0  0  0.55984  0.377368  0  2.732371  0
Cu  Cu1  1  0.61440300  0.60808336  0.24999603  1  0  0.453168  0  2.208522  0  0.710772  0  0.354669  0  2.721237  0  0  0.331209  0  2.694447  0  0  0.55995  0.377569  0  2.732665  0
H  H2  1  0.97678003  0.94343063  0.68846167  1  0  0.0723  0  0.9732  0  0.126539  0  0.078597  0  1.04381  0  0  0.081392  0  1.042156  0  0  0.105195  0.076347  0  1.045286  0
H  H3  1  0.94341237  0.97666720  0.31152168  1  0  0.072171  0  0.973322  0  0.124187  0  0.078505  0  1.043903  0  0  0.08129  0  1.042274  0  0  0.105265  0.076301  0  1.045334  0
H  H4  1  0.94340745  0.97670322  0.18846393  1  0  0.07215  0  0.973421  0  0.12653  0  0.078456  0  1.044013  0  0  0.081243  0  1.042376  0  0  0.105261  0.076237  0  1.045457  0
H  H5  1  0.97676286  0.94345340  0.81153392  1  0  0.072414  0  0.973178  0  0.124402  0  0.078562  0  1.043937  0  0  0.081351  0  1.042297  0  0  0.105237  0.076347  0  1.045378  0
H  H6  1  0.31268123  0.93870580  0.61185526  1  0  0.11329  0  0.954266  0  0.120474  0  0.119466  0  1.021618  0  0  0.123093  0  1.019302  0  0  0.109122  0.116851  0  1.023546  0
H  H7  1  0.93873202  0.31256986  0.38813064  1  0  0.113409  0  0.95411  0  0.120412  0  0.119468  0  1.021621  0  0  0.123091  0  1.019313  0  0  0.109102  0.116875  0  1.023529  0
H  H8  1  0.93871422  0.31262946  0.11186189  1  0  0.113338  0  0.954295  0  0.120628  0  0.119351  0  1.02191  0  0  0.12298  0  1.019589  0  0  0.10907  0.116743  0  1.02383  0
H  H9  1  0.31265418  0.93876020  0.88813850  1  0  0.1133  0  0.954022  0  0.1203  0  0.119405  0  1.021502  0  0  0.123032  0  1.019183  0  0  0.109085  0.116795  0  1.023427  0
H  H10  1  0.99619043  0.21135529  0.56610262  1  0  0.105048  0  0.961185  0  0.10517  0  0.1126  0  1.02947  0  0  0.115362  0  1.028087  0  0  0.105998  0.110764  0  1.030474  0
H  H11  1  0.21134701  0.99619855  0.43389806  1  0  0.104922  0  0.961313  0  0.105187  0  0.112465  0  1.029623  0  0  0.115229  0  1.028237  0  0  0.105939  0.110632  0  1.030632  0
H  H12  1  0.21135092  0.99622099  0.06610664  1  0  0.104985  0  0.961498  0  0.104925  0  0.112567  0  1.029735  0  0  0.11533  0  1.028351  0  0  0.105996  0.110732  0  1.030737  0
H  H13  1  0.99618640  0.21140593  0.93390902  1  0  0.105018  0  0.96116  0  0.105487  0  0.112694  0  1.029292  0  0  0.115456  0  1.027908  0  0  0.106047  0.110858  0  1.030301  0
H  H14  1  0.67828327  0.23900451  0.64709587  1  0  0.080829  0  0.949571  0  0.107798  0  0.089806  0  1.013971  0  0  0.092216  0  1.012154  0  0  0.112573  0.087941  0  1.015427  0
H  H15  1  0.23894204  0.67829526  0.35289564  1  0  0.080898  0  0.949622  0  0.108139  0  0.089912  0  1.013971  0  0  0.092327  0  1.012151  0  0  0.11251  0.088039  0  1.015436  0
H  H16  1  0.23894651  0.67833278  0.14710830  1  0  0.080984  0  0.949443  0  0.108373  0  0.089916  0  1.013866  0  0  0.092325  0  1.012049  0  0  0.112562  0.088049  0  1.015322  0
H  H17  1  0.67830500  0.23903120  0.85290834  1  0  0.080798  0  0.949602  0  0.108063  0  0.089752  0  1.014011  0  0  0.092159  0  1.012195  0  0  0.112535  0.087887  0  1.015469  0
H  H18  1  0.89459148  0.89441138  0.50000443  1  0  0.050547  0  0.926352  0  0.070035  0  0.059543  0  0.992601  0  0  0.061744  0  0.989378  0  0  0.120542  0.057804  0  0.995005  0
H  H19  1  0.89452554  0.89452200  0.00000802  1  0  0.05038  0  0.926822  0  0.069662  0  0.059423  0  0.992995  0  0  0.061615  0  0.989786  0  0  0.120668  0.057689  0  0.995388  0
C  C20  1  0.41944285  0.08694226  0.75000150  1  0  0.251735  0  4.033347  0  0.560673  0  0.24598  0  4.327562  0  0  0.259923  0  4.345279  0  0  0.132954  0.237177  0  4.314171  0
C  C21  1  0.08683338  0.41950932  0.24999566  1  0  0.252556  0  4.032804  0  0.565132  0  0.246814  0  4.327024  0  0  0.260757  0  4.344727  0  0  0.133561  0.23801  0  4.313649  0
C  C22  1  0.98789470  0.78315983  0.66091673  1  0  0.122568  0  3.677143  0  0.456575  0  0.09543  0  3.925797  0  0  0.10094  0  3.93983  0  0  0.039105  0.091642  0  3.917446  0
C  C23  1  0.78313299  0.98781970  0.33906761  1  0  0.122804  0  3.677144  0  0.457396  0  0.095565  0  3.925909  0  0  0.101088  0  3.939936  0  0  0.039056  0.091743  0  3.917547  0
C  C24  1  0.78312896  0.98783769  0.16092493  1  0  0.122806  0  3.677322  0  0.456956  0  0.095702  0  3.926016  0  0  0.101232  0  3.940048  0  0  0.039111  0.091883  0  3.917664  0
C  C25  1  0.98790042  0.78320601  0.83907633  1  0  0.122539  0  3.676678  0  0.4567  0  0.095549  0  3.925312  0  0  0.101053  0  3.939332  0  0  0.039104  0.091756  0  3.916969  0
C  C26  1  0.17351261  0.78147501  0.61794407  1  0  -0.119019  0  3.697227  0  -0.001133  0  -0.141306  0  3.948979  0  0  -0.145277  0  3.966693  0  0  -0.07471  -0.139165  0  3.937381  0
C  C27  1  0.78147837  0.17344189  0.38204961  1  0  -0.119549  0  3.697056  0  -0.000456  0  -0.141625  0  3.948841  0  0  -0.145593  0  3.966557  0  0  -0.074803  -0.139491  0  3.937234  0
C  C28  1  0.78147816  0.17348652  0.11794594  1  0  -0.119117  0  3.696742  0  -0.00204  0  -0.141286  0  3.948519  0  0  -0.14525  0  3.966215  0  0  -0.074686  -0.139157  0  3.936933  0
C  C29  1  0.17349271  0.78150878  0.88205160  1  0  -0.119004  0  3.697296  0  -0.001552  0  -0.141203  0  3.94904  0  0  -0.145164  0  3.966753  0  0  -0.07471  -0.139063  0  3.937428  0
C  C30  1  0.18220741  0.57358803  0.58281066  1  0  0.018678  0  3.743821  0  -0.018312  0  0.02921  0  3.977867  0  0  0.029982  0  3.997058  0  0  0.005844  0.029198  0  3.964745  0
C  C31  1  0.57362580  0.18213452  0.41719304  1  0  0.018941  0  3.743585  0  -0.016656  0  0.02926  0  3.977937  0  0  0.030019  0  3.997153  0  0  0.005698  0.029229  0  3.964831  0
C  C32  1  0.57360578  0.18219589  0.08280462  1  0  0.018813  0  3.743354  0  -0.017362  0  0.029252  0  3.9776  0  0  0.030025  0  3.996794  0  0  0.005814  0.029232  0  3.964488  0
C  C33  1  0.18221040  0.57366746  0.91719329  1  0  0.018911  0  3.744092  0  -0.017233  0  0.029285  0  3.978336  0  0  0.03004  0  3.997538  0  0  0.005877  0.029276  0  3.965207  0
C  C34  1  0.99803459  0.37612027  0.59252945  1  0  -0.121955  0  3.705363  0  -0.046195  0  -0.144063  0  3.956472  0  0  -0.149792  0  3.978711  0  0  -0.078507  -0.140448  0  3.941295  0
C  C35  1  0.37610622  0.99800372  0.40747157  1  0  -0.121789  0  3.705399  0  -0.047389  0  -0.143843  0  3.956636  0  0  -0.149568  0  3.978877  0  0  -0.078385  -0.140236  0  3.941469  0
C  C36  1  0.37608362  0.99801934  0.09252514  1  0  -0.121904  0  3.705467  0  -0.046464  0  -0.144022  0  3.956584  0  0  -0.149747  0  3.978811  0  0  -0.078584  -0.140412  0  3.941411  0
C  C37  1  0.99804718  0.37619020  0.90747539  1  0  -0.122139  0  3.705365  0  -0.045472  0  -0.144334  0  3.956561  0  0  -0.150042  0  3.978766  0  0  -0.078608  -0.140726  0  3.941381  0
C  C38  1  0.82052654  0.39127392  0.63736207  1  0  0.114122  0  3.692673  0  0.506937  0  0.084741  0  3.948523  0  0  0.089497  0  3.964429  0  0  0.037945  0.081716  0  3.938181  0
C  C39  1  0.39119843  0.82051742  0.36263665  1  0  0.114023  0  3.692369  0  0.506053  0  0.084664  0  3.948145  0  0  0.08942  0  3.964062  0  0  0.037954  0.081651  0  3.937798  0
C  C40  1  0.39121143  0.82054901  0.13736045  1  0  0.113906  0  3.692656  0  0.506191  0  0.084691  0  3.948415  0  0  0.089454  0  3.96434  0  0  0.037935  0.081668  0  3.938073  0
C  C41  1  0.82054024  0.39128158  0.86263924  1  0  0.114274  0  3.691911  0  0.504959  0  0.084983  0  3.947713  0  0  0.089733  0  3.963615  0  0  0.03795  0.08198  0  3.937385  0
C  C42  1  0.38237705  0.56825753  0.53818519  1  0  0.403357  0  3.734648  0  1.074646  0  0.385833  0  3.992211  0  0  0.404615  0  3.999942  0  0  0.258501  0.372644  0  3.987795  0
C  C43  1  0.56832659  0.38226487  0.46181867  1  0  0.403409  0  3.735004  0  1.07286  0  0.385808  0  3.992767  0  0  0.404597  0  4.000492  0  0  0.258606  0.37266  0  3.988273  0
C  C44  1  0.56830444  0.38232990  0.03818617  1  0  0.403101  0  3.734591  0  1.073798  0  0.385524  0  3.992282  0  0  0.404302  0  4.000019  0  0  0.258438  0.372356  0  3.987829  0
C  C45  1  0.38233520  0.56834392  0.96181913  1  0  0.402954  0  3.734741  0  1.074055  0  0.385517  0  3.992258  0  0  0.40431  0  3.999976  0  0  0.258437  0.372354  0  3.987783  0
C  C46  1  0.74413049  0.74396865  0.50000544  1  0  0.327261  0  3.773986  0  1.1549  0  0.279937  0  4.060296  0  0  0.295341  0  4.070982  0  0  0.186345  0.269805  0  4.053553  0
C  C47  1  0.74408415  0.74408108  0.00000758  1  0  0.327132  0  3.774931  0  1.155308  0  0.27975  0  4.06127  0  0  0.295154  0  4.071967  0  0  0.186208  0.269614  0  4.054522  0
S  S48  1  0.28082714  0.31197306  0.75000477  1  0  -0.335308  0  2.425614  0  0.044205  0  -0.313164  0  2.812332  0  0  -0.324576  0  2.807093  0  0  -0.171785  -0.304126  0  2.813286  0
S  S49  1  0.31188850  0.28089181  0.24999858  1  0  -0.335536  0  2.425513  0  0.041619  0  -0.313337  0  2.812198  0  0  -0.324758  0  2.806967  0  0  -0.171872  -0.304319  0  2.81319  0
N  N50  1  0.51488369  0.92014291  0.74999973  1  0  -0.512753  0  3.114655  0  -1.33849  0  -0.470397  0  3.448529  0  0  -0.478151  0  3.450594  0  0  -0.439161  -0.465402  0  3.444898  0
N  N51  1  0.92008824  0.51496868  0.24999557  1  0  -0.513455  0  3.11437  0  -1.340454  0  -0.4711  0  3.448243  0  0  -0.47884  0  3.450276  0  0  -0.439716  -0.466124  0  3.444655  0
N  N52  1  0.81491538  0.59052390  0.67203260  1  0  -0.274959  0  3.330469  0  -1.227223  0  -0.210393  0  3.627508  0  0  -0.213637  0  3.631745  0  0  -0.353546  -0.209653  0  3.624827  0
N  N53  1  0.59047198  0.81490342  0.32795033  1  0  -0.274989  0  3.330525  0  -1.227428  0  -0.210448  0  3.627668  0  0  -0.213713  0  3.631934  0  0  -0.353468  -0.20972  0  3.625017  0
N  N54  1  0.59048371  0.81493612  0.17203797  1  0  -0.27503  0  3.330981  0  -1.227342  0  -0.210598  0  3.628087  0  0  -0.213886  0  3.632384  0  0  -0.353527  -0.209862  0  3.625429  0
N  N55  1  0.81493374  0.59054828  0.82795752  1  0  -0.275126  0  3.329591  0  -1.226622  0  -0.210607  0  3.626624  0  0  -0.21383  0  3.630831  0  0  -0.353523  -0.209934  0  3.624015  0
N  N56  1  0.37647158  0.37639404  0.50000307  1  0  -0.438759  0  2.934004  0  -1.203383  0  -0.406074  0  3.193586  0  0  -0.421581  0  3.200662  0  0  -0.301068  -0.396268  0  3.189797  0
N  N57  1  0.37644398  0.37647620  0.00000424  1  0  -0.438597  0  2.933919  0  -1.202556  0  -0.405962  0  3.193469  0  0  -0.421476  0  3.200549  0  0  -0.300997  -0.39616  0  3.189674  0
N  N58  1  0.56212699  0.76040502  0.53893432  1  0  -0.412099  0  2.97901  0  -1.202839  0  -0.375089  0  3.243766  0  0  -0.390251  0  3.254564  0  0  -0.311398  -0.366027  0  3.23748  0
N  N59  1  0.76052502  0.56197777  0.46107139  1  0  -0.41212  0  2.978742  0  -1.203286  0  -0.374915  0  3.243351  0  0  -0.390077  0  3.254143  0  0  -0.311299  -0.365866  0  3.237058  0
N  N60  1  0.76049735  0.56206943  0.03893042  1  0  -0.411853  0  2.978536  0  -1.203318  0  -0.374712  0  3.243264  0  0  -0.389875  0  3.254065  0  0  -0.311315  -0.365655  0  3.23697  0
N  N61  1  0.56207709  0.76050397  0.96108012  1  0  -0.411684  0  2.978831  0  -1.203492  0  -0.374658  0  3.243592  0  0  -0.389821  0  3.254387  0  0  -0.31127  -0.365609  0  3.237301  0
