# generated using pymatgen
data_ZnH18C22N6O7
_symmetry_space_group_name_H-M   'P 1'
_cell_length_a   8.63254639
_cell_length_b   9.99293738
_cell_length_c   12.86860000
_cell_angle_alpha   94.69714431
_cell_angle_beta   101.51064122
_cell_angle_gamma   92.51714191
_symmetry_Int_Tables_number   1
_chemical_formula_structural   ZnH18C22N6O7
_chemical_formula_sum   'Zn2 H36 C44 N12 O14'
_cell_volume   1082.05742676
_cell_formula_units_Z   2
loop_
 _symmetry_equiv_pos_site_id
 _symmetry_equiv_pos_as_xyz
  1  'x, y, z'
loop_
 _atom_site_type_symbol
 _atom_site_label
 _atom_site_symmetry_multiplicity
 _atom_site_fract_x
 _atom_site_fract_y
 _atom_site_fract_z
 _atom_site_occupancy
 _atom_site_hle17_bader_spin_density
 _atom_site_hle17_ddec_charge
 _atom_site_hle17_ddec_spin_density
 _atom_site_hle17_ddec_sum_bond_order
 _atom_site_hle17_magmom
 _atom_site_hse06_10hf_bader_spin_density
 _atom_site_hse06_10hf_ddec_charge
 _atom_site_hse06_10hf_ddec_spin_density
 _atom_site_hse06_10hf_ddec_sum_bond_order
 _atom_site_hse06_10hf_magmom
 _atom_site_hse06_bader_spin_density
 _atom_site_hse06_ddec_charge
 _atom_site_hse06_ddec_spin_density
 _atom_site_hse06_ddec_sum_bond_order
 _atom_site_hse06_magmom
 _atom_site_pbe_bader_charge
 _atom_site_pbe_bader_spin_density
 _atom_site_pbe_cm5_charge
 _atom_site_pbe_ddec_charge
 _atom_site_pbe_ddec_spin_density
 _atom_site_pbe_ddec_sum_bond_order
 _atom_site_pbe_magmom
Zn  Zn0  1  0.38032223  0.24040887  0.37831553  1  0  1.005344  0  1.864979  0  0  0.818599  0  2.336791  0  0  0.866745  0  2.282279  0  1.268327  0  0.695046  0.78452  0  2.374689  0
Zn  Zn1  1  0.61967663  0.75959127  0.62168386  1  0  1.005358  0  1.864983  0  0  0.818607  0  2.336792  0  0  0.866731  0  2.282275  0  1.268301  0  0.695056  0.784523  0  2.374688  0
H  H2  1  0.19266130  0.59525178  0.54513494  1  0  0.096631  0  0.956123  0  0  0.104217  0  1.022102  0  0  0.107193  0  1.021016  0  0.09855  0  0.100036  0.102201  0  1.022763  0
H  H3  1  0.80733741  0.40474635  0.45486275  1  0  0.096642  0  0.956137  0  0  0.104199  0  1.022145  0  0  0.107174  0  1.021064  0  0.098617  0  0.100037  0.102184  0  1.022806  0
H  H4  1  0.06236388  0.72054153  0.67890414  1  0  0.092921  0  0.958334  0  0  0.10444  0  1.020672  0  0  0.106928  0  1.020232  0  0.070174  0  0.099523  0.102431  0  1.021701  0
H  H5  1  0.93763616  0.27945861  0.32109385  1  0  0.0929  0  0.958349  0  0  0.104433  0  1.020668  0  0  0.106922  0  1.020227  0  0.070174  0  0.099511  0.102423  0  1.021698  0
H  H6  1  0.02936138  0.35957109  0.83532546  1  0  0.083677  0  0.992945  0  0  0.09324  0  1.058307  0  0  0.09459  0  1.06016  0  0.073067  0  0.093093  0.092231  0  1.057095  0
H  H7  1  0.97064117  0.64043106  0.16467610  1  0  0.083731  0  0.992967  0  0  0.093315  0  1.058288  0  0  0.094664  0  1.060142  0  0.072972  0  0.09313  0.092305  0  1.057079  0
H  H8  1  0.16464018  0.23767759  0.70476952  1  0  0.094399  0  0.962638  0  0  0.10251  0  1.030141  0  0  0.10557  0  1.027865  0  0.109755  0  0.099909  0.10023  0  1.031921  0
H  H9  1  0.83536097  0.76232154  0.29523166  1  0  0.09442  0  0.962636  0  0  0.102536  0  1.030121  0  0  0.105596  0  1.027847  0  0.109783  0  0.099934  0.100257  0  1.031901  0
H  H10  1  0.89049220  0.69827381  0.81136469  1  0  0.065997  0  0.96506  0  0  0.076401  0  1.035388  0  0  0.076753  0  1.0354  0  0.087577  0  0.101154  0.076245  0  1.034996  0
H  H11  1  0.10951035  0.30172834  0.18863532  1  0  0.066014  0  0.965048  0  0  0.076416  0  1.035384  0  0  0.076768  0  1.035396  0  0.087564  0  0.101163  0.076259  0  1.034993  0
H  H12  1  0.89748627  0.55226256  0.88477561  1  0  0.059953  0  0.923546  0  0  0.073104  0  0.985904  0  0  0.074097  0  0.984588  0  0.057963  0  0.09981  0.072562  0  0.986283  0
H  H13  1  0.10251495  0.44773758  0.11522332  1  0  0.059958  0  0.923537  0  0  0.073111  0  0.985894  0  0  0.074104  0  0.984578  0  0.057943  0  0.099793  0.072568  0  0.986273  0
H  H14  1  0.78863932  0.73147670  0.95296798  1  0  0.107811  0  0.981047  0  0  0.11313  0  1.054251  0  0  0.11705  0  1.051642  0  0.075046  0  0.104477  0.1097  0  1.057124  0
H  H15  1  0.21136065  0.26852243  0.04703072  1  0  0.107794  0  0.981039  0  0  0.113133  0  1.054224  0  0  0.117038  0  1.051634  0  0.075058  0  0.10447  0.109701  0  1.0571  0
H  H16  1  0.93199159  0.03813932  0.21226403  1  0  0.105365  0  0.962269  0  0  0.111425  0  1.033283  0  0  0.115602  0  1.029581  0  0.075075  0  0.104959  0.108036  0  1.036656  0
H  H17  1  0.06800837  0.96185982  0.78773622  1  0  0.105348  0  0.962285  0  0  0.111417  0  1.033285  0  0  0.115582  0  1.029595  0  0.075018  0  0.104935  0.108029  0  1.036657  0
H  H18  1  0.28667413  0.84176303  0.07302386  1  0  0.128772  0  0.947387  0  0  0.130777  0  1.02124  0  0  0.136257  0  1.015614  0  0.14663  0  0.109517  0.127779  0  1.022979  0
H  H19  1  0.71332590  0.15823712  0.92697646  1  0  0.128759  0  0.947317  0  0  0.130763  0  1.021172  0  0  0.136243  0  1.015545  0  0.14664  0  0.10951  0.127763  0  1.022914  0
H  H20  1  0.55560357  0.25634284  0.15859953  1  0  0.128639  0  0.921267  0  0  0.136374  0  0.98512  0  0  0.139435  0  0.981144  0  0.213108  0  0.149804  0.13401  0  0.987999  0
H  H21  1  0.44439654  0.74365831  0.84140164  1  0  0.128645  0  0.921247  0  0  0.136386  0  0.985093  0  0  0.139451  0  0.981115  0  0.213091  0  0.149797  0.134025  0  0.987971  0
H  H22  1  0.59585725  0.22323250  0.61842402  1  0  0.108075  0  0.922399  0  0  0.118476  0  0.978711  0  0  0.120453  0  0.976946  0  0.154896  0  0.142439  0.116783  0  0.980347  0
H  H23  1  0.40414035  0.77676664  0.38157669  1  0  0.108106  0  0.922369  0  0  0.1185  0  0.978682  0  0  0.120481  0  0.97692  0  0.154904  0  0.142453  0.116807  0  0.980318  0
H  H24  1  0.63663886  0.40550084  0.02582292  1  0  0.10684  0  0.925364  0  0  0.116327  0  0.995019  0  0  0.118064  0  0.993344  0  0.116055  0  0.123254  0.115048  0  0.995971  0
H  H25  1  0.36336236  0.59449930  0.97417757  1  0  0.106881  0  0.92536  0  0  0.116353  0  0.99502  0  0  0.11809  0  0.993344  0  0.115892  0  0.123251  0.115075  0  0.995974  0
H  H26  1  0.64763175  0.58257724  0.06460491  1  0  0.093374  0  0.934468  0  0  0.104378  0  1.004837  0  0  0.104634  0  1.005558  0  0.104975  0  0.115867  0.103944  0  1.004605  0
H  H27  1  0.35236836  0.41742391  0.93539626  1  0  0.093398  0  0.934465  0  0  0.104358  0  1.004883  0  0  0.104615  0  1.005604  0  0.104979  0  0.115866  0.103928  0  1.004649  0
H  H28  1  0.67452050  0.07592653  0.31857208  1  0  0.117311  0  0.967292  0  0  0.123807  0  1.035676  0  0  0.127139  0  1.031131  0  0.203881  0  0.144244  0.121075  0  1.039289  0
H  H29  1  0.32548086  0.92407562  0.68142855  1  0  0.117329  0  0.967236  0  0  0.123799  0  1.035653  0  0  0.12713  0  1.031107  0  0.203869  0  0.144251  0.121069  0  1.039266  0
H  H30  1  0.05410573  0.12695366  0.45490584  1  0  0.100411  0  0.948121  0  0  0.112843  0  1.012542  0  0  0.113509  0  1.012695  0  0.122113  0  0.117455  0.112108  0  1.012897  0
H  H31  1  0.94589313  0.87304648  0.54509433  1  0  0.100401  0  0.94811  0  0  0.112818  0  1.012537  0  0  0.113486  0  1.012689  0  0.122112  0  0.117455  0.112084  0  1.012892  0
H  H32  1  0.94039845  0.98580152  0.37889546  1  0  0.095104  0  0.929795  0  0  0.107097  0  1.000468  0  0  0.107696  0  0.99974  0  0.077701  0  0.123298  0.106694  0  1.001207  0
H  H33  1  0.05960048  0.01419963  0.62110478  1  0  0.095085  0  0.929796  0  0  0.107062  0  1.000469  0  0  0.107662  0  0.999742  0  0.077688  0  0.123286  0.10666  0  1.001209  0
H  H34  1  0.34223115  0.54466025  0.33154784  1  0  0.104356  0  0.931988  0  0  0.113523  0  0.992754  0  0  0.115908  0  0.990456  0  0.161003  0  0.139575  0.112232  0  0.993304  0
H  H35  1  0.65776889  0.45533989  0.66845326  1  0  0.104327  0  0.931987  0  0  0.11348  0  0.992771  0  0  0.115863  0  0.990474  0  0.161018  0  0.139554  0.112197  0  0.993312  0
H  H36  1  0.53108027  0.99110311  0.16280879  1  0  0.420418  0  0.865511  0  0  0.38833  0  0.94709  0  0  0.401193  0  0.928909  0  0.68243  0  0.309628  0.379315  0  0.957882  0
H  H37  1  0.46891977  0.00889703  0.83719153  1  0  0.420416  0  0.865505  0  0  0.388328  0  0.947083  0  0  0.401193  0  0.928904  0  0.682428  0  0.30964  0.379312  0  0.957876  0
C  C38  1  0.26489506  0.33197562  0.54105602  1  0  0.620183  0  3.940425  0  0  0.575036  0  4.225316  0  0  0.608754  0  4.219031  0  1.535094  0  0.19256  0.552444  0  4.228061  0
C  C39  1  0.73510498  0.66802452  0.45894275  1  0  0.620161  0  3.940532  0  0  0.575027  0  4.225414  0  0  0.608745  0  4.21913  0  1.535494  0  0.192546  0.552437  0  4.228158  0
C  C40  1  0.18849800  0.40997551  0.61886050  1  0  -0.066074  0  3.764309  0  0  -0.041034  0  3.992576  0  0  -0.04977  0  4.01642  0  0.011568  0  -0.02064  -0.035818  0  3.976607  0
C  C41  1  0.81150071  0.59002262  0.38113796  1  0  -0.065973  0  3.764213  0  0  -0.040938  0  3.992455  0  0  -0.049671  0  4.016298  0  0.011043  0  -0.020647  -0.035723  0  3.976488  0
C  C42  1  0.15908683  0.54602036  0.61052490  1  0  -0.06099  0  3.736132  0  0  -0.086431  0  3.989156  0  0  -0.085789  0  4.01046  0  -0.05343  0  -0.085656  -0.086567  0  3.974613  0
C  C43  1  0.84091070  0.45397777  0.38947263  1  0  -0.061115  0  3.736221  0  0  -0.086531  0  3.989261  0  0  -0.085891  0  4.010564  0  -0.053464  0  -0.085698  -0.086669  0  3.974719  0
C  C44  1  0.08699365  0.61495019  0.68466245  1  0  -0.113823  0  3.731824  0  0  -0.134781  0  3.983757  0  0  -0.138932  0  4.005451  0  -0.018621  0  -0.092539  -0.132155  0  3.968678  0
C  C45  1  0.91300513  0.38504895  0.31533609  1  0  -0.113742  0  3.731884  0  0  -0.134716  0  3.983792  0  0  -0.138864  0  4.00548  0  -0.018626  0  -0.0925  -0.132089  0  3.968713  0
C  C46  1  0.04191994  0.54858162  0.76683261  1  0  0.06742  0  3.764759  0  0  0.086346  0  4.001653  0  0  0.087206  0  4.024318  0  -0.049905  0  -0.015777  0.086289  0  3.984167  0
C  C47  1  0.95807899  0.45141952  0.23316763  1  0  0.067527  0  3.76463  0  0  0.08647  0  4.001501  0  0  0.087332  0  4.024166  0  -0.049572  0  -0.015726  0.086413  0  3.984013  0
C  C48  1  0.06787381  0.41207301  0.77307201  1  0  -0.121563  0  3.756915  0  0  -0.138728  0  4.001844  0  0  -0.14321  0  4.024865  0  -0.048942  0  -0.093982  -0.135495  0  3.985055  0
C  C49  1  0.93212630  0.58792813  0.22692838  1  0  -0.121636  0  3.756961  0  0  -0.13883  0  4.001886  0  0  -0.143314  0  4.024909  0  -0.048862  0  -0.094012  -0.135597  0  3.985095  0
C  C50  1  0.14193920  0.34347315  0.70022111  1  0  -0.056173  0  3.749018  0  0  -0.085463  0  4.003194  0  0  -0.084129  0  4.022926  0  -0.074669  0  -0.085939  -0.085422  0  3.989166  0
C  C51  1  0.85805958  0.65652599  0.29977898  1  0  -0.056221  0  3.749061  0  0  -0.085506  0  4.00323  0  0  -0.084169  0  4.022957  0  -0.074222  0  -0.085956  -0.085465  0  3.989204  0
C  C52  1  0.96734167  0.62267724  0.84790257  1  0  0.042807  0  3.639968  0  0  -0.02052  0  3.90114  0  0  -0.012124  0  3.904255  0  0.352239  0  -0.067523  -0.025557  0  3.897207  0
C  C53  1  0.03265962  0.37732390  0.15209799  1  0  0.042696  0  3.639932  0  0  -0.020651  0  3.901117  0  0  -0.012261  0  3.904233  0  0.351984  0  -0.067555  -0.025686  0  3.89718  0
C  C54  1  0.04327125  0.77610771  0.00400329  1  0  0.264286  0  3.81634  0  0  0.261545  0  4.074862  0  0  0.270692  0  4.090416  0  0.428613  0  0.082972  0.25437  0  4.06456  0
C  C55  1  0.95673108  0.22389142  0.99599650  1  0  0.264312  0  3.816255  0  0  0.26156  0  4.074775  0  0  0.270702  0  4.090329  0  0.428654  0  0.083009  0.254385  0  4.064472  0
C  C56  1  0.88408263  0.78966451  0.00828546  1  0  -0.199007  0  3.732746  0  0  -0.234396  0  3.985233  0  0  -0.23633  0  4.003472  0  0.026956  0  -0.098972  -0.232074  0  3.973905  0
C  C57  1  0.11591733  0.21033462  0.99171401  1  0  -0.199015  0  3.732787  0  0  -0.234421  0  3.985259  0  0  -0.236342  0  4.003516  0  0.026921  0  -0.099001  -0.232099  0  3.973931  0
C  C58  1  0.67296814  0.89411606  0.08679850  1  0  0.656508  0  3.810952  0  0  0.609952  0  4.102066  0  0  0.642504  0  4.09364  0  1.524514  0  0.232728  0.588523  0  4.106164  0
C  C59  1  0.32703190  0.10588408  0.91320027  1  0  0.656375  0  3.81112  0  0  0.609819  0  4.10223  0  0  0.642375  0  4.093806  0  1.524503  0  0.232663  0.588391  0  4.106326  0
C  C60  1  0.84388632  0.88284589  0.08458888  1  0  -0.059073  0  3.802853  0  0  -0.032375  0  4.035558  0  0  -0.040608  0  4.060001  0  -0.028434  0  -0.019537  -0.027447  0  4.019717  0
C  C61  1  0.15611608  0.11715426  0.91541254  1  0  -0.059076  0  3.802701  0  0  -0.032369  0  4.03539  0  0  -0.040603  0  4.059828  0  -0.028431  0  -0.01957  -0.027441  0  4.019549  0
C  C62  1  0.96210035  0.96221393  0.15554967  1  0  -0.078228  0  3.695323  0  0  -0.1221  0  3.95344  0  0  -0.120025  0  3.972175  0  -0.013861  0  -0.084931  -0.124994  0  3.943282  0
C  C63  1  0.03789954  0.03778420  0.84444973  1  0  -0.078196  0  3.695046  0  0  -0.122044  0  3.953161  0  0  -0.119964  0  3.971918  0  -0.013789  0  -0.084832  -0.124939  0  3.943006  0
C  C64  1  0.12170371  0.94715719  0.15188816  1  0  -0.046066  0  3.764507  0  0  -0.019726  0  3.999413  0  0  -0.027258  0  4.022441  0  -0.023774  0  -0.015116  -0.015595  0  3.985276  0
C  C65  1  0.87829515  0.05284295  0.84811201  1  0  -0.046106  0  3.76452  0  0  -0.019838  0  3.999525  0  0  -0.027374  0  4.022552  0  -0.023802  0  -0.015208  -0.015707  0  3.985389  0
C  C66  1  0.16286507  0.85331387  0.07715296  1  0  -0.14799  0  3.651751  0  0  -0.183983  0  3.903344  0  0  -0.184157  0  3.918332  0  0.015522  0  -0.080703  -0.181553  0  3.890208  0
C  C67  1  0.83713608  0.14668526  0.92284668  1  0  -0.14793  0  3.651673  0  0  -0.183891  0  3.903272  0  0  -0.184063  0  3.918261  0  0.015483  0  -0.080652  -0.181461  0  3.890138  0
C  C68  1  0.24733168  0.03811115  0.22467527  1  0  0.656906  0  3.884915  0  0  0.604097  0  4.177234  0  0  0.638238  0  4.170041  0  1.545681  0  0.212832  0.580809  0  4.181901  0
C  C69  1  0.75266947  0.96188799  0.77532514  1  0  0.656972  0  3.885002  0  0  0.604168  0  4.177331  0  0  0.638311  0  4.170139  0  1.545674  0  0.212882  0.58088  0  4.181999  0
C  C70  1  0.50995177  0.34842164  0.18754271  1  0  0.186639  0  3.611407  0  0  0.105987  0  3.878299  0  0  0.120259  0  3.890197  0  0.982813  0  0.17292  0.097006  0  3.869747  0
C  C71  1  0.49004827  0.65157850  0.81245762  1  0  0.186592  0  3.611475  0  0  0.105939  0  3.878348  0  0  0.120205  0  3.890249  0  0.982783  0  0.172902  0.096955  0  3.869796  0
C  C72  1  0.65433662  0.18403588  0.55624733  1  0  0.205003  0  3.677456  0  0  0.152326  0  3.963751  0  0  0.163681  0  3.976594  0  0.975068  0  0.153172  0.144625  0  3.955526  0
C  C73  1  0.34566098  0.81596326  0.44375338  1  0  0.204983  0  3.677413  0  0  0.152315  0  3.963692  0  0  0.163661  0  3.976543  0  0.975102  0  0.153178  0.144615  0  3.955465  0
C  C74  1  0.56917513  0.49080124  0.04583656  1  0  -0.033928  0  3.604882  0  0  -0.114482  0  3.870352  0  0  -0.111332  0  3.880477  0  0.285804  0  -0.043068  -0.116183  0  3.863324  0
C  C75  1  0.43082499  0.50919990  0.95416384  1  0  -0.033936  0  3.604931  0  0  -0.1145  0  3.870495  0  0  -0.111348  0  3.880618  0  0.315085  0  -0.043081  -0.116193  0  3.863446  0
C  C76  1  0.68880514  0.10914351  0.40239696  1  0  0.186755  0  3.616167  0  0  0.106314  0  3.877698  0  0  0.120462  0  3.888587  0  0.993328  0  0.172236  0.097031  0  3.870601  0
C  C77  1  0.31119497  0.89085764  0.59760344  1  0  0.186727  0  3.61604  0  0  0.106304  0  3.877636  0  0  0.120453  0  3.888522  0  0.993159  0  0.172215  0.097016  0  3.870543  0
C  C78  1  0.96708710  0.04438856  0.45666514  1  0  -0.028853  0  3.612515  0  0  -0.109919  0  3.874244  0  0  -0.106412  0  3.884113  0  0.350368  0  -0.041762  -0.112297  0  3.868205  0
C  C79  1  0.03291301  0.95561259  0.54333526  1  0  -0.028774  0  3.612448  0  0  -0.109766  0  3.874145  0  0  -0.106267  0  3.88403  0  0.323253  0  -0.041722  -0.112144  0  3.868106  0
C  C80  1  0.40138935  0.49856753  0.27215903  1  0  0.198433  0  3.706027  0  0  0.144983  0  3.997425  0  0  0.155504  0  4.011396  0  0.973616  0  0.148304  0.138816  0  3.986421  0
C  C81  1  0.59861076  0.50143361  0.72784137  1  0  0.19849  0  3.70605  0  0  0.14505  0  3.997442  0  0  0.155572  0  4.011413  0  0.97362  0  0.148305  0.138876  0  3.986438  0
N  N82  1  0.44122555  0.36731424  0.27154023  1  0  -0.419448  0  3.251295  0  0  -0.342389  0  3.558221  0  0  -0.364902  0  3.570289  0  -1.258112  0  -0.348808  -0.327517  0  3.549535  0
N  N83  1  0.55877449  0.63268590  0.72846087  1  0  -0.419427  0  3.251321  0  0  -0.342359  0  3.558238  0  0  -0.364867  0  3.570305  0  -1.25812  0  -0.348779  -0.327486  0  3.549554  0
N  N84  1  0.44100031  0.56090206  0.19345612  1  0  -0.263546  0  2.811944  0  0  -0.264855  0  3.071794  0  0  -0.272861  0  3.085923  0  -0.664778  0  -0.222097  -0.260256  0  3.062466  0
N  N85  1  0.55899973  0.43909809  0.80654420  1  0  -0.263582  0  2.811984  0  0  -0.264888  0  3.071827  0  0  -0.272894  0  3.085957  0  -0.664761  0  -0.222096  -0.26029  0  3.062504  0
N  N86  1  0.51056191  0.46382949  0.14078241  1  0  0.052556  0  3.545273  0  0  0.177762  0  3.725768  0  0  0.167712  0  3.749234  0  -0.814927  0  -0.127675  0.183273  0  3.711187  0
N  N87  1  0.48943938  0.53617166  0.85921893  1  0  0.052567  0  3.545321  0  0  0.177774  0  3.725809  0  0  0.167726  0  3.749272  0  -0.814909  0  -0.127654  0.183287  0  3.71123  0
N  N88  1  0.80108156  0.14446805  0.57430272  1  0  -0.246698  0  2.826359  0  0  -0.245511  0  3.087698  0  0  -0.2546  0  3.103253  0  -0.660379  0  -0.2099  -0.239656  0  3.077654  0
N  N89  1  0.19891730  0.85553209  0.42569822  1  0  -0.246761  0  2.826373  0  0  -0.245553  0  3.087716  0  0  -0.254642  0  3.103274  0  -0.660382  0  -0.209926  -0.239697  0  3.077672  0
N  N90  1  0.58119052  0.16540785  0.45090357  1  0  -0.409045  0  3.279801  0  0  -0.330301  0  3.592946  0  0  -0.352262  0  3.601598  0  -1.242561  0  -0.350735  -0.315537  0  3.587082  0
N  N91  1  0.41880952  0.83459229  0.54909676  1  0  -0.409055  0  3.279738  0  0  -0.330298  0  3.592864  0  0  -0.352253  0  3.60151  0  -1.242394  0  -0.350742  -0.315532  0  3.586998  0
N  N92  1  0.82003720  0.09723554  0.47548720  1  0  0.057843  0  3.552326  0  0  0.182537  0  3.732063  0  0  0.173781  0  3.753113  0  -0.821864  0  -0.126776  0.187881  0  3.718356  0
N  N93  1  0.17996283  0.90276460  0.52451313  1  0  0.057871  0  3.552213  0  0  0.182512  0  3.731989  0  0  0.173758  0  3.753037  0  -0.821872  0  -0.126786  0.187856  0  3.718282  0
O  O94  1  0.29138208  0.21012839  0.55178201  1  0  -0.628349  0  1.927343  0  0  -0.578876  0  2.157438  0  0  -0.602756  0  2.149196  0  -1.186933  0  -0.327575  -0.561972  0  2.162411  0
O  O95  1  0.70861552  0.78987074  0.44821715  1  0  -0.628318  0  1.927349  0  0  -0.578875  0  2.15746  0  0  -0.602754  0  2.149216  0  -1.186946  0  -0.327577  -0.561975  0  2.162434  0
O  O96  1  0.29943635  0.39239976  0.46259818  1  0  -0.642991  0  2.000577  0  0  -0.572266  0  2.25809  0  0  -0.600671  0  2.245668  0  -1.168544  0  -0.336248  -0.552233  0  2.265626  0
O  O97  1  0.70056258  0.60760139  0.53740129  1  0  -0.643018  0  2.000646  0  0  -0.572274  0  2.258148  0  0  -0.600679  0  2.24572  0  -1.16886  0  -0.336238  -0.552242  0  2.265684  0
O  O98  1  0.09237421  0.69125900  0.92987273  1  0  -0.285473  0  2.274767  0  0  -0.216501  0  2.505666  0  0  -0.234252  0  2.507678  0  -1.053633  0  -0.182035  -0.203899  0  2.503306  0
O  O99  1  0.90762694  0.30874013  0.07012690  1  0  -0.285465  0  2.274658  0  0  -0.216484  0  2.505563  0  0  -0.234223  0  2.507572  0  -1.053637  0  -0.182049  -0.203882  0  2.503201  0
O  O100  1  0.56576699  0.81998322  0.03007353  1  0  -0.5602  0  1.923355  0  0  -0.519809  0  2.143485  0  0  -0.53914  0  2.13509  0  -1.159545  0  -0.292845  -0.506669  0  2.148062  0
O  O101  1  0.43423312  0.18001793  0.96992687  1  0  -0.560137  0  1.923401  0  0  -0.519749  0  2.143527  0  0  -0.539077  0  2.135133  0  -1.159545  0  -0.2928  -0.506603  0  2.148094  0
O  O102  1  0.64705408  0.99219965  0.15742799  1  0  -0.567655  0  2.110094  0  0  -0.515038  0  2.331176  0  0  -0.536835  0  2.311962  0  -1.202182  0  -0.335881  -0.499056  0  2.341355  0
O  O103  1  0.35294588  0.00779949  0.84257226  1  0  -0.56763  0  2.110157  0  0  -0.515  0  2.331233  0  0  -0.536803  0  2.312023  0  -1.202193  0  -0.335891  -0.499021  0  2.341414  0
O  O104  1  0.39114355  0.03271499  0.21898997  1  0  -0.641515  0  2.005438  0  0  -0.584771  0  2.238889  0  0  -0.609839  0  2.227908  0  -1.187918  0  -0.31524  -0.568369  0  2.24655  0
O  O105  1  0.60885760  0.96728415  0.78101122  1  0  -0.64155  0  2.00554  0  0  -0.5848  0  2.238992  0  0  -0.609869  0  2.228008  0  -1.187904  0  -0.31527  -0.568395  0  2.24665  0
O  O106  1  0.20021295  0.12322745  0.29096871  1  0  -0.634085  0  2.063354  0  0  -0.561647  0  2.34062  0  0  -0.589438  0  2.325773  0  -1.167509  0  -0.31884  -0.541919  0  2.349813  0
O  O107  1  0.79978598  0.87677369  0.70903076  1  0  -0.634086  0  2.063337  0  0  -0.561653  0  2.340626  0  0  -0.589425  0  2.325747  0  -1.167506  0  -0.318835  -0.541922  0  2.349819  0
