# generated using pymatgen
data_ZnH8C10(N3O2)2
_symmetry_space_group_name_H-M   'P 1'
_cell_length_a   7.01031726
_cell_length_b   9.44188884
_cell_length_c   18.19692135
_cell_angle_alpha   89.99985775
_cell_angle_beta   90.00009425
_cell_angle_gamma   89.99998242
_symmetry_Int_Tables_number   1
_chemical_formula_structural   ZnH8C10(N3O2)2
_chemical_formula_sum   'Zn4 H32 C40 N24 O16'
_cell_volume   1204.46580165
_cell_formula_units_Z   4
loop_
 _symmetry_equiv_pos_site_id
 _symmetry_equiv_pos_as_xyz
  1  'x, y, z'
loop_
 _atom_site_type_symbol
 _atom_site_label
 _atom_site_symmetry_multiplicity
 _atom_site_fract_x
 _atom_site_fract_y
 _atom_site_fract_z
 _atom_site_occupancy
 _atom_site_hle17_bader_spin_density
 _atom_site_hle17_ddec_charge
 _atom_site_hle17_ddec_spin_density
 _atom_site_hle17_ddec_sum_bond_order
 _atom_site_hle17_magmom
 _atom_site_hse06_10hf_bader_spin_density
 _atom_site_hse06_10hf_ddec_charge
 _atom_site_hse06_10hf_ddec_spin_density
 _atom_site_hse06_10hf_ddec_sum_bond_order
 _atom_site_hse06_10hf_magmom
 _atom_site_hse06_bader_spin_density
 _atom_site_hse06_ddec_charge
 _atom_site_hse06_ddec_spin_density
 _atom_site_hse06_ddec_sum_bond_order
 _atom_site_hse06_magmom
 _atom_site_pbe_bader_spin_density
 _atom_site_pbe_cm5_charge
 _atom_site_pbe_ddec_charge
 _atom_site_pbe_ddec_spin_density
 _atom_site_pbe_ddec_sum_bond_order
 _atom_site_pbe_magmom
Zn  Zn0  1  0.99922046  0.25050335  0.18621022  1  0  0.96634  0  1.887946  0  0  0.777596  0  2.332712  0  0  0.824834  0  2.283473  0  0  0.682999  0.745002  0  2.366225  0
Zn  Zn1  1  0.49922008  0.74949739  0.81379008  1  0  0.966318  0  1.887919  0  0  0.77756  0  2.33268  0  0  0.8248  0  2.283443  0  0  0.682982  0.744965  0  2.366193  0
Zn  Zn2  1  0.49922134  0.24949711  0.68621003  1  0  0.966297  0  1.887969  0  0  0.777557  0  2.332706  0  0  0.824796  0  2.283469  0  0  0.682979  0.74496  0  2.366224  0
Zn  Zn3  1  0.99922205  0.75050257  0.31378917  1  0  0.966335  0  1.887966  0  0  0.777608  0  2.33271  0  0  0.824843  0  2.283471  0  0  0.683006  0.745009  0  2.366232  0
H  H4  1  0.69813444  0.12505370  0.27225828  1  0  0.100589  0  0.953534  0  0  0.105362  0  1.020552  0  0  0.108602  0  1.0178  0  0  0.120557  0.103034  0  1.022461  0
H  H5  1  0.19813221  0.87494711  0.72774183  1  0  0.100578  0  0.953529  0  0  0.105351  0  1.020552  0  0  0.108592  0  1.0178  0  0  0.120564  0.103025  0  1.022459  0
H  H6  1  0.19813384  0.37494641  0.77225793  1  0  0.100602  0  0.953526  0  0  0.105373  0  1.020545  0  0  0.108613  0  1.017792  0  0  0.120565  0.103045  0  1.022453  0
H  H7  1  0.69813709  0.62505440  0.22774164  1  0  0.100593  0  0.95356  0  0  0.105364  0  1.020578  0  0  0.108605  0  1.017824  0  0  0.120573  0.103037  0  1.022487  0
H  H8  1  0.95722460  0.58579121  0.59756639  1  0  0.076141  0  0.915468  0  0  0.08694  0  0.971835  0  0  0.089828  0  0.969737  0  0  0.11404  0.084747  0  0.973694  0
H  H9  1  0.45722545  0.41420848  0.40243224  1  0  0.076181  0  0.91553  0  0  0.086978  0  0.971877  0  0  0.089867  0  0.96978  0  0  0.114066  0.084785  0  0.973737  0
H  H10  1  0.45722183  0.91420874  0.09756716  1  0  0.076201  0  0.915498  0  0  0.087004  0  0.971844  0  0  0.089891  0  0.969747  0  0  0.114076  0.084811  0  0.973703  0
H  H11  1  0.95722394  0.08579201  0.90243367  1  0  0.076167  0  0.915454  0  0  0.086962  0  0.971824  0  0  0.089851  0  0.969727  0  0  0.114043  0.084769  0  0.973684  0
H  H12  1  0.98333311  0.16199281  0.48282473  1  0  0.336492  0  0.893958  0  0  0.316191  0  0.962921  0  0  0.323492  0  0.957275  0  0  0.307928  0.311044  0  0.966861  0
H  H13  1  0.48333284  0.83800794  0.51717391  1  0  0.336447  0  0.893975  0  0  0.316152  0  0.962928  0  0  0.323454  0  0.957281  0  0  0.307902  0.311004  0  0.966868  0
H  H14  1  0.48333395  0.33800729  0.98282553  1  0  0.336471  0  0.893954  0  0  0.316179  0  0.9629  0  0  0.32348  0  0.957254  0  0  0.307909  0.311032  0  0.966839  0
H  H15  1  0.98333342  0.66199345  0.01717477  1  0  0.336496  0  0.893949  0  0  0.316192  0  0.962924  0  0  0.323492  0  0.957278  0  0  0.307922  0.311044  0  0.966864  0
H  H16  1  0.99194877  0.20234619  0.38806857  1  0  0.346735  0  0.903629  0  0  0.326921  0  0.966628  0  0  0.335079  0  0.959702  0  0  0.306174  0.321385  0  0.970972  0
H  H17  1  0.49194750  0.79765350  0.61193008  1  0  0.346755  0  0.903639  0  0  0.326928  0  0.966667  0  0  0.335085  0  0.95974  0  0  0.306163  0.321391  0  0.97101  0
H  H18  1  0.49194963  0.29765436  0.88806942  1  0  0.346751  0  0.903606  0  0  0.326934  0  0.966609  0  0  0.335091  0  0.959686  0  0  0.306186  0.321398  0  0.970954  0
H  H19  1  0.99194949  0.70234426  0.11193143  1  0  0.346777  0  0.903541  0  0  0.326949  0  0.966567  0  0  0.335107  0  0.95964  0  0  0.306183  0.321412  0  0.970913  0
H  H20  1  0.82137948  0.45416834  0.09651959  1  0  0.355881  0  0.906203  0  0  0.33574  0  0.970556  0  0  0.344546  0  0.962865  0  0  0.308  0.329407  0  0.976139  0
H  H21  1  0.32138243  0.54583138  0.90348115  1  0  0.355904  0  0.906114  0  0  0.335771  0  0.97045  0  0  0.344576  0  0.96276  0  0  0.308006  0.329438  0  0.976033  0
H  H22  1  0.32138331  0.04583258  0.59651911  1  0  0.35589  0  0.906122  0  0  0.33576  0  0.970459  0  0  0.344566  0  0.962768  0  0  0.307995  0.329429  0  0.976038  0
H  H23  1  0.82138146  0.95416714  0.40347998  1  0  0.355898  0  0.90613  0  0  0.335769  0  0.970461  0  0  0.344575  0  0.962771  0  0  0.30802  0.329438  0  0.97604  0
H  H24  1  0.59037417  0.50589750  0.06505537  1  0  0.33961  0  0.913475  0  0  0.318866  0  0.980091  0  0  0.327667  0  0.972241  0  0  0.304981  0.312451  0  0.985958  0
H  H25  1  0.09037585  0.49410227  0.93494468  1  0  0.339618  0  0.913402  0  0  0.318863  0  0.98005  0  0  0.327664  0  0.972197  0  0  0.304966  0.312446  0  0.985915  0
H  H26  1  0.09037780  0.99410375  0.56505541  1  0  0.33961  0  0.913433  0  0  0.318862  0  0.980061  0  0  0.327663  0  0.97221  0  0  0.304989  0.312447  0  0.985927  0
H  H27  1  0.59037650  0.00589708  0.43494408  1  0  0.339621  0  0.913409  0  0  0.318872  0  0.98004  0  0  0.327673  0  0.972189  0  0  0.304997  0.312458  0  0.985906  0
H  H28  1  0.96043675  0.76860127  0.49584192  1  0  0.105288  0  0.954705  0  0  0.110227  0  1.022448  0  0  0.114284  0  1.019925  0  0  0.1158  0.107381  0  1.02433  0
H  H29  1  0.46043669  0.23139842  0.50415671  1  0  0.105328  0  0.954649  0  0  0.110254  0  1.02241  0  0  0.114313  0  1.019881  0  0  0.115801  0.107407  0  1.024293  0
H  H30  1  0.46043764  0.73139889  0.99584285  1  0  0.105325  0  0.954683  0  0  0.110255  0  1.022438  0  0  0.114314  0  1.01991  0  0  0.115799  0.107408  0  1.024321  0
H  H31  1  0.96043723  0.26860186  0.00415797  1  0  0.105319  0  0.954666  0  0  0.11025  0  1.022425  0  0  0.114308  0  1.019896  0  0  0.115794  0.107403  0  1.024308  0
H  H32  1  0.33439200  0.10563071  0.27592638  1  0  0.10123  0  0.954112  0  0  0.10583  0  1.022383  0  0  0.108789  0  1.022045  0  0  0.11612  0.103506  0  1.023197  0
H  H33  1  0.83438871  0.89436583  0.72407327  1  0  0.101283  0  0.954093  0  0  0.105881  0  1.022364  0  0  0.108843  0  1.022018  0  0  0.116141  0.103551  0  1.023187  0
H  H34  1  0.83439036  0.39436512  0.77592687  1  0  0.101254  0  0.954099  0  0  0.10585  0  1.022373  0  0  0.10881  0  1.022031  0  0  0.116138  0.10352  0  1.023197  0
H  H35  1  0.33439321  0.60563248  0.22407223  1  0  0.101254  0  0.954058  0  0  0.105832  0  1.022361  0  0  0.10879  0  1.022026  0  0  0.116111  0.103508  0  1.023178  0
C  C36  1  0.58863836  0.36109577  0.14561250  1  0  0.449721  0  3.797202  0  0  0.412969  0  4.063141  0  0  0.432561  0  4.076113  0  0  0.248346  0.399824  0  4.054348  0
C  C37  1  0.08864106  0.63890400  0.85438865  1  0  0.449734  0  3.797233  0  0  0.412977  0  4.06316  0  0  0.432571  0  4.07613  0  0  0.248351  0.399803  0  4.054394  0
C  C38  1  0.08864214  0.13890603  0.64561135  1  0  0.449764  0  3.797154  0  0  0.413036  0  4.063071  0  0  0.432626  0  4.076045  0  0  0.248367  0.399882  0  4.05429  0
C  C39  1  0.58864013  0.86109586  0.35438760  1  0  0.449637  0  3.79731  0  0  0.412901  0  4.063233  0  0  0.432491  0  4.076205  0  0  0.2483  0.399748  0  4.054447  0
C  C40  1  0.60661924  0.18873173  0.23683793  1  0  0.115417  0  3.698713  0  0  0.081161  0  3.955485  0  0  0.090379  0  3.970383  0  0  0.052061  0.07514  0  3.94574  0
C  C41  1  0.10661861  0.81126804  0.76316322  1  0  0.11548  0  3.698802  0  0  0.081219  0  3.955568  0  0  0.090437  0  3.970468  0  0  0.052077  0.075198  0  3.945816  0
C  C42  1  0.10661866  0.31126857  0.73683766  1  0  0.115412  0  3.698719  0  0  0.08116  0  3.95549  0  0  0.090375  0  3.97039  0  0  0.052053  0.07514  0  3.945744  0
C  C43  1  0.60662061  0.68873120  0.26316240  1  0  0.115412  0  3.698746  0  0  0.081159  0  3.955505  0  0  0.090376  0  3.970405  0  0  0.052048  0.075135  0  3.945761  0
C  C44  1  0.98050417  0.47623628  0.39783708  1  0  -0.081365  0  3.706629  0  0  -0.06954  0  3.94051  0  0  -0.079129  0  3.960897  0  0  0.095266  -0.064007  0  3.927221  0
C  C45  1  0.48050298  0.52376447  0.60216101  1  0  -0.081322  0  3.706546  0  0  -0.069472  0  3.940376  0  0  -0.079048  0  3.960769  0  0  0.095277  -0.063944  0  3.927092  0
C  C46  1  0.48050515  0.02376529  0.89783827  1  0  -0.081372  0  3.706633  0  0  -0.069494  0  3.94043  0  0  -0.079074  0  3.960823  0  0  0.095297  -0.063979  0  3.927161  0
C  C47  1  0.98050485  0.97623652  0.10216257  1  0  -0.08136  0  3.706547  0  0  -0.069516  0  3.940431  0  0  -0.079113  0  3.960813  0  0  0.095288  -0.063989  0  3.927147  0
C  C48  1  0.96334832  0.55300659  0.53995227  1  0  0.115702  0  3.743055  0  0  0.088391  0  4.0144  0  0  0.096376  0  4.027927  0  0  0.052377  0.083141  0  4.005053  0
C  C49  1  0.46334940  0.44699309  0.46004581  1  0  0.115642  0  3.743207  0  0  0.088349  0  4.014535  0  0  0.096333  0  4.028063  0  0  0.052403  0.083099  0  4.005189  0
C  C50  1  0.46334696  0.94699363  0.03995355  1  0  0.115707  0  3.743159  0  0  0.088383  0  4.014509  0  0  0.096368  0  4.028037  0  0  0.052402  0.083133  0  4.005163  0
C  C51  1  0.96334933  0.05300711  0.96004783  1  0  0.115643  0  3.743107  0  0  0.088324  0  4.014429  0  0  0.096307  0  4.02796  0  0  0.05235  0.083073  0  4.005084  0
C  C52  1  0.99138511  0.44073827  0.31776312  1  0  0.621782  0  3.924561  0  0  0.565558  0  4.220136  0  0  0.600759  0  4.213002  0  0  0.203185  0.541874  0  4.224294  0
C  C53  1  0.49138282  0.55926141  0.68223608  1  0  0.621754  0  3.924636  0  0  0.5655  0  4.220223  0  0  0.600696  0  4.21309  0  0  0.203129  0.541817  0  4.224378  0
C  C54  1  0.49138465  0.05926579  0.81776427  1  0  0.621779  0  3.924647  0  0  0.565549  0  4.220201  0  0  0.600749  0  4.213069  0  0  0.20318  0.54187  0  4.224359  0
C  C55  1  0.99138471  0.94073813  0.18223713  1  0  0.62179  0  3.924614  0  0  0.565558  0  4.220197  0  0  0.600761  0  4.213065  0  0  0.203168  0.541874  0  4.224357  0
C  C56  1  0.97428776  0.37244123  0.45540787  1  0  0.428628  0  3.847272  0  0  0.400452  0  4.111436  0  0  0.417737  0  4.127097  0  0  0.235372  0.388974  0  4.100928  0
C  C57  1  0.47428770  0.62755846  0.54459022  1  0  0.428589  0  3.84734  0  0  0.40041  0  4.111522  0  0  0.417665  0  4.12722  0  0  0.235366  0.388934  0  4.101016  0
C  C58  1  0.47428727  0.12756006  0.95540948  1  0  0.428673  0  3.847274  0  0  0.400473  0  4.11145  0  0  0.417737  0  4.127138  0  0  0.235367  0.389003  0  4.100939  0
C  C59  1  0.97428820  0.87244069  0.04459245  1  0  0.428626  0  3.847335  0  0  0.400396  0  4.111552  0  0  0.417704  0  4.127181  0  0  0.235335  0.388924  0  4.101038  0
C  C60  1  0.96677598  0.65561543  0.48431422  1  0  0.030989  0  3.691904  0  0  -0.008466  0  3.968523  0  0  -0.009593  0  3.985375  0  0  0.022235  -0.007863  0  3.956785  0
C  C61  1  0.46677592  0.34438425  0.51568441  1  0  0.030927  0  3.691908  0  0  -0.008524  0  3.968508  0  0  -0.009649  0  3.98536  0  0  0.022183  -0.007923  0  3.956769  0
C  C62  1  0.46677539  0.84438478  0.98431556  1  0  0.030888  0  3.691891  0  0  -0.008553  0  3.968508  0  0  -0.009681  0  3.985359  0  0  0.022157  -0.007953  0  3.956769  0
C  C63  1  0.96677650  0.15561703  0.01568582  1  0  0.030971  0  3.691903  0  0  -0.008472  0  3.968503  0  0  -0.009599  0  3.985357  0  0  0.022248  -0.00787  0  3.956765  0
C  C64  1  0.25160642  0.43244605  0.09955400  1  0  0.626188  0  3.929243  0  0  0.570877  0  4.231906  0  0  0.604569  0  4.224216  0  0  0.205436  0.548283  0  4.23605  0
C  C65  1  0.75160974  0.56755263  0.90044724  1  0  0.626371  0  3.929277  0  0  0.571067  0  4.231913  0  0  0.604761  0  4.224224  0  0  0.205577  0.548471  0  4.236058  0
C  C66  1  0.75160920  0.06755594  0.59955326  1  0  0.626282  0  3.929413  0  0  0.570965  0  4.232091  0  0  0.604659  0  4.224402  0  0  0.205504  0.548371  0  4.236231  0
C  C67  1  0.25160839  0.93244380  0.40044524  1  0  0.626208  0  3.929258  0  0  0.570867  0  4.231967  0  0  0.604556  0  4.224281  0  0  0.205417  0.548274  0  4.236108  0
C  C68  1  0.38433806  0.34827949  0.14800955  1  0  -0.056183  0  3.685395  0  0  -0.052653  0  3.93269  0  0  -0.058606  0  3.947944  0  0  0.111305  -0.049176  0  3.922948  0
C  C69  1  0.88433970  0.65171809  0.85199123  1  0  -0.056254  0  3.685294  0  0  -0.052723  0  3.932592  0  0  -0.058679  0  3.947849  0  0  0.111281  -0.049236  0  3.922855  0
C  C70  1  0.88434080  0.15172011  0.64800925  1  0  -0.056262  0  3.685385  0  0  -0.052765  0  3.932714  0  0  -0.058714  0  3.947962  0  0  0.111241  -0.049283  0  3.922971  0
C  C71  1  0.38434124  0.84828065  0.35198934  1  0  -0.056226  0  3.685446  0  0  -0.052707  0  3.932764  0  0  -0.058656  0  3.948014  0  0  0.111293  -0.049227  0  3.923022  0
C  C72  1  0.40942132  0.17754860  0.23924708  1  0  0.019949  0  3.706861  0  0  -0.01648  0  3.977474  0  0  -0.020336  0  3.997081  0  0  0.021841  -0.01445  0  3.965162  0
C  C73  1  0.90941965  0.82245110  0.76075482  1  0  0.019744  0  3.707002  0  0  -0.016686  0  3.977627  0  0  -0.02054  0  3.997232  0  0  0.02175  -0.014651  0  3.965319  0
C  C74  1  0.90941971  0.32245056  0.73924710  1  0  0.019931  0  3.706936  0  0  -0.016497  0  3.977534  0  0  -0.020351  0  3.997145  0  0  0.021823  -0.014464  0  3.965229  0
C  C75  1  0.40942269  0.67754702  0.26075369  1  0  0.019924  0  3.706837  0  0  -0.016489  0  3.977463  0  0  -0.020345  0  3.997071  0  0  0.021847  -0.01446  0  3.965155  0
N  N76  1  0.69560510  0.27704361  0.19033114  1  0  -0.387279  0  3.18237  0  0  -0.311499  0  3.450141  0  0  -0.332023  0  3.461847  0  0  -0.320129  -0.298087  0  3.442394  0
N  N77  1  0.19560615  0.72295296  0.80966788  1  0  -0.387273  0  3.18248  0  0  -0.311467  0  3.450212  0  0  -0.331995  0  3.461924  0  0  -0.320116  -0.298042  0  3.442469  0
N  N78  1  0.19560600  0.22295689  0.69033098  1  0  -0.387266  0  3.182338  0  0  -0.311496  0  3.450103  0  0  -0.33202  0  3.461814  0  0  -0.320123  -0.298086  0  3.442363  0
N  N79  1  0.69560668  0.77704498  0.30966804  1  0  -0.387268  0  3.182392  0  0  -0.311482  0  3.450132  0  0  -0.332015  0  3.461861  0  0  -0.320123  -0.298065  0  3.442386  0
N  N80  1  0.97377423  0.23329749  0.44127095  1  0  -0.649318  0  3.145729  0  0  -0.615652  0  3.384415  0  0  -0.638043  0  3.384133  0  0  -0.569901  -0.600194  0  3.383773  0
N  N81  1  0.47377418  0.76670219  0.55872768  1  0  -0.649328  0  3.145807  0  0  -0.615641  0  3.384445  0  0  -0.63802  0  3.384173  0  0  -0.569888  -0.600181  0  3.383801  0
N  N82  1  0.47377368  0.26670280  0.94127129  1  0  -0.649335  0  3.1457  0  0  -0.615674  0  3.3844  0  0  -0.638058  0  3.384127  0  0  -0.569915  -0.600218  0  3.383754  0
N  N83  1  0.97377330  0.73329688  0.05872955  1  0  -0.649368  0  3.14564  0  0  -0.615686  0  3.384347  0  0  -0.638086  0  3.384057  0  0  -0.569918  -0.600228  0  3.383696  0
N  N84  1  0.30321203  0.25723723  0.19384701  1  0  -0.240191  0  3.372297  0  0  -0.178718  0  3.638041  0  0  -0.185585  0  3.654374  0  0  -0.303247  -0.173718  0  3.62714  0
N  N85  1  0.80321202  0.74275932  0.80615372  1  0  -0.240033  0  3.372218  0  0  -0.178565  0  3.637946  0  0  -0.18543  0  3.654281  0  0  -0.303191  -0.173563  0  3.62704  0
N  N86  1  0.80321188  0.24276006  0.69384768  1  0  -0.240182  0  3.372305  0  0  -0.178697  0  3.638043  0  0  -0.185567  0  3.654378  0  0  -0.303218  -0.173696  0  3.627139  0
N  N87  1  0.30321217  0.75723755  0.30615250  1  0  -0.240143  0  3.372283  0  0  -0.178673  0  3.638024  0  0  -0.18554  0  3.654357  0  0  -0.303223  -0.173674  0  3.627123  0
N  N88  1  0.67565570  0.45345980  0.10154237  1  0  -0.648521  0  3.129942  0  0  -0.61467  0  3.370321  0  0  -0.637457  0  3.367513  0  0  -0.564594  -0.598769  0  3.37209  0
N  N89  1  0.17565863  0.54653995  0.89845828  1  0  -0.648528  0  3.129885  0  0  -0.614676  0  3.370245  0  0  -0.637464  0  3.367437  0  0  -0.564587  -0.598762  0  3.372025  0
N  N90  1  0.17565953  0.04654113  0.60154189  1  0  -0.648506  0  3.129867  0  0  -0.614672  0  3.37025  0  0  -0.637458  0  3.367439  0  0  -0.564594  -0.598768  0  3.372023  0
N  N91  1  0.67565909  0.95345968  0.39845711  1  0  -0.648498  0  3.129904  0  0  -0.614669  0  3.370299  0  0  -0.637455  0  3.367491  0  0  -0.564614  -0.598767  0  3.372071  0
N  N92  1  0.96772758  0.41449091  0.52695401  1  0  -0.373736  0  2.988254  0  0  -0.344744  0  3.264401  0  0  -0.358152  0  3.278717  0  0  -0.320647  -0.335352  0  3.254367  0
N  N93  1  0.46773008  0.58550878  0.47304517  1  0  -0.373664  0  2.988337  0  0  -0.344701  0  3.264501  0  0  -0.358097  0  3.278827  0  0  -0.320673  -0.335306  0  3.254463  0
N  N94  1  0.46772638  0.08550926  0.02695465  1  0  -0.373779  0  2.98835  0  0  -0.344768  0  3.264493  0  0  -0.358169  0  3.278818  0  0  -0.320667  -0.335375  0  3.254455  0
N  N95  1  0.96772843  0.91449149  0.97304728  1  0  -0.373713  0  2.988358  0  0  -0.344691  0  3.264515  0  0  -0.358105  0  3.278825  0  0  -0.320595  -0.335297  0  3.254474  0
N  N96  1  0.97675969  0.61442151  0.41414579  1  0  -0.263691  0  3.342896  0  0  -0.205656  0  3.608554  0  0  -0.214361  0  3.628702  0  0  -0.301816  -0.198967  0  3.594385  0
N  N97  1  0.47675992  0.38557817  0.58585285  1  0  -0.263669  0  3.342775  0  0  -0.205629  0  3.608391  0  0  -0.214336  0  3.628536  0  0  -0.301775  -0.198936  0  3.594219  0
N  N98  1  0.47676052  0.88558010  0.91414597  1  0  -0.263693  0  3.342848  0  0  -0.205677  0  3.608484  0  0  -0.214382  0  3.628632  0  0  -0.301805  -0.198981  0  3.594317  0
N  N99  1  0.97676052  0.11442171  0.08585432  1  0  -0.263644  0  3.342849  0  0  -0.205612  0  3.608496  0  0  -0.214318  0  3.628645  0  0  -0.301808  -0.198921  0  3.594327  0
O  O100  1  0.99735772  0.30993716  0.30008769  1  0  -0.605526  0  2.075136  0  0  -0.533681  0  2.32257  0  0  -0.560764  0  2.311445  0  0  -0.302855  -0.51495  0  2.329238  0
O  O101  1  0.49735546  0.69006147  0.69991096  1  0  -0.605516  0  2.075177  0  0  -0.533648  0  2.322583  0  0  -0.560752  0  2.311514  0  0  -0.30284  -0.514934  0  2.329293  0
O  O102  1  0.49735863  0.19006487  0.80008922  1  0  -0.605532  0  2.075174  0  0  -0.533691  0  2.322608  0  0  -0.560771  0  2.311477  0  0  -0.302858  -0.514956  0  2.329269  0
O  O103  1  0.99735883  0.80993799  0.19991218  1  0  -0.605545  0  2.075185  0  0  -0.533687  0  2.32261  0  0  -0.560763  0  2.311462  0  0  -0.302847  -0.514952  0  2.329273  0
O  O104  1  0.99370728  0.54160485  0.27154590  1  0  -0.602868  0  2.063718  0  0  -0.542332  0  2.32764  0  0  -0.568344  0  2.31541  0  0  -0.312943  -0.52418  0  2.335071  0
O  O105  1  0.49370381  0.45839483  0.72845220  1  0  -0.602869  0  2.06375  0  0  -0.542296  0  2.32764  0  0  -0.568303  0  2.315414  0  0  -0.312877  -0.524144  0  2.335079  0
O  O106  1  0.49370379  0.95839955  0.77154708  1  0  -0.602837  0  2.063747  0  0  -0.542297  0  2.327659  0  0  -0.568306  0  2.31543  0  0  -0.3129  -0.524148  0  2.335101  0
O  O107  1  0.99370444  0.04160437  0.22845431  1  0  -0.602885  0  2.063715  0  0  -0.542328  0  2.327611  0  0  -0.568341  0  2.315381  0  0  -0.312929  -0.524181  0  2.335054  0
O  O108  1  0.07277147  0.41817876  0.11273201  1  0  -0.62852  0  2.079801  0  0  -0.560942  0  2.339546  0  0  -0.587703  0  2.326141  0  0  -0.314122  -0.542473  0  2.347965  0
O  O109  1  0.57277472  0.58181889  0.88726967  1  0  -0.628616  0  2.079834  0  0  -0.56104  0  2.339569  0  0  -0.587799  0  2.326164  0  0  -0.314198  -0.542569  0  2.347988  0
O  O110  1  0.57277567  0.08182108  0.61273070  1  0  -0.628558  0  2.079928  0  0  -0.560997  0  2.339684  0  0  -0.587762  0  2.326286  0  0  -0.314157  -0.542526  0  2.3481  0
O  O111  1  0.07277338  0.91817552  0.38726824  1  0  -0.628519  0  2.079753  0  0  -0.560944  0  2.339511  0  0  -0.587697  0  2.326103  0  0  -0.314126  -0.542474  0  2.347928  0
O  O112  1  0.32254460  0.50951548  0.05012474  1  0  -0.599492  0  1.932351  0  0  -0.548068  0  2.153829  0  0  -0.569428  0  2.145277  0  0  -0.313779  -0.533024  0  2.159072  0
O  O113  1  0.82254817  0.49048212  0.94987710  1  0  -0.599581  0  1.932323  0  0  -0.548167  0  2.153828  0  0  -0.569526  0  2.145269  0  0  -0.31383  -0.53312  0  2.159071  0
O  O114  1  0.82255005  0.99048685  0.55012345  1  0  -0.599531  0  1.932372  0  0  -0.548092  0  2.153844  0  0  -0.569445  0  2.145285  0  0  -0.313798  -0.533045  0  2.159084  0
O  O115  1  0.32254557  0.00951287  0.44987565  1  0  -0.599474  0  1.932335  0  0  -0.548024  0  2.153809  0  0  -0.569386  0  2.14527  0  0  -0.313752  -0.532979  0  2.159051  0
