# generated using pymatgen
data_Ag2H22C21N3O5F14
_symmetry_space_group_name_H-M   'P 1'
_cell_length_a   8.76554438
_cell_length_b   12.28888993
_cell_length_c   14.90400000
_cell_angle_alpha   109.74597581
_cell_angle_beta   96.73549146
_cell_angle_gamma   104.41859445
_symmetry_Int_Tables_number   1
_chemical_formula_structural   Ag2H22C21N3O5F14
_chemical_formula_sum   'Ag4 H44 C42 N6 O10 F28'
_cell_volume   1427.27621397
_cell_formula_units_Z   2
loop_
 _symmetry_equiv_pos_site_id
 _symmetry_equiv_pos_as_xyz
  1  'x, y, z'
loop_
 _atom_site_type_symbol
 _atom_site_label
 _atom_site_symmetry_multiplicity
 _atom_site_fract_x
 _atom_site_fract_y
 _atom_site_fract_z
 _atom_site_occupancy
 _atom_site_hle17_bader_spin_density
 _atom_site_hle17_ddec_charge
 _atom_site_hle17_ddec_spin_density
 _atom_site_hle17_ddec_sum_bond_order
 _atom_site_hle17_magmom
 _atom_site_hse06_10hf_bader_spin_density
 _atom_site_hse06_10hf_ddec_charge
 _atom_site_hse06_10hf_ddec_spin_density
 _atom_site_hse06_10hf_ddec_sum_bond_order
 _atom_site_hse06_10hf_magmom
 _atom_site_hse06_bader_spin_density
 _atom_site_hse06_ddec_charge
 _atom_site_hse06_ddec_spin_density
 _atom_site_hse06_ddec_sum_bond_order
 _atom_site_hse06_magmom
 _atom_site_pbe_bader_charge
 _atom_site_pbe_bader_spin_density
 _atom_site_pbe_cm5_charge
 _atom_site_pbe_ddec_charge
 _atom_site_pbe_ddec_spin_density
 _atom_site_pbe_ddec_sum_bond_order
 _atom_site_pbe_magmom
Ag  Ag0  1  0.64426207  0.26544832  0.32299990  1  0  0.565808  0  1.372393  0  0  0.446257  0  1.785384  0  0  0.473634  0  1.739634  0  0.613952  0  0.488491  0.42767  0  1.816992  0
Ag  Ag1  1  0.35573777  0.73455176  0.67700240  1  0  0.565824  0  1.372434  0  0  0.44626  0  1.785434  0  0  0.473641  0  1.739657  0  0.613971  0  0.4885  0.427671  0  1.817045  0
Ag  Ag2  1  0.79730870  0.89052325  0.87302238  1  0  0.60903  0  1.21377  0  0  0.478028  0  1.621023  0  0  0.514819  0  1.571433  0  0.60742  0  0.45405  0.451956  0  1.655649  0
Ag  Ag3  1  0.20269229  0.10947683  0.12697529  1  0  0.609027  0  1.213842  0  0  0.478009  0  1.621048  0  0  0.514802  0  1.571456  0  0.607421  0  0.454072  0.451939  0  1.655674  0
H  H4  1  0.36310112  0.14853129  0.37216242  1  0  0.371317  0  0.926654  0  0  0.348791  0  0.995577  0  0  0.35881  0  0.98477  0  0.648344  0  0.289092  0.341689  0  1.003211  0
H  H5  1  0.63689564  0.85146970  0.62783723  1  0  0.371336  0  0.926647  0  0  0.348781  0  0.995581  0  0  0.358799  0  0.984782  0  0.648271  0  0.289151  0.341686  0  1.003199  0
H  H6  1  0.71906344  0.37289625  0.20034589  1  0  0.133501  0  0.966128  0  0  0.15055  0  1.033675  0  0  0.153305  0  1.030947  0  0.091054  0  0.090786  0.148456  0  1.035694  0
H  H7  1  0.28093643  0.62710110  0.79965229  1  0  0.13347  0  0.966188  0  0  0.150508  0  1.033715  0  0  0.153259  0  1.03099  0  0.090977  0  0.090771  0.148414  0  1.035733  0
H  H8  1  0.81212921  0.37001289  0.09993375  1  0  0.122292  0  0.962054  0  0  0.141792  0  1.023662  0  0  0.143167  0  1.023359  0  0.054432  0  0.087308  0.140754  0  1.023913  0
H  H9  1  0.18786873  0.62998537  0.90006455  1  0  0.122292  0  0.96205  0  0  0.141794  0  1.023629  0  0  0.143165  0  1.023322  0  0.054397  0  0.087319  0.140757  0  1.023875  0
H  H10  1  0.92485240  0.37405887  0.20751400  1  0  0.137038  0  0.948193  0  0  0.153805  0  1.01565  0  0  0.155359  0  1.015091  0  0.100904  0  0.09427  0.152538  0  1.016196  0
H  H11  1  0.07515014  0.62593939  0.79248529  1  0  0.137392  0  0.947666  0  0  0.153801  0  1.015599  0  0  0.155361  0  1.015035  0  0.100836  0  0.094268  0.152531  0  1.016146  0
H  H12  1  0.52286411  0.03839088  0.27142748  1  0  0.109816  0  0.98821  0  0  0.126415  0  1.060991  0  0  0.129247  0  1.057615  0  0.060239  0  0.088727  0.124149  0  1.063665  0
H  H13  1  0.47713420  0.96160829  0.72857177  1  0  0.109882  0  0.988243  0  0  0.126494  0  1.061  0  0  0.129326  0  1.057631  0  0.060237  0  0.08876  0.124227  0  1.063678  0
H  H14  1  0.60388857  0.91498546  0.22882163  1  0  0.13505  0  0.937673  0  0  0.153411  0  0.998021  0  0  0.155221  0  0.997025  0  0.086919  0  0.096075  0.152013  0  0.998835  0
H  H15  1  0.39611015  0.08501189  0.77118049  1  0  0.135071  0  0.937738  0  0  0.153454  0  0.998036  0  0  0.155265  0  0.997041  0  0.086953  0  0.096085  0.152052  0  0.998861  0
H  H16  1  0.41346952  0.90677715  0.16674270  1  0  0.124359  0  0.944693  0  0  0.14669  0  1.003678  0  0  0.147365  0  1.004666  0  0.060661  0  0.095075  0.146147  0  1.00304  0
H  H17  1  0.58653492  0.09322293  0.83325521  1  0  0.124387  0  0.944618  0  0  0.146699  0  1.003623  0  0  0.147376  0  1.00461  0  0.060643  0  0.09509  0.146156  0  1.002984  0
H  H18  1  0.60312364  0.77742222  0.94637446  1  0  0.114838  0  0.984109  0  0  0.131789  0  1.057028  0  0  0.133871  0  1.055056  0  0.058492  0  0.085856  0.130228  0  1.058316  0
H  H19  1  0.39687697  0.22257695  0.05362562  1  0  0.11483  0  0.98412  0  0  0.131781  0  1.057047  0  0  0.133863  0  1.055076  0  0.058438  0  0.085852  0.130221  0  1.058335  0
H  H20  1  0.48275925  0.78315985  0.03543632  1  0  0.118854  0  0.965279  0  0  0.139091  0  1.026464  0  0  0.139851  0  1.027716  0  0.059963  0  0.089942  0.138469  0  1.02565  0
H  H21  1  0.51724248  0.21684205  0.96456326  1  0  0.118854  0  0.965261  0  0  0.139091  0  1.026449  0  0  0.13985  0  1.0277  0  0.059941  0  0.089938  0.138468  0  1.025633  0
H  H22  1  0.68852724  0.79437333  0.06719431  1  0  0.142353  0  0.928987  0  0  0.162858  0  0.987281  0  0  0.164639  0  0.98611  0  0.094343  0  0.098126  0.161658  0  0.987808  0
H  H23  1  0.31147110  0.20562312  0.93280553  1  0  0.142332  0  0.929031  0  0  0.162844  0  0.987325  0  0  0.164626  0  0.986151  0  0.094174  0  0.098106  0.161642  0  0.987856  0
H  H24  1  0.91671718  0.11939952  0.92213419  1  0  0.114076  0  1.000912  0  0  0.130783  0  1.072123  0  0  0.13307  0  1.070273  0  0.074513  0  0.085321  0.129033  0  1.073507  0
H  H25  1  0.08328570  0.88060238  0.07786546  1  0  0.114049  0  1.000894  0  0  0.130747  0  1.07211  0  0  0.133032  0  1.070271  0  0.074539  0  0.085307  0.128997  0  1.073495  0
H  H26  1  0.00659064  0.25101515  0.03121730  1  0  0.134226  0  0.961562  0  0  0.150795  0  1.02829  0  0  0.153012  0  1.026908  0  0.111136  0  0.092624  0.149342  0  1.028972  0
H  H27  1  0.99340767  0.74898402  0.96878262  1  0  0.134193  0  0.961559  0  0  0.150768  0  1.028257  0  0  0.152988  0  1.02687  0  0.111117  0  0.092619  0.149314  0  1.028941  0
H  H28  1  0.83285130  0.24210236  0.95218508  1  0  0.11881  0  0.948977  0  0  0.135247  0  1.015502  0  0  0.136882  0  1.014497  0  0.047967  0  0.08908  0.133972  0  1.016315  0
H  H29  1  0.16714661  0.75789862  0.04781599  1  0  0.11885  0  0.949  0  0  0.135239  0  1.015573  0  0  0.136878  0  1.014567  0  0.047993  0  0.08907  0.133964  0  1.016387  0
H  H30  1  0.68761554  0.61658210  0.47908759  1  0  0.130842  0  0.954735  0  0  0.1483  0  1.018927  0  0  0.150061  0  1.018018  0  0.083117  0  0.093877  0.146978  0  1.019639  0
H  H31  1  0.31238777  0.38341525  0.52091150  1  0  0.130829  0  0.954799  0  0  0.148286  0  1.018979  0  0  0.150045  0  1.018058  0  0.083087  0  0.093858  0.146963  0  1.019692  0
H  H32  1  0.65592737  0.54676240  0.56349809  1  0  0.127358  0  0.943822  0  0  0.152406  0  0.996327  0  0  0.152632  0  0.9976  0  0.066014  0  0.097241  0.152134  0  0.99555  0
H  H33  1  0.34407634  0.45323314  0.43650052  1  0  0.12735  0  0.944097  0  0  0.152469  0  0.996428  0  0  0.152696  0  0.997693  0  0.066074  0  0.097274  0.152197  0  0.995651  0
H  H34  1  0.59954413  0.45610832  0.43613063  1  0  0.116403  0  0.982483  0  0  0.133549  0  1.052966  0  0  0.135901  0  1.050891  0  0.071822  0  0.088454  0.131727  0  1.054584  0
H  H35  1  0.40045958  0.54388722  0.56386731  1  0  0.11642  0  0.982487  0  0  0.133531  0  1.053009  0  0  0.13588  0  1.050941  0  0.071959  0  0.088482  0.13172  0  1.054614  0
H  H36  1  0.95273793  0.72242383  0.69421174  1  0  0.139988  0  0.951702  0  0  0.161912  0  1.010365  0  0  0.16318  0  1.011135  0  0.114947  0  0.098862  0.16095  0  1.009915  0
H  H37  1  0.04726727  0.27757534  0.30578597  1  0  0.139899  0  0.951777  0  0  0.161919  0  1.010297  0  0  0.163176  0  1.011064  0  0.114643  0  0.098862  0.160956  0  1.009848  0
H  H38  1  0.88870795  0.75596245  0.59274357  1  0  0.126687  0  0.94977  0  0  0.146186  0  1.010349  0  0  0.147659  0  1.010287  0  0.052415  0  0.09417  0.145047  0  1.01046  0
H  H39  1  0.11129729  0.24403400  0.40725540  1  0  0.126684  0  0.949685  0  0  0.146145  0  1.010339  0  0  0.147591  0  1.010354  0  0.052456  0  0.094159  0.145006  0  1.01045  0
H  H40  1  0.09940998  0.79929468  0.64499260  1  0  0.110065  0  0.97167  0  0  0.125442  0  1.046409  0  0  0.128097  0  1.04334  0  0.059154  0  0.085328  0.123427  0  1.048651  0
H  H41  1  0.90059063  0.20070449  0.35500614  1  0  0.110057  0  0.971704  0  0  0.125451  0  1.046422  0  0  0.128061  0  1.04348  0  0.058988  0  0.085353  0.123437  0  1.048661  0
H  H42  1  0.54193247  0.07414838  0.45001390  1  0  0.062149  0  0.943584  0  0  0.082006  0  1.007001  0  0  0.08216  0  1.00718  0  0.052751  0  0.086185  0.081802  0  1.006964  0
H  H43  1  0.45806234  0.92585624  0.54998864  1  0  0.062266  0  0.943465  0  0  0.082107  0  1.006907  0  0  0.082283  0  1.007036  0  0.052676  0  0.086272  0.081903  0  1.00687  0
H  H44  1  0.42513180  0.14283910  0.53001530  1  0  0.074144  0  0.943461  0  0  0.089944  0  1.01044  0  0  0.090881  0  1.009373  0  0.051367  0  0.085506  0.089224  0  1.011271  0
H  H45  1  0.57486528  0.85716825  0.46998950  1  0  0.074163  0  0.94346  0  0  0.089959  0  1.010455  0  0  0.090897  0  1.009403  0  0.051446  0  0.085505  0.08924  0  1.011285  0
H  H46  1  0.62748283  0.22678928  0.53737421  1  0  0.082444  0  0.951123  0  0  0.096213  0  1.021839  0  0  0.097301  0  1.020444  0  0.07808  0  0.087557  0.095352  0  1.022915  0
H  H47  1  0.37251309  0.77321807  0.46262716  1  0  0.082352  0  0.951443  0  0  0.096236  0  1.021897  0  0  0.097523  0  1.020178  0  0.078089  0  0.087559  0.095375  0  1.022972  0
C  C48  1  0.26840605  0.52029765  0.08300778  1  0  0.693694  0  3.688571  0  0  0.602199  0  4.056733  0  0  0.633301  0  4.027749  0  1.771961  0  0.2975  0.580636  0  4.076632  0
C  C49  1  0.73158612  0.47970334  0.91699289  1  0  0.6938  0  3.688617  0  0  0.602287  0  4.056937  0  0  0.633358  0  4.028009  0  1.771923  0  0.29749  0.580742  0  4.076788  0
C  C50  1  0.38861897  0.57437704  0.18426685  1  0  0.274268  0  3.703567  0  0  0.218484  0  4.020527  0  0  0.232635  0  4.008746  0  1.166565  0  0.188951  0.208456  0  4.029212  0
C  C51  1  0.61136785  0.42562213  0.81573697  1  0  0.274694  0  3.702957  0  0  0.21845  0  4.020875  0  0  0.23261  0  4.009094  0  1.166551  0  0.189099  0.208441  0  4.029548  0
C  C52  1  0.34319647  0.51700615  0.25999614  1  0  0.32129  0  3.627531  0  0  0.278192  0  3.930808  0  0  0.29195  0  3.920078  0  1.117884  0  0.18887  0.268138  0  3.93896  0
C  C53  1  0.65679461  0.48298939  0.74000629  1  0  0.323044  0  3.625588  0  0  0.278357  0  3.930772  0  0  0.292118  0  3.920028  0  1.117809  0  0.188938  0.26828  0  3.938943  0
C  C54  1  0.32960763  0.37884296  0.22756676  1  0  0.534611  0  4.022806  0  0  0.48374  0  4.321022  0  0  0.515297  0  4.316909  0  1.658762  0  0.181981  0.462496  0  4.32278  0
C  C55  1  0.67037656  0.62115258  0.77243185  1  0  0.534834  0  4.022214  0  0  0.483622  0  4.321352  0  0  0.515187  0  4.317229  0  1.658999  0  0.181977  0.462385  0  4.323106  0
C  C56  1  0.05575271  0.26189775  0.64181142  1  0  0.693782  0  3.690935  0  0  0.603224  0  4.057838  0  0  0.633392  0  4.030915  0  1.789494  0  0.29578  0.581808  0  4.07721  0
C  C57  1  0.94425088  0.73810869  0.35819089  1  0  0.69383  0  3.69097  0  0  0.602873  0  4.058476  0  0  0.633672  0  4.030454  0  1.789286  0  0.295778  0.581507  0  4.077767  0
C  C58  1  0.02213744  0.19307886  0.71198910  1  0  0.276067  0  3.697026  0  0  0.219486  0  4.012475  0  0  0.233405  0  4.001365  0  1.176057  0  0.190388  0.209374  0  4.021133  0
C  C59  1  0.97786277  0.80692213  0.28800945  1  0  0.276226  0  3.696884  0  0  0.219784  0  4.012368  0  0  0.23394  0  4.000751  0  1.176027  0  0.190475  0.20965  0  4.021045  0
C  C60  1  0.99182334  0.05297313  0.66757401  1  0  0.324987  0  3.636424  0  0  0.284287  0  3.935527  0  0  0.297944  0  3.925215  0  1.102828  0  0.189563  0.274162  0  3.943753  0
C  C61  1  0.00818377  0.94702786  0.33242367  1  0  0.324829  0  3.636439  0  0  0.284152  0  3.93553  0  0  0.297851  0  3.92508  0  1.102761  0  0.189444  0.274016  0  3.943784  0
C  C62  1  0.93613268  0.99269896  0.74024766  1  0  0.542026  0  4.009283  0  0  0.492103  0  4.299972  0  0  0.52267  0  4.297527  0  1.679451  0  0.184517  0.471441  0  4.300882  0
C  C63  1  0.06388523  0.00729476  0.25974673  1  0  0.54183  0  4.008948  0  0  0.491838  0  4.299796  0  0  0.522407  0  4.297369  0  1.679799  0  0.184506  0.471178  0  4.3007  0
C  C64  1  0.75052308  0.20148987  0.12230284  1  0  0.232141  0  3.672022  0  0  0.234408  0  3.916936  0  0  0.238357  0  3.939321  0  0.476054  0  0.124088  0.231386  0  3.902111  0
C  C65  1  0.24947908  0.79850748  0.87769684  1  0  0.232205  0  3.671976  0  0  0.234405  0  3.916913  0  0  0.238355  0  3.939301  0  0.47602  0  0.124054  0.231384  0  3.902084  0
C  C66  1  0.61897321  0.02570300  0.14424482  1  0  0.229711  0  3.689087  0  0  0.227403  0  3.943745  0  0  0.232298  0  3.963603  0  0.543894  0  0.124512  0.223758  0  3.930641  0
C  C67  1  0.38103084  0.97429617  0.85575684  1  0  0.22962  0  3.68919  0  0  0.227409  0  3.943682  0  0  0.232303  0  3.963548  0  0.543881  0  0.124504  0.223766  0  3.930579  0
C  C68  1  0.65257261  0.95455805  0.05736958  1  0  0.235573  0  3.689892  0  0  0.234023  0  3.940158  0  0  0.239416  0  3.961002  0  0.496514  0  0.123808  0.230032  0  3.926302  0
C  C69  1  0.34743412  0.04544203  0.94263184  1  0  0.23558  0  3.689904  0  0  0.234028  0  3.940109  0  0  0.23942  0  3.960953  0  0.496536  0  0.123813  0.230035  0  3.926253  0
C  C70  1  0.78947988  0.13068117  0.03740994  1  0  0.215487  0  3.691106  0  0  0.216607  0  3.939792  0  0  0.220643  0  3.962283  0  0.501017  0  0.119419  0.213479  0  3.924962  0
C  C71  1  0.21052151  0.86931709  0.96258859  1  0  0.21539  0  3.69125  0  0  0.216546  0  3.939883  0  0  0.220582  0  3.962378  0  0.501063  0  0.119415  0.213419  0  3.925052  0
C  C72  1  0.80367537  0.33708603  0.15940857  1  0  -0.381272  0  3.694821  0  0  -0.464049  0  3.932966  0  0  -0.467498  0  3.941815  0  -0.069773  0  -0.249267  -0.461214  0  3.927015  0
C  C73  1  0.19632487  0.66291223  0.84059257  1  0  -0.381166  0  3.694477  0  0  -0.463993  0  3.932903  0  0  -0.467441  0  3.941731  0  -0.069659  0  -0.249245  -0.461152  0  3.926955  0
C  C74  1  0.53517439  0.96839309  0.20613477  1  0  -0.362436  0  3.699669  0  0  -0.444566  0  3.938058  0  0  -0.447472  0  3.946229  0  -0.072837  0  -0.239654  -0.442103  0  3.932497  0
C  C75  1  0.46482700  0.03160517  0.79386444  1  0  -0.362539  0  3.699686  0  0  -0.44472  0  3.938043  0  0  -0.447621  0  3.946199  0  -0.072857  0  -0.239738  -0.44225  0  3.932467  0
C  C76  1  0.60302528  0.81975182  0.02409744  1  0  -0.370695  0  3.700012  0  0  -0.453601  0  3.937843  0  0  -0.457081  0  3.94691  0  -0.060471  0  -0.245532  -0.450609  0  3.931255  0
C  C77  1  0.39697571  0.18024826  0.97590292  1  0  -0.370668  0  3.700061  0  0  -0.453598  0  3.937902  0  0  -0.457075  0  3.946971  0  -0.060228  0  -0.245519  -0.450604  0  3.931311  0
C  C78  1  0.89130890  0.18856202  0.98225818  1  0  -0.378009  0  3.714303  0  0  -0.458841  0  3.952611  0  0  -0.461901  0  3.96065  0  -0.090872  0  -0.248787  -0.456246  0  3.947032  0
C  C79  1  0.10869364  0.81143625  0.01774111  1  0  -0.377955  0  3.714304  0  0  -0.45875  0  3.952629  0  0  -0.461814  0  3.960665  0  -0.090949  0  -0.248764  -0.456155  0  3.947051  0
C  C80  1  0.85250705  0.51722794  0.49639310  1  0  0.222288  0  3.701802  0  0  0.220152  0  3.95523  0  0  0.224606  0  3.975976  0  0.491985  0  0.118176  0.216823  0  3.941464  0
C  C81  1  0.14750123  0.48277032  0.50360457  1  0  0.222117  0  3.701969  0  0  0.220111  0  3.955074  0  0  0.224556  0  3.975853  0  0.492091  0  0.118174  0.216782  0  3.9413  0
C  C82  1  0.99193846  0.60936825  0.55941343  1  0  0.220279  0  3.705278  0  0  0.219114  0  3.96035  0  0  0.223513  0  3.981168  0  0.526525  0  0.117099  0.21588  0  3.946376  0
C  C83  1  0.00806482  0.39063183  0.44058508  1  0  0.220202  0  3.705379  0  0  0.219086  0  3.960282  0  0  0.223365  0  3.981405  0  0.526827  0  0.117118  0.215854  0  3.946308  0
C  C84  1  0.69054010  0.53507442  0.49325106  1  0  -0.365196  0  3.700249  0  0  -0.447715  0  3.936939  0  0  -0.450839  0  3.94652  0  -0.072206  0  -0.243286  -0.445109  0  3.930411  0
C  C85  1  0.30947125  0.46492293  0.50674590  1  0  -0.365233  0  3.700604  0  0  -0.447743  0  3.937176  0  0  -0.450859  0  3.946731  0  -0.072448  0  -0.243337  -0.445143  0  3.930636  0
C  C86  1  0.98299819  0.72835872  0.62597639  1  0  -0.374109  0  3.709145  0  0  -0.457123  0  3.948407  0  0  -0.460928  0  3.958018  0  -0.079785  0  -0.248663  -0.454002  0  3.941735  0
C  C87  1  0.01700431  0.27164227  0.37402433  1  0  -0.374091  0  3.709072  0  0  -0.457102  0  3.948321  0  0  -0.461006  0  3.958212  0  -0.07942  0  -0.248693  -0.453977  0  3.941641  0
C  C88  1  0.51635573  0.15965477  0.48741469  1  0  -0.029547  0  3.692196  0  0  -0.124299  0  3.962688  0  0  -0.117928  0  3.967831  0  0.362906  0  -0.1615  -0.128583  0  3.959159  0
C  C89  1  0.48363867  0.84035167  0.51258766  1  0  -0.029684  0  3.692245  0  0  -0.12443  0  3.962738  0  0  -0.117985  0  3.967653  0  0.362704  0  -0.16155  -0.128716  0  3.959218  0
N  N90  1  0.66663640  0.14749775  0.17434076  1  0  -0.354834  0  3.229464  0  0  -0.290324  0  3.50416  0  0  -0.305785  0  3.518892  0  -1.162945  0  -0.318521  -0.279769  0  3.494356  0
N  N91  1  0.33336688  0.85250233  0.82566043  1  0  -0.354834  0  3.22944  0  0  -0.290328  0  3.504101  0  0  -0.305792  0  3.518841  0  -1.162972  0  -0.318521  -0.279773  0  3.494299  0
N  N92  1  0.73759894  0.00807287  0.00569539  1  0  -0.367539  0  3.262386  0  0  -0.296855  0  3.539263  0  0  -0.314979  0  3.555349  0  -1.175609  0  -0.32185  -0.284301  0  3.528385  0
N  N93  1  0.26240474  0.99192540  0.99430667  1  0  -0.367456  0  3.262336  0  0  -0.296781  0  3.539184  0  0  -0.314906  0  3.555271  0  -1.175561  0  -0.32181  -0.284226  0  3.528302  0
N  N94  1  0.86312321  0.40970820  0.43809619  1  0  -0.355251  0  3.221386  0  0  -0.292923  0  3.495886  0  0  -0.3078  0  3.510265  0  -1.182459  0  -0.319738  -0.282628  0  3.486193  0
N  N95  1  0.13688277  0.59029007  0.56190200  1  0  -0.355242  0  3.221457  0  0  -0.292883  0  3.495848  0  0  -0.307717  0  3.510068  0  -1.182244  0  -0.319683  -0.282585  0  3.486154  0
O  O96  1  0.78584469  0.93975219  0.72444974  1  0  -0.60571  0  2.087024  0  0  -0.550309  0  2.334006  0  0  -0.578239  0  2.324252  0  -1.161009  0  -0.318455  -0.530619  0  2.340078  0
O  O97  1  0.21416927  0.06025153  0.27555454  1  0  -0.605595  0  2.086986  0  0  -0.550167  0  2.333961  0  0  -0.578096  0  2.324213  0  -1.16132  0  -0.31838  -0.530477  0  2.340036  0
O  O98  1  0.04432737  0.00591944  0.80894446  1  0  -0.560022  0  1.979455  0  0  -0.517162  0  2.209663  0  0  -0.542762  0  2.205879  0  -1.150513  0  -0.30958  -0.499005  0  2.211684  0
O  O99  1  0.95569566  0.99406156  0.19104137  1  0  -0.55983  0  1.979288  0  0  -0.516955  0  2.209536  0  0  -0.542556  0  2.205751  0  -1.150649  0  -0.309606  -0.498798  0  2.211554  0
O  O100  1  0.46287065  0.20925459  0.41958071  1  0  -0.5313  0  2.175742  0  0  -0.456789  0  2.426612  0  0  -0.477415  0  2.414764  0  -1.148346  0  -0.423311  -0.44211  0  2.434382  0
O  O101  1  0.53712301  0.79075004  0.58042041  1  0  -0.531307  0  2.175753  0  0  -0.456744  0  2.426683  0  0  -0.477361  0  2.414835  0  -1.1482  0  -0.423396  -0.442069  0  2.434449  0
O  O102  1  0.46012127  0.35679597  0.24129750  1  0  -0.590356  0  2.052708  0  0  -0.55027  0  2.313122  0  0  -0.573542  0  2.30039  0  -1.159129  0  -0.321849  -0.533951  0  2.321342  0
O  O103  1  0.53985915  0.64319320  0.75869908  1  0  -0.590254  0  2.052729  0  0  -0.550213  0  2.313245  0  0  -0.573467  0  2.300464  0  -1.159543  0  -0.321878  -0.533894  0  2.321461  0
O  O104  1  0.18771251  0.30605354  0.18920078  1  0  -0.584806  0  2.07768  0  0  -0.526837  0  2.336174  0  0  -0.555378  0  2.326971  0  -1.139172  0  -0.321877  -0.506567  0  2.341481  0
O  O105  1  0.81227165  0.69394472  0.81080261  1  0  -0.584354  0  2.07723  0  0  -0.52685  0  2.336395  0  0  -0.555398  0  2.327198  0  -1.138854  0  -0.321859  -0.506576  0  2.341686  0
F  F106  1  0.11860945  0.52542807  0.09229914  1  0  -0.21987  0  1.181857  0  0  -0.182719  0  1.345524  0  0  -0.191529  0  1.328292  0  -0.605682  0  -0.085971  -0.176002  0  1.357206  0
F  F107  1  0.88138048  0.47456747  0.90769718  1  0  -0.219563  0  1.18153  0  0  -0.1828  0  1.345441  0  0  -0.191595  0  1.328216  0  -0.605592  0  -0.086025  -0.176089  0  1.357116  0
F  F108  1  0.32183413  0.58553870  0.02895226  1  0  -0.220587  0  1.18114  0  0  -0.189342  0  1.357825  0  0  -0.198283  0  1.340163  0  -0.617684  0  -0.082702  -0.182485  0  1.369768  0
F  F109  1  0.67816639  0.41446865  0.97105009  1  0  -0.220575  0  1.181347  0  0  -0.189362  0  1.358044  0  0  -0.198288  0  1.340391  0  -0.617706  0  -0.082681  -0.18251  0  1.369978  0
F  F110  1  0.26030425  0.40370332  0.03336228  1  0  -0.221691  0  1.209387  0  0  -0.173266  0  1.371733  0  0  -0.188832  0  1.360868  0  -0.616183  0  -0.074864  -0.165437  0  1.382491  0
F  F111  1  0.73969481  0.59629767  0.96663686  1  0  -0.221656  0  1.209488  0  0  -0.173265  0  1.371843  0  0  -0.188855  0  1.36102  0  -0.616183  0  -0.074858  -0.165441  0  1.382592  0
F  F112  1  0.53471414  0.56328537  0.16665254  1  0  -0.168545  0  1.205076  0  0  -0.14081  0  1.372082  0  0  -0.147605  0  1.357768  0  -0.595678  0  -0.096916  -0.135717  0  1.381746  0
F  F113  1  0.46527800  0.43671835  0.83335292  1  0  -0.168545  0  1.205088  0  0  -0.140828  0  1.372206  0  0  -0.147623  0  1.357885  0  -0.595851  0  -0.096949  -0.135743  0  1.381869  0
F  F114  1  0.40350724  0.69582818  0.22402183  1  0  -0.182463  0  1.201775  0  0  -0.145076  0  1.362437  0  0  -0.15287  0  1.349442  0  -0.599093  0  -0.095256  -0.139433  0  1.371464  0
F  F115  1  0.59648071  0.30417372  0.77598350  1  0  -0.182225  0  1.201441  0  0  -0.145085  0  1.362555  0  0  -0.152881  0  1.349558  0  -0.59907  0  -0.095327  -0.13945  0  1.371582  0
F  F116  1  0.20228636  0.53791870  0.28239407  1  0  -0.205031  0  1.195575  0  0  -0.174305  0  1.367651  0  0  -0.181675  0  1.354498  0  -0.614777  0  -0.109784  -0.168933  0  1.376775  0
F  F117  1  0.79770808  0.46208502  0.71761087  1  0  -0.210674  0  1.200869  0  0  -0.174299  0  1.367617  0  0  -0.181696  0  1.354539  0  -0.614671  0  -0.109815  -0.16892  0  1.376746  0
F  F118  1  0.46289835  0.58430973  0.34317946  1  0  -0.188702  0  1.217279  0  0  -0.151189  0  1.391747  0  0  -0.160462  0  1.379951  0  -0.614146  0  -0.091332  -0.144484  0  1.399931  0
F  F119  1  0.53709465  0.41568490  0.65681950  1  0  -0.188135  0  1.216651  0  0  -0.151246  0  1.391821  0  0  -0.160523  0  1.380022  0  -0.614135  0  -0.091365  -0.144537  0  1.400009  0
F  F120  1  0.09593995  0.38315255  0.69309512  1  0  -0.218501  0  1.179261  0  0  -0.178346  0  1.340966  0  0  -0.189852  0  1.327145  0  -0.614841  0  -0.083925  -0.170424  0  1.35087  0
F  F121  1  0.90404719  0.61685299  0.30690849  1  0  -0.218836  0  1.179644  0  0  -0.1783  0  1.341186  0  0  -0.189481  0  1.327047  0  -0.614735  0  -0.083873  -0.170373  0  1.351056  0
F  F122  1  0.92376990  0.22896271  0.57006000  1  0  -0.223495  0  1.19816  0  0  -0.185044  0  1.365022  0  0  -0.195364  0  1.349699  0  -0.612887  0  -0.083188  -0.177589  0  1.375631  0
F  F123  1  0.07623646  0.77103646  0.42993847  1  0  -0.22369  0  1.198458  0  0  -0.185002  0  1.365222  0  0  -0.197959  0  1.352255  0  -0.612952  0  -0.083217  -0.177563  0  1.375816  0
F  F124  1  0.17963816  0.23885995  0.60033430  1  0  -0.223319  0  1.19317  0  0  -0.185308  0  1.359001  0  0  -0.194653  0  1.342274  0  -0.610014  0  -0.083681  -0.178562  0  1.370595  0
F  F125  1  0.82037910  0.76115741  0.39967736  1  0  -0.223321  0  1.19317  0  0  -0.185241  0  1.359205  0  0  -0.194272  0  1.342164  0  -0.60979  0  -0.08374  -0.178513  0  1.370782  0
F  F126  1  0.15173849  0.24502027  0.78967498  1  0  -0.171123  0  1.213845  0  0  -0.142835  0  1.384704  0  0  -0.149933  0  1.370634  0  -0.609807  0  -0.094164  -0.137561  0  1.394313  0
F  F127  1  0.84825712  0.75498072  0.21032862  1  0  -0.171165  0  1.21379  0  0  -0.142876  0  1.384611  0  0  -0.149972  0  1.370486  0  -0.60983  0  -0.094189  -0.1376  0  1.394229  0
F  F128  1  0.88866441  0.21395959  0.74543431  1  0  -0.174928  0  1.191939  0  0  -0.144814  0  1.35775  0  0  -0.15233  0  1.344653  0  -0.600204  0  -0.098444  -0.139334  0  1.366846  0
F  F129  1  0.11133015  0.78603321  0.25456290  1  0  -0.175055  0  1.192133  0  0  -0.144876  0  1.357731  0  0  -0.152271  0  1.344402  0  -0.600218  0  -0.098469  -0.139393  0  1.366835  0
F  F130  1  0.87838149  0.00525859  0.58105440  1  0  -0.207413  0  1.204081  0  0  -0.172979  0  1.369607  0  0  -0.180355  0  1.355865  0  -0.613609  0  -0.108343  -0.16762  0  1.379242  0
F  F131  1  0.12161912  0.99474058  0.41894568  1  0  -0.207387  0  1.204137  0  0  -0.172973  0  1.369663  0  0  -0.18014  0  1.355773  0  -0.613602  0  -0.108337  -0.167611  0  1.379304  0
F  F132  1  0.13280723  0.03245145  0.64524745  1  0  -0.199969  0  1.183656  0  0  -0.167989  0  1.348929  0  0  -0.175889  0  1.336095  0  -0.612332  0  -0.106239  -0.162202  0  1.357885  0
F  F133  1  0.86719944  0.96755408  0.35474475  1  0  -0.199907  0  1.183739  0  0  -0.167913  0  1.348987  0  0  -0.175835  0  1.336223  0  -0.612203  0  -0.10617  -0.162122  0  1.357945  0
