# generated using pymatgen
data_BaH12C7O5
_symmetry_space_group_name_H-M   'P 1'
_cell_length_a   4.94071377
_cell_length_b   7.74355166
_cell_length_c   13.37584131
_cell_angle_alpha   105.53243187
_cell_angle_beta   98.72854177
_cell_angle_gamma   96.53579639
_symmetry_Int_Tables_number   1
_chemical_formula_structural   BaH12C7O5
_chemical_formula_sum   'Ba2 H24 C14 O10'
_cell_volume   480.88930587
_cell_formula_units_Z   2
loop_
 _symmetry_equiv_pos_site_id
 _symmetry_equiv_pos_as_xyz
  1  'x, y, z'
loop_
 _atom_site_type_symbol
 _atom_site_label
 _atom_site_symmetry_multiplicity
 _atom_site_fract_x
 _atom_site_fract_y
 _atom_site_fract_z
 _atom_site_occupancy
 _atom_site_hle17_bader_spin_density
 _atom_site_hle17_ddec_charge
 _atom_site_hle17_ddec_spin_density
 _atom_site_hle17_ddec_sum_bond_order
 _atom_site_hle17_magmom
 _atom_site_hse06_10hf_bader_spin_density
 _atom_site_hse06_10hf_ddec_charge
 _atom_site_hse06_10hf_ddec_spin_density
 _atom_site_hse06_10hf_ddec_sum_bond_order
 _atom_site_hse06_10hf_magmom
 _atom_site_hse06_bader_spin_density
 _atom_site_hse06_ddec_charge
 _atom_site_hse06_ddec_spin_density
 _atom_site_hse06_ddec_sum_bond_order
 _atom_site_hse06_magmom
 _atom_site_pbe_bader_spin_density
 _atom_site_pbe_cm5_charge
 _atom_site_pbe_ddec_charge
 _atom_site_pbe_ddec_spin_density
 _atom_site_pbe_ddec_sum_bond_order
 _atom_site_pbe_magmom
Ba  Ba0  1  0.73200617  0.73223359  0.46437787  1  0  1.659335  0  1.125492  0  0  1.516467  0  1.517756  0  0  1.556827  0  1.474752  0  0  0.9585  1.486709  0  1.548351  0
Ba  Ba1  1  0.26798981  0.26776442  0.53562232  1  0  1.659326  0  1.125525  0  0  1.516486  0  1.517739  0  0  1.556849  0  1.474734  0  0  0.958494  1.486731  0  1.548331  0
H  H2  1  0.83444276  0.74848338  0.19802050  1  0  0.113511  0  0.931512  0  0  0.127563  0  0.995598  0  0  0.13041  0  0.993813  0  0  0.109154  0.125528  0  0.996943  0
H  H3  1  0.36314495  0.44923613  0.19800536  1  0  0.113521  0  0.930811  0  0  0.127235  0  0.995479  0  0  0.130098  0  0.993652  0  0  0.109455  0.125214  0  0.996833  0
H  H4  1  0.16556006  0.25151734  0.80197901  1  0  0.113499  0  0.931482  0  0  0.127546  0  0.995586  0  0  0.130401  0  0.993791  0  0  0.109139  0.125512  0  0.996933  0
H  H5  1  0.63685546  0.55076322  0.80199529  1  0  0.113544  0  0.930821  0  0  0.127247  0  0.995505  0  0  0.130109  0  0.99368  0  0  0.109474  0.125227  0  0.996856  0
H  H6  1  0.93088365  0.97454708  0.20534466  1  0  0.100526  0  0.925771  0  0  0.120127  0  0.981643  0  0  0.121617  0  0.981586  0  0  0.104358  0.119018  0  0.981835  0
H  H7  1  0.27309526  0.23071634  0.20553400  1  0  0.099421  0  0.926395  0  0  0.119588  0  0.981815  0  0  0.12105  0  0.981775  0  0  0.104232  0.118522  0  0.981981  0
H  H8  1  0.06911543  0.02545500  0.79465635  1  0  0.100494  0  0.925801  0  0  0.120102  0  0.981678  0  0  0.121592  0  0.981623  0  0  0.10436  0.118994  0  0.98187  0
H  H9  1  0.72690855  0.76928030  0.79446491  1  0  0.099392  0  0.926426  0  0  0.119558  0  0.981845  0  0  0.121021  0  0.981802  0  0  0.104205  0.118476  0  0.982032  0
H  H10  1  0.31067542  0.89585862  0.10262689  1  0  0.056262  0  0.934018  0  0  0.075235  0  0.997076  0  0  0.076267  0  0.996646  0  0  0.085033  0.074406  0  0.997496  0
H  H11  1  0.79120588  0.20713472  0.10256236  1  0  0.057128  0  0.934231  0  0  0.075967  0  0.997486  0  0  0.076903  0  0.997169  0  0  0.085615  0.075231  0  0.99778  0
H  H12  1  0.68932640  0.10414618  0.89737321  1  0  0.056239  0  0.934012  0  0  0.075203  0  0.99708  0  0  0.076209  0  0.996681  0  0  0.085034  0.074374  0  0.997501  0
H  H13  1  0.20879490  0.79286600  0.89743778  1  0  0.057157  0  0.934232  0  0  0.075999  0  0.997489  0  0  0.076933  0  0.997173  0  0  0.085621  0.075263  0  0.997783  0
H  H14  1  0.23117848  0.66803932  0.09958117  1  0  0.061949  0  0.945309  0  0  0.081975  0  1.007684  0  0  0.082231  0  1.008677  0  0  0.089638  0.081704  0  1.007116  0
H  H15  1  0.86820061  0.43178704  0.09933440  1  0  0.062484  0  0.945495  0  0  0.082811  0  1.007608  0  0  0.083087  0  1.008583  0  0  0.089938  0.082527  0  1.007052  0
H  H16  1  0.76882130  0.33196551  0.90041807  1  0  0.061941  0  0.94525  0  0  0.081947  0  1.007655  0  0  0.082204  0  1.008641  0  0  0.089631  0.081676  0  1.007086  0
H  H17  1  0.13180494  0.56821635  0.90066867  1  0  0.062448  0  0.945527  0  0  0.082831  0  1.007582  0  0  0.083107  0  1.008557  0  0  0.089942  0.082547  0  1.007028  0
H  H18  1  0.83117676  0.87864722  0.99979064  1  0  0.05585  0  0.944813  0  0  0.077148  0  1.005558  0  0  0.077186  0  1.006986  0  0  0.085282  0.077041  0  1.004633  0
H  H19  1  0.16882232  0.12135489  0.00020813  1  0  0.055866  0  0.944863  0  0  0.077146  0  1.005594  0  0  0.077185  0  1.007021  0  0  0.085293  0.077039  0  1.004669  0
H  H20  1  0.74608501  0.65237585  0.99996431  1  0  0.056395  0  0.936722  0  0  0.076863  0  0.9978  0  0  0.077566  0  0.998007  0  0  0.085735  0.076276  0  0.997763  0
H  H21  1  0.25391237  0.34762759  0.00003682  1  0  0.056438  0  0.936751  0  0  0.076897  0  0.997798  0  0  0.077594  0  0.998018  0  0  0.08574  0.07631  0  0.99776  0
H  H22  1  0.28841843  0.71424420  0.63557020  1  0  0.417324  0  0.889397  0  0  0.387877  0  0.951838  0  0  0.398103  0  0.936807  0  0  0.305914  0.380624  0  0.962488  0
H  H23  1  0.34735635  0.92129534  0.63558061  1  0  0.418347  0  0.888223  0  0  0.389512  0  0.949871  0  0  0.399726  0  0.934825  0  0  0.306508  0.382274  0  0.960518  0
H  H24  1  0.71158199  0.28575516  0.36442970  1  0  0.417327  0  0.889396  0  0  0.387876  0  0.951843  0  0  0.398104  0  0.93681  0  0  0.305907  0.380624  0  0.962493  0
H  H25  1  0.65264407  0.07870403  0.36441854  1  0  0.418382  0  0.888183  0  0  0.389544  0  0.949835  0  0  0.399758  0  0.934788  0  0  0.306528  0.382306  0  0.960482  0
C  C26  1  0.21452694  0.87584091  0.30369982  1  0  0.72553  0  3.844757  0  0  0.679047  0  4.142746  0  0  0.712052  0  4.13481  0  0  0.228462  0.65662  0  4.147332  0
C  C27  1  0.08831355  0.42822956  0.30368221  1  0  0.720695  0  3.848871  0  0  0.674379  0  4.146955  0  0  0.70735  0  4.13914  0  0  0.226635  0.651976  0  4.151467  0
C  C28  1  0.78547213  0.12416118  0.69630044  1  0  0.72554  0  3.844797  0  0  0.679089  0  4.142731  0  0  0.712091  0  4.134797  0  0  0.228462  0.656663  0  4.14732  0
C  C29  1  0.91169025  0.57176705  0.69631894  1  0  0.720566  0  3.848988  0  0  0.674366  0  4.146886  0  0  0.707339  0  4.139072  0  0  0.226636  0.651965  0  4.151394  0
C  C30  1  0.01566323  0.84737662  0.20015379  1  0  -0.274315  0  3.676033  0  0  -0.314255  0  3.932613  0  0  -0.320093  0  3.941062  0  0  -0.160099  -0.310248  0  3.926705  0
C  C31  1  0.18368045  0.35282654  0.20019671  1  0  -0.272234  0  3.67441  0  0  -0.312631  0  3.931538  0  0  -0.318391  0  3.939948  0  0  -0.160564  -0.308695  0  3.925656  0
C  C32  1  0.98433549  0.15262411  0.79984623  1  0  -0.274266  0  3.67596  0  0  -0.314224  0  3.932535  0  0  -0.320065  0  3.94097  0  0  -0.160093  -0.310225  0  3.92664  0
C  C33  1  0.81632096  0.64716874  0.79980260  1  0  -0.272137  0  3.674554  0  0  -0.312566  0  3.931663  0  0  -0.318325  0  3.94007  0  0  -0.16055  -0.308608  0  3.925756  0
C  C34  1  0.13780215  0.79077844  0.10064154  1  0  -0.080845  0  3.717477  0  0  -0.125329  0  3.983579  0  0  -0.125183  0  3.99799  0  0  -0.168931  -0.125246  0  3.973517  0
C  C35  1  0.96234853  0.31006369  0.10059640  1  0  -0.082335  0  3.720481  0  0  -0.12737  0  3.987416  0  0  -0.12718  0  4.00182  0  0  -0.169376  -0.127305  0  3.977382  0
C  C36  1  0.86219763  0.20922638  0.89935845  1  0  -0.080777  0  3.717326  0  0  -0.125259  0  3.983412  0  0  -0.125094  0  3.997813  0  0  -0.168925  -0.125176  0  3.973357  0
C  C37  1  0.03765259  0.68993839  0.89940397  1  0  -0.082434  0  3.72053  0  0  -0.127491  0  3.987519  0  0  -0.127306  0  4.001935  0  0  -0.16941  -0.127426  0  3.977486  0
C  C38  1  0.92121171  0.75463993  0.99994213  1  0  -0.112711  0  3.700365  0  0  -0.152349  0  3.963799  0  0  -0.153683  0  3.979342  0  0  -0.167886  -0.151225  0  3.952883  0
C  C39  1  0.07879012  0.24536487  0.00005797  1  0  -0.112884  0  3.700472  0  0  -0.152445  0  3.96379  0  0  -0.153778  0  3.97932  0  0  -0.167937  -0.151318  0  3.952868  0
O  O40  1  0.46535642  0.85327050  0.30215424  1  0  -0.703233  0  1.970993  0  0  -0.640118  0  2.207341  0  0  -0.665783  0  2.197716  0  0  -0.35411  -0.622146  0  2.213399  0
O  O41  1  0.83597288  0.44934464  0.30211849  1  0  -0.701499  0  1.973965  0  0  -0.637792  0  2.209175  0  0  -0.663461  0  2.199729  0  0  -0.353306  -0.61984  0  2.21515  0
O  O42  1  0.53464435  0.14673021  0.69784664  1  0  -0.703231  0  1.971023  0  0  -0.640124  0  2.207351  0  0  -0.665792  0  2.197735  0  0  -0.354103  -0.622154  0  2.213412  0
O  O43  1  0.16402719  0.55065335  0.69788193  1  0  -0.70148  0  1.974013  0  0  -0.637815  0  2.209168  0  0  -0.663483  0  2.199722  0  0  -0.353323  -0.619865  0  2.215143  0
O  O44  1  0.12213801  0.92474069  0.38982865  1  0  -0.789647  0  1.986566  0  0  -0.721837  0  2.241814  0  0  -0.749235  0  2.23166  0  0  -0.416355  -0.702459  0  2.248181  0
O  O45  1  0.26689376  0.46546636  0.38985400  1  0  -0.787509  0  1.986271  0  0  -0.719584  0  2.240792  0  0  -0.747013  0  2.230794  0  0  -0.415331  -0.700216  0  2.247122  0
O  O46  1  0.87786106  0.07526141  0.61017087  1  0  -0.789646  0  1.98656  0  0  -0.721866  0  2.241829  0  0  -0.749265  0  2.231675  0  0  -0.416342  -0.702488  0  2.248195  0
O  O47  1  0.73310596  0.53453029  0.61014468  1  0  -0.787466  0  1.986274  0  0  -0.719582  0  2.240746  0  0  -0.747009  0  2.230739  0  0  -0.415317  -0.700216  0  2.247074  0
O  O48  1  0.29459435  0.79461580  0.58906143  1  0  -0.91387  0  1.865446  0  0  -0.860476  0  2.050819  0  0  -0.880393  0  2.020027  0  0  -0.608475  -0.846236  0  2.072355  0
O  O49  1  0.70540367  0.20538222  0.41093813  1  0  -0.913916  0  1.865408  0  0  -0.860522  0  2.050784  0  0  -0.88044  0  2.01999  0  0  -0.608489  -0.846285  0  2.072324  0
