# generated using pymatgen
data_FeH4(C2O3)2
_symmetry_space_group_name_H-M   'P 1'
_cell_length_a   8.19223730
_cell_length_b   8.19225169
_cell_length_c   8.19225030
_cell_angle_alpha   88.68225460
_cell_angle_beta   88.68201449
_cell_angle_gamma   88.68171259
_symmetry_Int_Tables_number   1
_chemical_formula_structural   FeH4(C2O3)2
_chemical_formula_sum   'Fe3 H12 C12 O18'
_cell_volume   549.37562285
_cell_formula_units_Z   3
loop_
 _symmetry_equiv_pos_site_id
 _symmetry_equiv_pos_as_xyz
  1  'x, y, z'
loop_
 _atom_site_type_symbol
 _atom_site_label
 _atom_site_symmetry_multiplicity
 _atom_site_fract_x
 _atom_site_fract_y
 _atom_site_fract_z
 _atom_site_occupancy
 _atom_site_pbe_bader_charge
 _atom_site_pbe_bader_spin_density
 _atom_site_pbe_cm5_charge
 _atom_site_pbe_ddec_charge
 _atom_site_pbe_ddec_spin_density
 _atom_site_pbe_ddec_sum_bond_order
 _atom_site_pbe_magmom
Fe  Fe0  1  0.00000050  0.50000229  0.99999861  1  1.476664  3.694958  0.684232  1.017761  3.901816  2.446852  3.674
Fe  Fe1  1  0.50000094  0.00000302  0.99999876  1  1.476496  3.694972  0.68421  1.017657  3.901804  2.446899  3.674
Fe  Fe2  1  0.00000163  0.99999874  0.50000041  1  1.476594  3.694961  0.684226  1.017733  3.90181  2.446794  3.674
H  H3  1  0.93400535  0.75551007  0.19092574  1  0.652082  0.002314  0.299914  0.390787  0.000923  0.943776  0.003
H  H4  1  0.75551160  0.19092611  0.93401101  1  0.652071  0.002313  0.299918  0.390794  0.000923  0.943757  0.003
H  H5  1  0.19092620  0.93400528  0.75551075  1  0.652085  0.002314  0.299905  0.39075  0.000924  0.943832  0.003
H  H6  1  0.06598780  0.24449156  0.80907191  1  0.651882  0.002314  0.299874  0.390714  0.000924  0.943879  0.003
H  H7  1  0.24449254  0.80907283  0.06598767  1  0.651896  0.002314  0.299861  0.390715  0.000924  0.943875  0.003
H  H8  1  0.80907060  0.06598773  0.24449434  1  0.651877  0.002314  0.299889  0.390747  0.000923  0.943827  0.003
H  H9  1  0.80215318  0.75664650  0.04432161  1  0.662322  0.002097  0.301277  0.394227  0.000758  0.93899  0.003
H  H10  1  0.75665052  0.04432065  0.80216198  1  0.662322  0.002096  0.30131  0.394246  0.000758  0.938967  0.003
H  H11  1  0.04432220  0.80215641  0.75664759  1  0.66234  0.002096  0.301287  0.394214  0.000758  0.939002  0.003
H  H12  1  0.19783997  0.24335392  0.95567485  1  0.662366  0.002097  0.30131  0.39426  0.000758  0.938967  0.003
H  H13  1  0.24335362  0.95567708  0.19783917  1  0.662358  0.002097  0.301291  0.394254  0.000758  0.938972  0.003
H  H14  1  0.95567217  0.19783909  0.24335506  1  0.662366  0.002097  0.301321  0.394252  0.000758  0.938975  0.003
C  C15  1  0.00213673  0.45466994  0.38215598  1  0.783693  -0.017971  0.103315  0.165796  -0.021955  4.116585  -0.01
C  C16  1  0.45467164  0.38215498  0.00213632  1  0.783805  -0.017971  0.10332  0.165806  -0.021954  4.116685  -0.01
C  C17  1  0.38215723  0.00213599  0.45466923  1  0.784228  -0.017976  0.103335  0.165805  -0.021958  4.116615  -0.01
C  C18  1  0.99785641  0.54533536  0.61784525  1  0.784068  -0.017977  0.103372  0.165847  -0.021959  4.116479  -0.01
C  C19  1  0.54533494  0.61785001  0.99786095  1  0.784226  -0.017972  0.103343  0.16582  -0.021954  4.11657  -0.01
C  C20  1  0.61784446  0.99785813  0.54533328  1  0.78422  -0.017974  0.10332  0.165758  -0.021957  4.116606  -0.01
C  C21  1  0.38125644  0.54766380  0.00945564  1  0.780726  -0.00656  0.106062  0.170803  -0.009809  4.113683  -0.002
C  C22  1  0.54766413  0.00945729  0.38125645  1  0.780203  -0.006552  0.106075  0.170843  -0.009801  4.113778  -0.002
C  C23  1  0.00945439  0.38125349  0.54766064  1  0.780715  -0.006555  0.106083  0.17082  -0.009803  4.113732  -0.002
C  C24  1  0.61874281  0.45234258  0.99053932  1  0.780637  -0.006559  0.106222  0.170952  -0.009807  4.113514  -0.002
C  C25  1  0.45234000  0.99053677  0.61874845  1  0.780808  -0.006554  0.106178  0.17091  -0.009802  4.113891  -0.002
C  C26  1  0.99053875  0.61874448  0.45233466  1  0.781011  -0.006553  0.10609  0.170839  -0.009802  4.113828  -0.002
O  O27  1  0.00547097  0.39747636  0.23981078  1  -1.168768  0.046584  -0.289306  -0.441411  0.020908  2.502704  0.038
O  O28  1  0.39748074  0.23981906  0.00547258  1  -1.168768  0.046582  -0.289256  -0.441311  0.020905  2.502932  0.038
O  O29  1  0.23981820  0.00547270  0.39747680  1  -1.168781  0.04658  -0.28925  -0.441322  0.020904  2.502849  0.038
O  O30  1  0.99452217  0.60252283  0.76018083  1  -1.168839  0.046576  -0.289265  -0.441332  0.020902  2.502889  0.038
O  O31  1  0.60252217  0.76018602  0.99452721  1  -1.168854  0.046575  -0.289297  -0.441364  0.020903  2.502962  0.038
O  O32  1  0.76018593  0.99452502  0.60252680  1  -1.168749  0.04658  -0.289311  -0.44141  0.020906  2.502754  0.038
O  O33  1  0.23781824  0.60799419  0.02152637  1  -1.17281  0.04663  -0.286514  -0.43806  0.021295  2.461472  0.036
O  O34  1  0.60799697  0.02152792  0.23781804  1  -1.172825  0.046633  -0.286525  -0.438075  0.021296  2.461391  0.036
O  O35  1  0.02152585  0.23781925  0.60799481  1  -1.172822  0.046631  -0.286516  -0.438073  0.021296  2.461517  0.036
O  O36  1  0.76218956  0.39200467  0.97846978  1  -1.172819  0.046647  -0.286642  -0.438296  0.021301  2.461149  0.036
O  O37  1  0.39200716  0.97846981  0.76218312  1  -1.172866  0.046632  -0.286591  -0.438156  0.021298  2.461595  0.036
O  O38  1  0.97847218  0.76218350  0.39200270  1  -1.172884  0.046636  -0.28655  -0.43814  0.021298  2.461402  0.036
O  O39  1  0.91536228  0.72380649  0.07596419  1  -1.275801  0.079427  -0.576928  -0.751076  0.036974  2.167985  0.049
O  O40  1  0.72381390  0.07596256  0.91536987  1  -1.275747  0.079413  -0.576963  -0.751012  0.036971  2.167896  0.049
O  O41  1  0.07596345  0.91536395  0.72380643  1  -1.275803  0.079424  -0.576912  -0.750999  0.036971  2.168014  0.049
O  O42  1  0.08463331  0.27619875  0.92403211  1  -1.275604  0.079422  -0.576896  -0.751011  0.036973  2.168047  0.049
O  O43  1  0.27619756  0.92403500  0.08463478  1  -1.275685  0.079423  -0.576875  -0.751012  0.036973  2.168039  0.049
O  O44  1  0.92403214  0.08463397  0.27619736  1  -1.275632  0.079425  -0.576945  -0.751049  0.036975  2.168047  0.049
