# generated using pymatgen
data_MnH14C14(N2O)4
_symmetry_space_group_name_H-M   'P 1'
_cell_length_a   8.11601816
_cell_length_b   7.86533613
_cell_length_c   12.87387497
_cell_angle_alpha   89.99976384
_cell_angle_beta   98.27444675
_cell_angle_gamma   89.99983593
_symmetry_Int_Tables_number   1
_chemical_formula_structural   MnH14C14(N2O)4
_chemical_formula_sum   'Mn2 H28 C28 N16 O8'
_cell_volume   813.25157565
_cell_formula_units_Z   2
loop_
 _symmetry_equiv_pos_site_id
 _symmetry_equiv_pos_as_xyz
  1  'x, y, z'
loop_
 _atom_site_type_symbol
 _atom_site_label
 _atom_site_symmetry_multiplicity
 _atom_site_fract_x
 _atom_site_fract_y
 _atom_site_fract_z
 _atom_site_occupancy
 _atom_site_hse06_10hf_bader_charge
 _atom_site_hse06_10hf_bader_spin_density
 _atom_site_hse06_10hf_ddec_charge
 _atom_site_hse06_10hf_ddec_spin_density
 _atom_site_hse06_10hf_ddec_sum_bond_order
 _atom_site_hse06_10hf_magmom
 _atom_site_hse06_ddec_charge
 _atom_site_hse06_ddec_spin_density
 _atom_site_hse06_ddec_sum_bond_order
 _atom_site_hse06_magmom
 _atom_site_pbe_cm5_charge
 _atom_site_pbe_ddec_charge
 _atom_site_pbe_ddec_spin_density
 _atom_site_pbe_ddec_sum_bond_order
 _atom_site_pbe_magmom
Mn  Mn0  1  0.00469875  0.00294723  0.99887182  1  1.409679  -1.139287  0.573677  -1.181146  3.792352  -1.14  0.626153  -1.120606  3.722924  -1.071  0.776627  0.545987  -1.16142  3.828483  -1.121
Mn  Mn1  1  0.49532511  0.50295506  0.00113857  1  1.410159  -1.13938  0.573557  -1.181249  3.792666  -1.14  0.625927  -1.120691  3.723292  -1.071  0.776638  0.545783  -1.161556  3.828903  -1.121
H  H2  1  0.91944138  0.36789198  0.95059736  1  0.106088  0.000328  0.085756  0.000472  1.034328  0.0  0.090153  0.00042  1.029944  0.0  0.12143  0.083901  0.000417  1.036367  0.0
H  H3  1  0.58056306  0.86790170  0.04940426  1  0.105946  0.000328  0.08576  0.000472  1.034546  0.0  0.090133  0.00042  1.030216  0.0  0.121471  0.08391  0.000418  1.036577  0.0
H  H4  1  0.07514664  0.62957108  0.04428396  1  0.081908  0.000294  0.084459  0.000461  1.026022  0.0  0.08797  0.000474  1.02257  0.0  0.122135  0.083022  0.000288  1.027394  0.0
H  H5  1  0.42487198  0.12956514  0.95572546  1  0.081879  0.000295  0.084463  0.000462  1.025944  0.0  0.087972  0.000475  1.022492  0.0  0.122163  0.083017  0.000289  1.027343  0.0
H  H6  1  0.97323330  0.58051864  0.81689327  1  0.149693  0.000161  0.113622  3.6e-05  1.054079  0.0  0.118776  3.2e-05  1.050677  0.0  0.109489  0.111002  3e-05  1.055579  0.0
H  H7  1  0.52675672  0.08053545  0.18310525  1  0.14959  0.000161  0.113524  3.6e-05  1.05432  0.0  0.118672  3.1e-05  1.050928  0.0  0.109448  0.110904  2.9e-05  1.055817  0.0
H  H8  1  0.02197451  0.41903969  0.17877901  1  0.099535  4.3e-05  0.11382  -0.000115  1.045739  0.0  0.118644  -4.8e-05  1.042529  0.0  0.10932  0.111283  -7.8e-05  1.047178  0.0
H  H9  1  0.47805969  0.91903047  0.82122971  1  0.099778  4.3e-05  0.113819  -0.000115  1.045861  0.0  0.118648  -4.8e-05  1.04264  0.0  0.109315  0.111287  -7.9e-05  1.047295  0.0
H  H10  1  0.15015940  0.17084094  0.63973871  1  0.112082  7.7e-05  0.123533  -4.5e-05  1.006574  0.0  0.125694  -6.5e-05  1.006753  0.0  0.115217  0.122158  -1.2e-05  1.006466  0.0
H  H11  1  0.34982657  0.67085120  0.36025773  1  0.109167  7.8e-05  0.123465  -4.6e-05  1.006525  0.0  0.125628  -6.5e-05  1.0067  0.0  0.11521  0.122092  -1.3e-05  1.006412  0.0
H  H12  1  0.85609450  0.83266888  0.35762465  1  0.127445  4.3e-05  0.123873  -6.5e-05  1.006945  0.0  0.126002  -7.1e-05  1.007358  0.0  0.115438  0.122543  -7.7e-05  1.006755  0.0
H  H13  1  0.64388631  0.33267263  0.64237282  1  0.127377  4.3e-05  0.123919  -6.5e-05  1.006893  0.0  0.126041  -7.1e-05  1.007316  0.0  0.115479  0.122595  -7.7e-05  1.0067  0.0
H  H14  1  0.07989249  0.97077371  0.77788116  1  0.083927  0.000591  0.096689  0.000586  1.007121  0.0  0.100249  0.0005  1.003389  0.0  0.123262  0.095017  0.000626  1.009215  0.0
H  H15  1  0.42011403  0.47078345  0.22211572  1  0.084124  0.000592  0.096696  0.000586  1.007164  0.0  0.100242  0.0005  1.003452  0.0  0.123233  0.095024  0.000627  1.009267  0.0
H  H16  1  0.92899981  0.03106167  0.21946341  1  0.077203  0.000427  0.096913  0.00041  1.00487  0.0  0.100737  0.000236  1.000855  0.0  0.12364  0.09506  0.000499  1.007095  0.0
H  H17  1  0.57098299  0.53105959  0.78054170  1  0.07707  0.000427  0.096942  0.00041  1.00494  0.0  0.100767  0.000236  1.000928  0.0  0.123642  0.095096  0.000501  1.007168  0.0
H  H18  1  0.22841582  0.84482089  0.60484852  1  0.105363  0.000269  0.114853  0.000206  1.007028  0.0  0.116088  9.9e-05  1.005548  0.0  0.100775  0.114033  0.000234  1.007989  0.0
H  H19  1  0.27157993  0.34484112  0.39515655  1  0.105164  0.00027  0.114811  0.000206  1.007038  0.0  0.116046  0.0001  1.005556  0.0  0.10079  0.113993  0.000234  1.007995  0.0
H  H20  1  0.77081717  0.16047527  0.39203868  1  0.059047  0.00025  0.114324  0.0002  1.004045  0.0  0.115447  0.000111  1.002778  0.0  0.101317  0.113579  0.000223  1.004883  0.0
H  H21  1  0.72916517  0.66047028  0.60795654  1  0.059351  0.00025  0.114396  0.0002  1.004085  0.0  0.115519  0.00011  1.002817  0.0  0.101379  0.113653  0.000223  1.004925  0.0
H  H22  1  0.00938981  0.89936584  0.57954821  1  0.073516  0.000122  0.117435  0.000121  1.00959  0.0  0.118124  6.1e-05  1.00911  0.0  0.104882  0.116857  0.000133  1.010024  0.0
H  H23  1  0.49060816  0.39938115  0.42044905  1  0.073396  0.000122  0.117363  0.000121  1.009582  0.0  0.118043  6.1e-05  1.009103  0.0  0.104867  0.116784  0.000134  1.010014  0.0
H  H24  1  0.98903413  0.10449236  0.42190952  1  0.096129  8.7e-05  0.116429  7.8e-05  1.008738  0.0  0.116905  3.4e-05  1.00843  0.0  0.104702  0.115952  9.3e-05  1.009107  0.0
H  H25  1  0.51094848  0.60450247  0.57809373  1  0.096104  8.7e-05  0.116443  7.7e-05  1.008706  0.0  0.116917  3.4e-05  1.0084  0.0  0.104657  0.115969  9.5e-05  1.009074  0.0
H  H26  1  0.09703799  0.74433484  0.50015783  1  0.09141  9.3e-05  0.105456  6.9e-05  1.035413  0.0  0.106137  1.9e-05  1.034785  0.0  0.099813  0.10474  9.3e-05  1.0361  0.0
H  H27  1  0.40296396  0.24434021  0.49983729  1  0.090844  9.3e-05  0.105414  6.9e-05  1.035473  0.0  0.106095  2e-05  1.034844  0.0  0.099783  0.1047  9.3e-05  1.036157  0.0
H  H28  1  0.89801720  0.26040954  0.49896720  1  0.089278  8.3e-05  0.105636  6.7e-05  1.034064  0.0  0.106229  1.7e-05  1.033471  0.0  0.0996  0.104971  8.8e-05  1.034712  0.0
H  H29  1  0.60197003  0.76040922  0.50103344  1  0.08924  8.3e-05  0.105698  6.7e-05  1.033997  0.0  0.106276  1.7e-05  1.033419  0.0  0.099597  0.105036  8.8e-05  1.034642  0.0
C  C30  1  0.97084130  0.32843653  0.88095288  1  0.454906  0.017159  0.080984  0.018126  3.92563  0.01  0.092919  0.014434  3.93253  0.008  0.039698  0.072902  0.01423  3.91785  0.007
C  C31  1  0.52915809  0.82845143  0.11904072  1  0.455698  0.017177  0.08099  0.018144  3.926142  0.01  0.092947  0.014467  3.932965  0.008  0.039642  0.072933  0.014242  3.918337  0.007
C  C32  1  0.02793553  0.67086878  0.11499614  1  0.49872  0.015924  0.08338  0.017193  3.93603  0.01  0.094351  0.015615  3.945003  0.009  0.04116  0.076023  0.012184  3.926209  0.006
C  C33  1  0.47207927  0.17087040  0.88501279  1  0.498234  0.015936  0.083391  0.017203  3.935633  0.01  0.094364  0.015633  3.944605  0.009  0.041126  0.076048  0.012191  3.925786  0.006
C  C34  1  0.00096045  0.44680388  0.80623935  1  -0.029067  -0.001919  -0.138252  -0.000697  3.963103  -0.002  -0.139412  -0.00305  3.973779  -0.003  -0.079984  -0.136951  0.002052  3.953773  0.0
C  C35  1  0.49903606  0.94682016  0.19375215  1  -0.029302  -0.001921  -0.138215  -0.000697  3.963407  -0.002  -0.139372  -0.003062  3.974084  -0.003  -0.079956  -0.136914  0.002051  3.95407  0.0
C  C36  1  0.99819262  0.55337742  0.19031651  1  0.040761  -0.000931  -0.1361  6.7e-05  3.968271  -0.002  -0.136569  -0.00315  3.979064  -0.003  -0.078398  -0.13511  0.002723  3.959324  0.0
C  C37  1  0.50183737  0.05336876  0.80968932  1  0.040524  -0.000936  -0.136253  6.3e-05  3.968315  -0.002  -0.136718  -0.003158  3.979105  -0.003  -0.078415  -0.135257  0.002718  3.959362  0.0
C  C38  1  0.07129926  0.39298158  0.71871622  1  -0.014988  0.02595  -0.014314  0.027041  4.001517  0.016  -0.014145  0.017556  4.016489  0.01  -0.005917  -0.013194  0.025329  3.990316  0.015
C  C39  1  0.42869740  0.89300689  0.28127707  1  -0.015175  0.025976  -0.014101  0.027069  4.001475  0.016  -0.013932  0.017599  4.016446  0.01  -0.005756  -0.012958  0.02535  3.990267  0.015
C  C40  1  0.93113323  0.60899367  0.27861670  1  -0.010112  0.024329  -0.009882  0.025475  3.996217  0.015  -0.009648  0.017836  4.011489  0.01  -0.003237  -0.008728  0.022441  3.984882  0.013
C  C41  1  0.56888551  0.10900141  0.72139108  1  -0.010107  0.024325  -0.009569  0.02547  3.996017  0.015  -0.009347  0.01785  4.01128  0.01  -0.003136  -0.008395  0.022437  3.984674  0.013
C  C42  1  0.09837507  0.21834436  0.70761507  1  -0.02901  -0.000678  -0.138849  0.000317  3.972903  -0.002  -0.143873  -0.002828  3.993058  -0.003  -0.074718  -0.136134  0.003006  3.959362  0.0
C  C43  1  0.40161708  0.71836978  0.29238402  1  -0.025996  -0.000682  -0.138863  0.000315  3.972795  -0.002  -0.143882  -0.002844  3.992946  -0.003  -0.074817  -0.136145  0.002997  3.959244  0.0
C  C44  1  0.90633113  0.78403773  0.28948625  1  -0.057949  -0.002884  -0.14134  -0.001632  3.971858  -0.003  -0.147519  -0.004306  3.992949  -0.004  -0.074495  -0.138234  0.001361  3.957927  -0.001
C  C45  1  0.59366978  0.28404792  0.71051698  1  -0.05777  -0.002887  -0.141427  -0.001634  3.971745  -0.003  -0.1476  -0.004316  3.99284  -0.004  -0.074525  -0.138313  0.001355  3.957804  -0.001
C  C46  1  0.06168106  0.10712089  0.78447646  1  0.510003  0.01508  0.086292  0.015493  3.915113  0.008  0.095089  0.010694  3.927286  0.006  0.04664  0.08048  0.01387  3.904047  0.007
C  C47  1  0.43832112  0.60713614  0.21551615  1  0.510203  0.015108  0.086097  0.015521  3.915144  0.008  0.094896  0.01073  3.927317  0.006  0.0466  0.080299  0.013897  3.904069  0.007
C  C48  1  0.94390837  0.89430511  0.21234935  1  0.502863  0.015351  0.086632  0.015656  3.915308  0.009  0.09578  0.012118  3.92773  0.007  0.045498  0.080947  0.012103  3.903792  0.006
C  C49  1  0.55608243  0.39431022  0.78765646  1  0.502773  0.015354  0.086582  0.015659  3.915478  0.009  0.095723  0.012132  3.927904  0.007  0.045482  0.080909  0.012108  3.903953  0.006
C  C50  1  0.12038954  0.51388674  0.64024920  1  1.528769  0.006622  0.521552  0.007042  4.11167  0.002  0.558051  0.002742  4.096073  0.0  0.231387  0.497113  0.008648  4.120756  0.003
C  C51  1  0.37960542  0.01390781  0.35974632  1  1.529067  0.006633  0.521305  0.007052  4.111635  0.002  0.557821  0.002752  4.096044  0.0  0.231326  0.496861  0.008652  4.120728  0.003
C  C52  1  0.88078445  0.48953027  0.35755180  1  1.533836  0.005965  0.52966  0.006359  4.107654  0.002  0.565833  0.002506  4.092748  0.0  0.235002  0.505355  0.00775  4.116439  0.003
C  C53  1  0.61922850  0.98953464  0.64245234  1  1.534118  0.005964  0.529438  0.006361  4.107629  0.002  0.565647  0.00251  4.092668  0.0  0.234913  0.505133  0.007747  4.116413  0.003
C  C54  1  0.10179831  0.79826377  0.57882502  1  0.338054  7.1e-05  -0.174071  8.1e-05  3.852068  0.0  -0.16564  2e-05  3.852425  0.0  -0.1454  -0.179546  0.000122  3.851714  0.0
C  C55  1  0.39819979  0.29827316  0.42116879  1  0.339235  7.1e-05  -0.173934  8.1e-05  3.852036  0.0  -0.165466  1.7e-05  3.852393  0.0  -0.145343  -0.17941  0.00012  3.851675  0.0
C  C56  1  0.89691016  0.20629497  0.42062646  1  0.364006  5.8e-05  -0.169896  7.4e-05  3.851956  0.0  -0.161427  2.2e-05  3.852821  0.0  -0.144415  -0.175415  0.000113  3.851319  0.0
C  C57  1  0.60308087  0.70629193  0.57937239  1  0.363844  5.9e-05  -0.170107  7.4e-05  3.851905  0.0  -0.161624  2.2e-05  3.852782  0.0  -0.144499  -0.175617  0.000112  3.851252  0.0
N  N58  1  0.13149297  0.17221346  0.08834944  1  -0.222509  -0.079905  -0.425699  -0.062615  3.079048  -0.054  -0.458136  -0.069977  3.093113  -0.059  -0.27464  -0.410845  -0.057953  3.073312  -0.05
N  N59  1  0.36851509  0.67221346  0.91163329  1  -0.222474  -0.07992  -0.425813  -0.062625  3.078538  -0.054  -0.458265  -0.069956  3.092624  -0.059  -0.274692  -0.411013  -0.05807  3.072855  -0.051
N  N60  1  0.83785951  0.81702372  0.88595331  1  -0.14854  -0.010573  -0.397798  -0.006793  2.786821  -0.004  -0.429831  -0.015277  2.806315  -0.012  -0.199291  -0.38276  0.002028  2.777301  0.004
N  N61  1  0.66212375  0.31703749  0.11404055  1  -0.148931  -0.010566  -0.397876  -0.006786  2.787223  -0.004  -0.429905  -0.015279  2.806716  -0.012  -0.199444  -0.382886  0.002019  2.777727  0.004
N  N62  1  0.22681677  0.27527179  0.06183781  1  -0.285824  0.013843  0.414994  0.018251  4.36199  0.016  0.433193  0.012316  4.406333  0.008  0.092322  0.402171  0.021056  4.338041  0.02
N  N63  1  0.27318751  0.77527474  0.93815194  1  -0.286244  0.013825  0.415175  0.018238  4.361688  0.016  0.433375  0.012307  4.406034  0.008  0.092338  0.40234  0.021066  4.337734  0.02
N  N64  1  0.76584742  0.71147718  0.92767682  1  -0.334076  9.1e-05  0.41208  0.002142  4.435377  0.0  0.428964  0.004287  4.480228  0.002  0.098291  0.400924  0.000534  4.412008  -0.001
N  N65  1  0.73415371  0.21149070  0.07233061  1  -0.332924  9.4e-05  0.412207  0.002147  4.435015  0.0  0.429096  0.0043  4.479863  0.002  0.098416  0.401052  0.000534  4.411645  -0.001
N  N66  1  0.18676211  0.88511511  0.96105514  1  -0.209754  0.025953  -0.376953  0.027532  3.354386  0.021  -0.408474  0.060198  3.368769  0.046  -0.264462  -0.361032  -0.006432  3.349921  -0.008
N  N67  1  0.31323487  0.38514994  0.03895374  1  -0.210133  0.02595  -0.376829  0.027537  3.354304  0.021  -0.40835  0.060233  3.368702  0.046  -0.264461  -0.360904  -0.006435  3.349849  -0.008
N  N68  1  0.79501435  0.09776883  0.03104634  1  -0.213468  0.002964  -0.407549  0.005135  3.210611  0.01  -0.444684  0.011316  3.232117  0.014  -0.259837  -0.390144  0.003655  3.202502  0.007
N  N69  1  0.70499942  0.59777076  0.96896029  1  -0.212796  0.002953  -0.40748  0.005125  3.211094  0.01  -0.444609  0.011307  3.232608  0.014  -0.259899  -0.390086  0.003643  3.203009  0.007
N  N70  1  0.00539469  0.16030492  0.87354861  1  -1.232179  0.022801  -0.193156  0.02363  3.595555  0.018  -0.208104  0.01284  3.604784  0.011  -0.330223  -0.178354  0.026236  3.577141  0.022
N  N71  1  0.49460232  0.66032137  0.12643947  1  -1.232966  0.022816  -0.19301  0.023644  3.595777  0.018  -0.207919  0.012845  3.604977  0.011  -0.330172  -0.178199  0.026217  3.577352  0.022
N  N72  1  0.99830355  0.83971745  0.12299288  1  -1.228933  0.020612  -0.194843  0.020939  3.585975  0.014  -0.209764  0.011717  3.595665  0.006  -0.325955  -0.180094  0.022864  3.565561  0.019
N  N73  1  0.50169745  0.33972771  0.87702023  1  -1.228611  0.020609  -0.194896  0.020938  3.586131  0.014  -0.209803  0.011715  3.595811  0.006  -0.325956  -0.180133  0.022839  3.565714  0.019
O  O74  1  0.20716092  0.47571533  0.57309543  1  -1.158499  0.007828  -0.47816  0.007766  2.158177  0.007  -0.496666  0.004392  2.149223  0.004  -0.275841  -0.465378  0.008135  2.163747  0.007
O  O75  1  0.29283569  0.97573460  0.42690372  1  -1.158562  0.007837  -0.47818  0.007775  2.158053  0.007  -0.496678  0.0044  2.149089  0.004  -0.275871  -0.465369  0.00814  2.163592  0.007
O  O76  1  0.79099192  0.52893496  0.42278937  1  -1.169924  0.007121  -0.48249  0.007057  2.152967  0.006  -0.501401  0.004256  2.144383  0.004  -0.278332  -0.469408  0.007118  2.158283  0.006
O  O77  1  0.70901567  0.02893855  0.57721238  1  -1.170052  0.00712  -0.482442  0.007056  2.15308  0.006  -0.501367  0.004257  2.144476  0.004  -0.278291  -0.469346  0.007114  2.158392  0.006
O  O78  1  0.05831576  0.67125460  0.65157926  1  -1.091799  0.002964  -0.209139  0.002664  2.548884  0.002  -0.228682  0.001281  2.544406  0.001  -0.171433  -0.19523  0.003068  2.55081  0.003
O  O79  1  0.44166890  0.17127158  0.34841396  1  -1.092383  0.002966  -0.208997  0.002665  2.548886  0.002  -0.228584  0.001284  2.54442  0.001  -0.171419  -0.195089  0.003069  2.550814  0.003
O  O80  1  0.94503823  0.33255782  0.34890479  1  -1.097986  0.002635  -0.213593  0.002369  2.557772  0.002  -0.233517  0.001177  2.554163  0.001  -0.17103  -0.199499  0.00275  2.559373  0.002
O  O81  1  0.55496509  0.83256120  0.65109921  1  -1.098057  0.002633  -0.213432  0.002367  2.55757  0.002  -0.233369  0.001179  2.553946  0.001  -0.170896  -0.199342  0.002749  2.559181  0.002
