# generated using pymatgen
data_AlH7C9NO6
_symmetry_space_group_name_H-M   'P 1'
_cell_length_a   6.67430263
_cell_length_b   8.88254325
_cell_length_c   15.25241875
_cell_angle_alpha   72.92345237
_cell_angle_beta   78.04418886
_cell_angle_gamma   74.90143158
_symmetry_Int_Tables_number   1
_chemical_formula_structural   AlH7C9NO6
_chemical_formula_sum   'Al2 H14 C18 N2 O12'
_cell_volume   826.12610994
_cell_formula_units_Z   2
loop_
 _symmetry_equiv_pos_site_id
 _symmetry_equiv_pos_as_xyz
  1  'x, y, z'
loop_
 _atom_site_type_symbol
 _atom_site_label
 _atom_site_symmetry_multiplicity
 _atom_site_fract_x
 _atom_site_fract_y
 _atom_site_fract_z
 _atom_site_occupancy
 _atom_site_pbe_bader_charge
 _atom_site_pbe_bader_spin_density
 _atom_site_pbe_cm5_charge
 _atom_site_pbe_ddec_charge
 _atom_site_pbe_ddec_spin_density
 _atom_site_pbe_ddec_sum_bond_order
 _atom_site_pbe_magmom
Al  Al0  1  0.50416576  0.49753437  0.49837217  1  2.506174  0  0.399706  1.640608  0  2.592539  0
Al  Al1  1  0.00253114  0.50234001  0.49852304  1  2.505536  0  0.399027  1.647772  0  2.580074  0
H  H2  1  0.26294743  0.33426487  0.59944318  1  0.621806  0  0.359904  0.439324  0  0.837198  0
H  H3  1  0.71160229  0.69664106  0.42515002  1  0.633889  0  0.356804  0.435151  0  0.845154  0
H  H4  1  0.14158712  0.56147497  0.04659274  1  0.048281  0  0.09844  0.10631  0  1.020063  0
H  H5  1  0.81388928  0.55757273  0.93599481  1  0.044359  0  0.098396  0.104886  0  1.022821  0
H  H6  1  0.34812153  0.40062744  0.78046726  1  0.073713  0  0.102837  0.10036  0  1.020771  0
H  H7  1  0.25117995  0.39542976  0.94745017  1  0.034351  0  0.094843  0.099318  0  1.026996  0
H  H8  1  0.69876421  0.40741742  0.24571749  1  0.111016  0  0.106486  0.106853  0  1.01269  0
H  H9  1  0.79424383  0.39104307  0.08174717  1  0.088997  0  0.094729  0.09906  0  1.025277  0
H  H10  1  0.22609729  0.13719893  0.48307056  1  0.657642  0  0.318888  0.36147  0  0.939501  0
H  H11  1  0.79205660  0.86322482  0.51771638  1  0.662556  0  0.314886  0.351866  0  0.961186  0
H  H12  1  0.95823800  0.57330599  0.28456741  1  0.509239  0  0.308012  0.318581  0  0.980379  0
H  H13  1  0.89116969  0.59630830  0.17562109  1  0.444247  0  0.305523  0.29999  0  0.962261  0
H  H14  1  0.00514204  0.55327930  0.69751139  1  0.516501  0  0.309262  0.315225  0  0.978308  0
H  H15  1  0.04817943  0.59239846  0.79702770  1  0.445497  0  0.306995  0.302087  0  0.959502  0
C  C16  1  0.67563918  0.48109410  0.66445909  1  1.53623  0  0.259325  0.656596  0  4.083594  0
C  C17  1  0.85113495  0.21432458  0.50644066  1  1.536941  0  0.261151  0.606449  0  4.102507  0
C  C18  1  0.33143107  0.50834735  0.33548323  1  1.501394  0  0.26117  0.65376  0  4.087206  0
C  C19  1  0.16103353  0.78814976  0.49051690  1  1.52199  0  0.259395  0.606969  0  4.091086  0
C  C20  1  0.11026781  0.95927610  0.49201654  1  0.56721  0  0.061314  0.031344  0  4.074688  0
C  C21  1  0.90464130  0.04252097  0.50617334  1  0.605985  0  0.06424  0.038702  0  4.065706  0
C  C22  1  0.37057237  0.49567577  0.23928217  1  0.022185  0  -0.036914  -0.189221  0  3.942579  0
C  C23  1  0.63313738  0.48004237  0.76323260  1  -0.010986  0  -0.037323  -0.186219  0  3.944542  0
C  C24  1  0.20714748  0.53412855  0.18364751  1  0.474867  0  0.11734  0.325948  0  4.065904  0
C  C25  1  0.26546414  0.52602126  0.09012280  1  -0.027981  0  -0.107409  -0.263249  0  3.919599  0
C  C26  1  0.77106881  0.52249533  0.80771331  1  0.504444  0  0.1142  0.322331  0  4.073544  0
C  C27  1  0.71157034  0.52097131  0.90244406  1  -0.021067  0  -0.106555  -0.26081  0  3.921812  0
C  C28  1  0.44723198  0.43700405  0.81551153  1  -0.096394  0  -0.090237  -0.071856  0  4.057362  0
C  C29  1  0.39223155  0.43559762  0.90828333  1  -0.013952  0  -0.118606  -0.196653  0  4.041095  0
C  C30  1  0.57901706  0.44412258  0.20022575  1  -0.075863  0  -0.088696  -0.069498  0  4.048931  0
C  C31  1  0.63214568  0.43611933  0.10895164  1  -0.081598  0  -0.118172  -0.196511  0  4.043256  0
C  C32  1  0.47299852  0.48025523  0.05188738  1  -0.037796  0  -0.003298  0.103973  0  4.027163  0
C  C33  1  0.52631078  0.47892627  0.95306014  1  -0.015998  0  -0.001846  0.107163  0  4.022009  0
N  N34  1  0.00137028  0.58254111  0.21559998  1  -1.27952  0  -0.584473  -0.602401  0  3.352876  0
N  N35  1  0.95055132  0.57065252  0.76176174  1  -1.293536  0  -0.58782  -0.605731  0  3.354779  0
O  O36  1  0.52169654  0.48928855  0.62428950  1  -1.267251  0  -0.244738  -0.608103  0  2.342685  0
O  O37  1  0.00409328  0.28471340  0.49705432  1  -1.256321  0  -0.234829  -0.599855  0  2.371864  0
O  O38  1  0.13964150  0.53572649  0.37485574  1  -1.27472  0  -0.245452  -0.619452  0  2.384267  0
O  O39  1  0.35232328  0.71775728  0.48000674  1  -1.244994  0  -0.22701  -0.561001  0  2.349623  0
O  O40  1  0.48807395  0.49429962  0.37546507  1  -1.261097  0  -0.242545  -0.598713  0  2.343063  0
O  O41  1  0.00481325  0.72030435  0.50017275  1  -1.250818  0  -0.240333  -0.610891  0  2.385446  0
O  O42  1  0.86666111  0.47241830  0.62391058  1  -1.283869  0  -0.248879  -0.627737  0  2.372003  0
O  O43  1  0.65903352  0.28172176  0.51596184  1  -1.243598  0  -0.223323  -0.552035  0  2.367237  0
O  O44  1  0.25681972  0.42283890  0.54431056  1  -1.426525  0  -0.448412  -0.996714  0  2.20912  0
O  O45  1  0.74667300  0.58156154  0.45303417  1  -1.440245  0  -0.447014  -0.988396  0  2.174552  0
O  O46  1  0.28000207  0.02344804  0.47929858  1  -1.131559  0  -0.34415  -0.389396  0  2.347508  0
O  O47  1  0.73529184  0.97770468  0.51986689  1  -1.139365  0  -0.344838  -0.387653  0  2.350637  0
