# generated using pymatgen
data_ZnBH9C2N11Cl
_symmetry_space_group_name_H-M   'P 1'
_cell_length_a   4.64926996
_cell_length_b   9.78546436
_cell_length_c   11.71160964
_cell_angle_alpha   90.00002936
_cell_angle_beta   90.00031097
_cell_angle_gamma   90.00020907
_symmetry_Int_Tables_number   1
_chemical_formula_structural   ZnBH9C2N11Cl
_chemical_formula_sum   'Zn2 B2 H18 C4 N22 Cl2'
_cell_volume   532.82279009
_cell_formula_units_Z   2
loop_
 _symmetry_equiv_pos_site_id
 _symmetry_equiv_pos_as_xyz
  1  'x, y, z'
loop_
 _atom_site_type_symbol
 _atom_site_label
 _atom_site_symmetry_multiplicity
 _atom_site_fract_x
 _atom_site_fract_y
 _atom_site_fract_z
 _atom_site_occupancy
 _atom_site_hle17_bader_spin_density
 _atom_site_hle17_ddec_charge
 _atom_site_hle17_ddec_spin_density
 _atom_site_hle17_ddec_sum_bond_order
 _atom_site_hle17_magmom
 _atom_site_hse06_10hf_bader_spin_density
 _atom_site_hse06_10hf_ddec_charge
 _atom_site_hse06_10hf_ddec_spin_density
 _atom_site_hse06_10hf_ddec_sum_bond_order
 _atom_site_hse06_10hf_magmom
 _atom_site_hse06_bader_spin_density
 _atom_site_hse06_ddec_charge
 _atom_site_hse06_ddec_spin_density
 _atom_site_hse06_ddec_sum_bond_order
 _atom_site_hse06_magmom
 _atom_site_pbe_bader_spin_density
 _atom_site_pbe_cm5_charge
 _atom_site_pbe_ddec_charge
 _atom_site_pbe_ddec_spin_density
 _atom_site_pbe_ddec_sum_bond_order
 _atom_site_pbe_magmom
Zn  Zn0  1  0.97997810  0.50000291  0.74321325  1  0  0.932706  0  1.978904  0  0  0.747004  0  2.467552  0  0  0.784139  0  2.422629  0  0  0.650123  0.722115  0  2.49661  0
Zn  Zn1  1  0.02001966  0.49999579  0.24321519  1  0  0.932688  0  1.978955  0  0  0.746997  0  2.467592  0  0  0.784129  0  2.422675  0  0  0.650106  0.722109  0  2.496657  0
B  B2  1  0.53872122  0.00000374  0.63846106  1  0  0.363425  0  3.307634  0  0  0.175618  0  3.628072  0  0  0.193115  0  3.629881  0  0  -0.22653  0.164568  0  3.625946  0
B  B3  1  0.46127510  0.99999489  0.13846586  1  0  0.363365  0  3.307805  0  0  0.175575  0  3.628215  0  0  0.19307  0  3.63003  0  0  -0.226483  0.164527  0  3.626084  0
H  H4  1  0.63974975  0.58402014  0.90073693  1  0  0.324288  0  0.940915  0  0  0.30246  0  1.017316  0  0  0.308758  0  1.012927  0  0  0.276485  0.298024  0  1.020369  0
H  H5  1  0.36025232  0.41598070  0.40073958  1  0  0.324268  0  0.940941  0  0  0.302441  0  1.017338  0  0  0.308741  0  1.012948  0  0  0.276479  0.298006  0  1.020391  0
H  H6  1  0.63974695  0.41598315  0.90073434  1  0  0.324329  0  0.940898  0  0  0.302498  0  1.017302  0  0  0.308798  0  1.012908  0  0  0.276497  0.298062  0  1.020356  0
H  H7  1  0.36025513  0.58401769  0.40073619  1  0  0.324302  0  0.940903  0  0  0.302477  0  1.017298  0  0  0.308776  0  1.012907  0  0  0.276493  0.29804  0  1.020352  0
H  H8  1  0.79700701  0.00000499  0.64907389  1  0  -0.187853  0  0.963995  0  0  -0.148149  0  1.063699  0  0  -0.152905  0  1.064309  0  0  0.040664  -0.145945  0  1.063485  0
H  H9  1  0.20298731  0.99999671  0.14907557  1  0  -0.187831  0  0.963975  0  0  -0.148127  0  1.063666  0  0  -0.152881  0  1.064275  0  0  0.040656  -0.145924  0  1.063455  0
H  H10  1  0.46531977  0.00000569  0.53901010  1  0  -0.196078  0  0.967754  0  0  -0.151243  0  1.063519  0  0  -0.154597  0  1.061477  0  0  0.049526  -0.149296  0  1.064945  0
H  H11  1  0.53468164  0.99999594  0.03901419  1  0  -0.196088  0  0.967774  0  0  -0.151291  0  1.06359  0  0  -0.154644  0  1.061548  0  0  0.049505  -0.149343  0  1.065017  0
H  H12  1  0.93967441  0.71257933  0.53658068  1  0  0.334626  0  0.910333  0  0  0.31398  0  0.981997  0  0  0.320688  0  0.976658  0  0  0.296549  0.309258  0  0.985715  0
H  H13  1  0.06031621  0.28742127  0.03658689  1  0  0.334617  0  0.910582  0  0  0.313954  0  0.982249  0  0  0.320675  0  0.976898  0  0  0.296557  0.309232  0  0.985959  0
H  H14  1  0.93967921  0.28742730  0.53658401  1  0  0.334587  0  0.910484  0  0  0.31395  0  0.982125  0  0  0.320658  0  0.976787  0  0  0.296549  0.309228  0  0.985837  0
H  H15  1  0.06032216  0.71257330  0.03658868  1  0  0.334655  0  0.910469  0  0  0.313991  0  0.982145  0  0  0.320712  0  0.976794  0  0  0.296551  0.309269  0  0.985857  0
H  H16  1  0.15745509  0.85009179  0.49702766  1  0  0.347898  0  0.868972  0  0  0.330912  0  0.930675  0  0  0.337443  0  0.925267  0  0  0.320755  0.326346  0  0.934453  0
H  H17  1  0.84253971  0.14990912  0.99702955  1  0  0.347951  0  0.868981  0  0  0.330985  0  0.930664  0  0  0.337514  0  0.925258  0  0  0.320783  0.326434  0  0.934422  0
H  H18  1  0.15745667  0.14991552  0.49703094  1  0  0.347846  0  0.869012  0  0  0.330847  0  0.930741  0  0  0.337386  0  0.925322  0  0  0.320757  0.32628  0  0.934516  0
H  H19  1  0.84254673  0.85008335  0.99703481  1  0  0.347948  0  0.8691  0  0  0.330966  0  0.93078  0  0  0.337498  0  0.92537  0  0  0.320804  0.3264  0  0.934557  0
H  H20  1  0.91115374  0.49999986  0.96021153  1  0  0.317568  0  0.945728  0  0  0.303375  0  1.00996  0  0  0.309616  0  1.005607  0  0  0.264045  0.298915  0  1.013176  0
H  H21  1  0.08884701  0.50000205  0.46021362  1  0  0.317541  0  0.945728  0  0  0.303348  0  1.009966  0  0  0.309588  0  1.005614  0  0  0.264039  0.298888  0  1.013181  0
C  C22  1  0.23114057  0.77403624  0.65577875  1  0  0.57205  0  3.814043  0  0  0.512202  0  4.09391  0  0  0.536249  0  4.103439  0  0  0.357462  0.496605  0  4.086503  0
C  C23  1  0.76885169  0.22596035  0.15578219  1  0  0.572157  0  3.813494  0  0  0.512298  0  4.093383  0  0  0.536347  0  4.102911  0  0  0.357509  0.496699  0  4.085983  0
C  C24  1  0.23114060  0.22597028  0.65577949  1  0  0.572026  0  3.813749  0  0  0.512177  0  4.093624  0  0  0.536224  0  4.103152  0  0  0.357427  0.496583  0  4.086218  0
C  C25  1  0.76884736  0.77403041  0.15578229  1  0  0.57191  0  3.813493  0  0  0.512262  0  4.093112  0  0  0.53631  0  4.102642  0  0  0.357428  0.496674  0  4.085702  0
N  N26  1  0.48713686  0.83298824  0.80552617  1  0  -0.059795  0  2.890659  0  0  -0.072467  0  3.180356  0  0  -0.067626  0  3.188115  0  0  -0.070505  -0.07572  0  3.175161  0
N  N27  1  0.51286606  0.16701152  0.30553075  1  0  -0.059754  0  2.890412  0  0  -0.072427  0  3.180105  0  0  -0.06759  0  3.187868  0  0  -0.070548  -0.075678  0  3.174911  0
N  N28  1  0.48713212  0.16701780  0.80552774  1  0  -0.059617  0  2.890624  0  0  -0.072261  0  3.180275  0  0  -0.067427  0  3.188042  0  0  -0.070486  -0.075512  0  3.175081  0
N  N29  1  0.51286434  0.83298298  0.30553088  1  0  -0.059609  0  2.890623  0  0  -0.072241  0  3.180291  0  0  -0.067407  0  3.188055  0  0  -0.07045  -0.075491  0  3.175093  0
N  N30  1  0.11819307  0.77065252  0.55037637  1  0  -0.683366  0  3.108209  0  0  -0.648134  0  3.346232  0  0  -0.667893  0  3.343088  0  0  -0.569572  -0.63411  0  3.347744  0
N  N31  1  0.88182355  0.22934605  0.05037237  1  0  -0.683435  0  3.108016  0  0  -0.648198  0  3.346085  0  0  -0.667975  0  3.342908  0  0  -0.569617  -0.634189  0  3.347581  0
N  N32  1  0.11818882  0.22935578  0.55037371  1  0  -0.683255  0  3.108192  0  0  -0.648009  0  3.346206  0  0  -0.667776  0  3.343046  0  0  -0.569582  -0.633981  0  3.347721  0
N  N33  1  0.88181489  0.77064892  0.05037163  1  0  -0.68341  0  3.10805  0  0  -0.648199  0  3.346013  0  0  -0.667982  0  3.342822  0  0  -0.569635  -0.634173  0  3.347536  0
N  N34  1  0.77097642  0.50000278  0.89242565  1  0  -0.870638  0  3.01363  0  0  -0.818435  0  3.25695  0  0  -0.839099  0  3.241323  0  0  -0.796355  -0.804411  0  3.267376  0
N  N35  1  0.22902554  0.49999806  0.39242719  1  0  -0.87054  0  3.013654  0  0  -0.818341  0  3.256962  0  0  -0.839009  0  3.241341  0  0  -0.796332  -0.804318  0  3.267386  0
N  N36  1  0.41481522  0.86994193  0.69671953  1  0  -0.229259  0  3.376584  0  0  -0.12949  0  3.617866  0  0  -0.148345  0  3.636826  0  0  -0.114974  -0.117092  0  3.604497  0
N  N37  1  0.58518620  0.13005571  0.19672340  1  0  -0.229285  0  3.376568  0  0  -0.129516  0  3.617859  0  0  -0.148369  0  3.636817  0  0  -0.114981  -0.117118  0  3.604492  0
N  N38  1  0.41481450  0.13006391  0.69672195  1  0  -0.229391  0  3.376724  0  0  -0.129612  0  3.617991  0  0  -0.148466  0  3.636951  0  0  -0.114929  -0.117215  0  3.604624  0
N  N39  1  0.58517617  0.86994191  0.19672781  1  0  -0.22931  0  3.376755  0  0  -0.129614  0  3.618009  0  0  -0.148466  0  3.636966  0  0  -0.11502  -0.11722  0  3.604641  0
N  N40  1  0.19147433  0.68006114  0.73864005  1  0  -0.429105  0  3.174653  0  0  -0.356912  0  3.486261  0  0  -0.378389  0  3.494188  0  0  -0.266118  -0.34242  0  3.479907  0
N  N41  1  0.80853627  0.31993654  0.23864191  1  0  -0.429157  0  3.174484  0  0  -0.356966  0  3.486113  0  0  -0.378433  0  3.494015  0  0  -0.266115  -0.342473  0  3.47976  0
N  N42  1  0.19147079  0.31994537  0.73864340  1  0  -0.428987  0  3.174405  0  0  -0.35681  0  3.486036  0  0  -0.378283  0  3.493955  0  0  -0.266033  -0.342319  0  3.47968  0
N  N43  1  0.80853336  0.68005026  0.23864796  1  0  -0.428866  0  3.174332  0  0  -0.356755  0  3.485913  0  0  -0.378218  0  3.49381  0  0  -0.265931  -0.342266  0  3.479556  0
N  N44  1  0.35191321  0.72192748  0.83002562  1  0  -0.077541  0  3.03895  0  0  -0.061371  0  3.335912  0  0  -0.058858  0  3.34471  0  0  -0.089949  -0.063326  0  3.330039  0
N  N45  1  0.64809219  0.27807332  0.33003053  1  0  -0.077571  0  3.038706  0  0  -0.061392  0  3.335642  0  0  -0.058882  0  3.344446  0  0  -0.089933  -0.063348  0  3.32977  0
N  N46  1  0.35190719  0.27807834  0.83002724  1  0  -0.077713  0  3.039069  0  0  -0.061565  0  3.336059  0  0  -0.059052  0  3.344863  0  0  -0.090016  -0.06352  0  3.330184  0
N  N47  1  0.64809391  0.72192042  0.33002891  1  0  -0.077773  0  3.039038  0  0  -0.061645  0  3.336083  0  0  -0.059135  0  3.344888  0  0  -0.090081  -0.0636  0  3.330208  0
Cl  Cl48  1  0.70011803  0.50000364  0.58602362  1  0  -0.558757  0  1.040722  0  0  -0.490567  0  1.341965  0  0  -0.504362  0  1.317707  0  0  -0.261789  -0.481119  0  1.358568  0
Cl  Cl49  1  0.29988402  0.49999598  0.08602702  1  0  -0.558768  0  1.0407  0  0  -0.490581  0  1.341935  0  0  -0.504365  0  1.317656  0  0  -0.261786  -0.481136  0  1.358536  0
