# generated using pymatgen
data_Zn3H10C18(NO2)4
_symmetry_space_group_name_H-M   'P 1'
_cell_length_a   11.26574255
_cell_length_b   9.53054972
_cell_length_c   13.70806927
_cell_angle_alpha   87.65393493
_cell_angle_beta   89.94416003
_cell_angle_gamma   126.25597406
_symmetry_Int_Tables_number   1
_chemical_formula_structural   Zn3H10C18(NO2)4
_chemical_formula_sum   'Zn6 H20 C36 N8 O16'
_cell_volume   1185.27459795
_cell_formula_units_Z   2
loop_
 _symmetry_equiv_pos_site_id
 _symmetry_equiv_pos_as_xyz
  1  'x, y, z'
loop_
 _atom_site_type_symbol
 _atom_site_label
 _atom_site_symmetry_multiplicity
 _atom_site_fract_x
 _atom_site_fract_y
 _atom_site_fract_z
 _atom_site_occupancy
 _atom_site_pbe_bader_charge
 _atom_site_pbe_bader_spin_density
 _atom_site_pbe_cm5_charge
 _atom_site_pbe_ddec_charge
 _atom_site_pbe_ddec_spin_density
 _atom_site_pbe_ddec_sum_bond_order
 _atom_site_pbe_magmom
Zn  Zn0  1  0.57139878  0.59149906  0.23561583  1  1.233438  0  0.71903  0.766512  0  2.513004  0
Zn  Zn1  1  0.98053839  0.40972470  0.26394331  1  1.233885  0  0.71921  0.766762  0  2.513431  0
Zn  Zn2  1  0.42855633  0.40848722  0.76438433  1  1.232918  0  0.718979  0.766361  0  2.513154  0
Zn  Zn3  1  0.01941985  0.59017911  0.73610488  1  1.233529  0  0.719321  0.767178  0  2.513027  0
Zn  Zn4  1  0.75381338  0.00061500  0.24950786  1  1.308171  0  0.671647  0.909538  0  2.204948  0
Zn  Zn5  1  0.24620878  0.99938464  0.75046216  1  1.308598  0  0.671778  0.909812  0  2.204561  0
H  H6  1  0.33131384  0.84182679  0.08261264  1  0.098876  0  0.104305  0.111723  0  0.991735  0
H  H7  1  0.48997539  0.15754951  0.41761210  1  0.101645  0  0.103985  0.111248  0  0.991867  0
H  H8  1  0.66869148  0.15819601  0.91740528  1  0.099101  0  0.104305  0.111725  0  0.991919  0
H  H9  1  0.51000023  0.84240323  0.58240272  1  0.100923  0  0.10404  0.111264  0  0.991906  0
H  H10  1  0.13833091  0.72266721  0.95649032  1  0.111634  0  0.105937  0.11951  0  1.013068  0
H  H11  1  0.41554323  0.27612486  0.54389517  1  0.102778  0  0.1062  0.119944  0  1.012055  0
H  H12  1  0.86164107  0.27729778  0.04350701  1  0.111451  0  0.10596  0.119509  0  1.013256  0
H  H13  1  0.58443746  0.72379361  0.45608638  1  0.102783  0  0.106169  0.119846  0  1.011866  0
H  H14  1  0.55702939  0.67167470  0.93101779  1  0.090044  0  0.105395  0.115614  0  1.031354  0
H  H15  1  0.88542821  0.32747952  0.56949207  1  0.090345  0  0.105428  0.115834  0  1.031318  0
H  H16  1  0.44296926  0.32833120  0.06898950  1  0.090246  0  0.105364  0.115555  0  1.031126  0
H  H17  1  0.11461360  0.67258428  0.43049917  1  0.090403  0  0.105434  0.115805  0  1.031356  0
H  H18  1  0.03212182  0.25287490  0.68811603  1  0.088965  0  0.11398  0.103411  0  0.948144  0
H  H19  1  0.77837719  0.74524626  0.81275659  1  0.073725  0  0.114072  0.103087  0  0.947783  0
H  H20  1  0.96793233  0.74717810  0.31188911  1  0.077869  0  0.113932  0.103296  0  0.948205  0
H  H21  1  0.22164367  0.25475966  0.18722750  1  0.073692  0  0.11403  0.103067  0  0.94749  0
H  H22  1  0.14594947  0.41971711  0.59503838  1  0.108036  0  0.124443  0.122157  0  0.967444  0
H  H23  1  0.72516222  0.57828967  0.90567412  1  0.127705  0  0.124146  0.121295  0  0.970195  0
H  H24  1  0.85403370  0.58034304  0.40496525  1  0.108943  0  0.12444  0.122212  0  0.967525  0
H  H25  1  0.27478112  0.42170681  0.09432032  1  0.127364  0  0.124158  0.121245  0  0.970202  0
C  C26  1  0.55618741  0.80221561  0.09459304  1  1.516204  0  0.214899  0.581395  0  4.167937  0
C  C27  1  0.75491431  0.19865885  0.40530838  1  1.55364  0  0.214928  0.582914  0  4.168097  0
C  C28  1  0.44384494  0.19783105  0.90538157  1  1.516876  0  0.214823  0.581163  0  4.167636  0
C  C29  1  0.24507320  0.80129640  0.59471341  1  1.553266  0  0.215056  0.583147  0  4.167847  0
C  C30  1  0.45588374  0.76583483  0.01297796  1  -0.006449  0  -0.027436  -0.053567  0  4.018402  0
C  C31  1  0.69049954  0.23380157  0.48729740  1  -0.004434  0  -0.027481  -0.052964  0  4.016976  0
C  C32  1  0.54413916  0.23421958  0.98702359  1  -0.007571  0  -0.027453  -0.053631  0  4.018327  0
C  C33  1  0.30948105  0.76615756  0.51271131  1  -0.004454  0  -0.027554  -0.05312  0  4.017272  0
C  C34  1  0.33913059  0.78211448  0.01916325  1  -0.031917  0  -0.087999  -0.09368  0  3.976124  0
C  C35  1  0.55738812  0.21729657  0.48105308  1  -0.046697  0  -0.087445  -0.093683  0  3.975377  0
C  C36  1  0.66086134  0.21789753  0.98083865  1  -0.032244  0  -0.088084  -0.093908  0  3.976484  0
C  C37  1  0.44259690  0.78268740  0.51895955  1  -0.045849  0  -0.087452  -0.093669  0  3.975391  0
C  C38  1  0.23140365  0.71626181  0.94872084  1  -0.019049  0  -0.093778  -0.161487  0  3.97352  0
C  C39  1  0.51509911  0.28273325  0.55158275  1  -0.00751  0  -0.093847  -0.161102  0  3.972434  0
C  C40  1  0.76860215  0.28371754  0.05126366  1  -0.018928  0  -0.093714  -0.161161  0  3.972961  0
C  C41  1  0.48488004  0.71723544  0.44843513  1  -0.007114  0  -0.093654  -0.160809  0  3.971751  0
C  C42  1  0.24506055  0.63757343  0.86940966  1  0.362675  0  0.087859  0.164879  0  4.014929  0
C  C43  1  0.60711233  0.36105635  0.63103847  1  0.355338  0  0.087976  0.164977  0  4.014046  0
C  C44  1  0.75495674  0.36243602  0.13057553  1  0.362509  0  0.087825  0.164825  0  4.014266  0
C  C45  1  0.39284451  0.63889080  0.36898703  1  0.356219  0  0.087643  0.164658  0  4.013545  0
C  C46  1  0.36695636  0.63116474  0.86129817  1  0.312055  0  0.085163  0.15947  0  4.065468  0
C  C47  1  0.73534170  0.36735240  0.63926927  1  0.357541  0  0.084816  0.160101  0  4.06395  0
C  C48  1  0.63308732  0.36888861  0.13869279  1  0.310411  0  0.085133  0.159352  0  4.065069  0
C  C49  1  0.26461325  0.63258384  0.36073722  1  0.375904  0  0.084805  0.159907  0  4.063955  0
C  C50  1  0.47094644  0.69074008  0.93285652  1  0.043748  0  -0.090008  -0.175179  0  3.970862  0
C  C51  1  0.78018817  0.30824280  0.56760145  1  0.003207  0  -0.090408  -0.176127  0  3.970576  0
C  C52  1  0.52908115  0.30929708  0.06714858  1  0.044598  0  -0.089999  -0.174947  0  3.970674  0
C  C53  1  0.21981034  0.69174151  0.43240372  1  0.002206  0  -0.090356  -0.175918  0  3.970748  0
C  C54  1  0.21927172  0.48616925  0.74358954  1  1.024013  0  0.219341  0.341795  0  3.953477  0
C  C55  1  0.73222773  0.51205010  0.75708027  1  1.036896  0  0.220065  0.343823  0  3.953639  0
C  C56  1  0.78076200  0.51388193  0.25641019  1  1.02389  0  0.219456  0.341769  0  3.953082  0
C  C57  1  0.26772894  0.48787893  0.24292776  1  1.036906  0  0.220125  0.343792  0  3.953294  0
C  C58  1  0.14706561  0.35658475  0.66409798  1  0.432648  0  -0.058388  -0.09547  0  3.926125  0
C  C59  1  0.78957209  0.64156747  0.83664140  1  0.429882  0  -0.058823  -0.094978  0  3.925135  0
C  C60  1  0.85297627  0.64350586  0.33589887  1  0.444133  0  -0.058287  -0.095379  0  3.926164  0
C  C61  1  0.21040963  0.35842589  0.16336093  1  0.429909  0  -0.058834  -0.094995  0  3.925113  0
N  N62  1  0.15316852  0.54576706  0.79250726  1  -1.224546  0  -0.379684  -0.431456  0  3.502544  0
N  N63  1  0.60679852  0.45271952  0.70800335  1  -1.240744  0  -0.38018  -0.432986  0  3.504524  0
N  N64  1  0.84684132  0.45423283  0.20749196  1  -1.223683  0  -0.379657  -0.431436  0  3.501717  0
N  N65  1  0.39316442  0.54724513  0.29200143  1  -1.241073  0  -0.380192  -0.43293  0  3.504165  0
N  N66  1  0.34891906  0.53903299  0.78040068  1  -1.251422  0  -0.380358  -0.390447  0  3.544228  0
N  N67  1  0.80909359  0.45920306  0.72032828  1  -1.253448  0  -0.380921  -0.392751  0  3.545175  0
N  N68  1  0.65113353  0.46105770  0.21958271  1  -1.25102  0  -0.380374  -0.390536  0  3.54432  0
N  N69  1  0.19085549  0.54071614  0.27969449  1  -1.272105  0  -0.38078  -0.392351  0  3.544895  0
O  O70  1  0.59250704  0.92084868  0.15399020  1  -1.157503  0  -0.304112  -0.523535  0  2.319334  0
O  O71  1  0.67288326  0.07998084  0.34589435  1  -1.156543  0  -0.30411  -0.524742  0  2.321429  0
O  O72  1  0.40755000  0.07924201  0.84597001  1  -1.157289  0  -0.304064  -0.52348  0  2.319429  0
O  O73  1  0.32709199  0.91998714  0.65412196  1  -1.156543  0  -0.304277  -0.524991  0  2.321727  0
O  O74  1  0.59827260  0.70331179  0.10145314  1  -1.166233  0  -0.330531  -0.547372  0  2.318845  0
O  O75  1  0.89594275  0.29856925  0.39826288  1  -1.195773  0  -0.330238  -0.547356  0  2.319053  0
O  O76  1  0.40173481  0.29672765  0.89856938  1  -1.1666  0  -0.330484  -0.547288  0  2.318412  0
O  O77  1  0.10405378  0.70138273  0.60176382  1  -1.195564  0  -0.330252  -0.547491  0  2.319173  0
O  O78  1  0.76721880  0.80098477  0.27323084  1  -0.648556  0  -0.317037  -0.493619  0  2.10639  0
O  O79  1  0.96702034  0.20046361  0.22606021  1  -0.648009  0  -0.316735  -0.493925  0  2.109029  0
O  O80  1  0.23279905  0.19905235  0.72668152  1  -0.648244  0  -0.317044  -0.49363  0  2.106553  0
O  O81  1  0.03301675  0.79949316  0.77397441  1  -0.648018  0  -0.316904  -0.494264  0  2.108683  0
O  O82  1  0.22063289  0.28353486  0.63565787  1  -0.569756  0  -0.146597  -0.075012  0  2.239121  0
O  O83  1  0.93621016  0.71461827  0.86495599  1  -0.568127  0  -0.146654  -0.074513  0  2.241577  0
O  O84  1  0.77943312  0.71657554  0.36428930  1  -0.570878  0  -0.146643  -0.074908  0  2.23897  0
O  O85  1  0.06375686  0.28532614  0.13505653  1  -0.567844  0  -0.146774  -0.07468  0  2.24172  0
