# generated using pymatgen
data_ZnH28C26(N3O2)2
_symmetry_space_group_name_H-M   'P 1'
_cell_length_a   7.65104156
_cell_length_b   10.93431374
_cell_length_c   16.06000000
_cell_angle_alpha   86.35268905
_cell_angle_beta   79.52397154
_cell_angle_gamma   69.52096844
_symmetry_Int_Tables_number   1
_chemical_formula_structural   ZnH28C26(N3O2)2
_chemical_formula_sum   'Zn2 H56 C52 N12 O8'
_cell_volume   1237.66870644
_cell_formula_units_Z   2
loop_
 _symmetry_equiv_pos_site_id
 _symmetry_equiv_pos_as_xyz
  1  'x, y, z'
loop_
 _atom_site_type_symbol
 _atom_site_label
 _atom_site_symmetry_multiplicity
 _atom_site_fract_x
 _atom_site_fract_y
 _atom_site_fract_z
 _atom_site_occupancy
 _atom_site_hle17_bader_spin_density
 _atom_site_hle17_ddec_charge
 _atom_site_hle17_ddec_spin_density
 _atom_site_hle17_ddec_sum_bond_order
 _atom_site_hle17_magmom
 _atom_site_hse06_10hf_bader_spin_density
 _atom_site_hse06_10hf_ddec_charge
 _atom_site_hse06_10hf_ddec_spin_density
 _atom_site_hse06_10hf_ddec_sum_bond_order
 _atom_site_hse06_10hf_magmom
 _atom_site_hse06_bader_spin_density
 _atom_site_hse06_ddec_charge
 _atom_site_hse06_ddec_spin_density
 _atom_site_hse06_ddec_sum_bond_order
 _atom_site_hse06_magmom
 _atom_site_pbe_bader_charge
 _atom_site_pbe_bader_spin_density
 _atom_site_pbe_cm5_charge
 _atom_site_pbe_ddec_charge
 _atom_site_pbe_ddec_spin_density
 _atom_site_pbe_ddec_sum_bond_order
 _atom_site_pbe_magmom
Zn  Zn0  1  0.23813555  0.52320606  0.24998670  1  0  1.011601  0  1.884755  0  0  0.815745  0  2.370122  0  0  0.861763  0  2.315095  0  1.25968  0  0.705799  0.783466  0  2.408151  0
Zn  Zn1  1  0.76186277  0.47679021  0.75001385  1  0  1.011655  0  1.884744  0  0  0.815811  0  2.370092  0  0  0.861856  0  2.315091  0  1.259753  0  0.705873  0.783541  0  2.40813  0
H  H2  1  0.51402225  0.72375435  0.41025159  1  0  0.109759  0  0.921305  0  0  0.130377  0  0.973247  0  0  0.13265  0  0.972249  0  0.045406  0  0.105696  0.128801  0  0.974039  0
H  H3  1  0.76133227  0.72320179  0.08965947  1  0  0.110187  0  0.92093  0  0  0.13057  0  0.973001  0  0  0.132856  0  0.971924  0  0.046914  0  0.105586  0.128944  0  0.973877  0
H  H4  1  0.48597146  0.27624581  0.58974795  1  0  0.109735  0  0.921345  0  0  0.130343  0  0.973329  0  0  0.132613  0  0.972331  0  0.045415  0  0.105697  0.12877  0  0.974118  0
H  H5  1  0.23866228  0.27679935  0.91034058  1  0  0.11018  0  0.920931  0  0  0.130575  0  0.972986  0  0  0.132848  0  0.971922  0  0.047243  0  0.105591  0.128948  0  0.973858  0
H  H6  1  0.73148692  0.65110566  0.34472534  1  0  0.104373  0  0.954547  0  0  0.115756  0  1.024167  0  0  0.117541  0  1.023579  0  0.035374  0  0.099484  0.114496  0  1.024584  0
H  H7  1  0.61639233  0.65087039  0.15536898  1  0  0.104586  0  0.95604  0  0  0.116057  0  1.025212  0  0  0.117782  0  1.024684  0  0.07173  0  0.099552  0.114888  0  1.025492  0
H  H8  1  0.26850559  0.34889157  0.65527754  1  0  0.104369  0  0.954665  0  0  0.115775  0  1.024268  0  0  0.11756  0  1.023677  0  0.035331  0  0.099529  0.114515  0  1.024685  0
H  H9  1  0.38360369  0.34912783  0.84462983  1  0  0.104667  0  0.956016  0  0  0.116092  0  1.025226  0  0  0.117817  0  1.024693  0  0.071821  0  0.099579  0.114921  0  1.025505  0
H  H10  1  0.37236317  0.94299297  0.39933937  1  0  0.088008  0  0.963591  0  0  0.097455  0  1.027372  0  0  0.099729  0  1.027733  0  0.076666  0  0.096544  0.0958  0  1.0273  0
H  H11  1  0.68512062  0.94252437  0.10045116  1  0  0.087636  0  0.963264  0  0  0.097092  0  1.02708  0  0  0.099412  0  1.027392  0  0.074064  0  0.096481  0.09545  0  1.026951  0
H  H12  1  0.62763368  0.05700622  0.60066243  1  0  0.088011  0  0.963522  0  0  0.097439  0  1.027331  0  0  0.099712  0  1.027693  0  0.07658  0  0.096525  0.095783  0  1.027261  0
H  H13  1  0.31487854  0.05747287  0.89954928  1  0  0.087615  0  0.96329  0  0  0.097067  0  1.027115  0  0  0.099388  0  1.027426  0  0.074061  0  0.096464  0.095425  0  1.026987  0
H  H14  1  0.34001466  0.15285063  0.32423353  1  0  0.075946  0  0.980914  0  0  0.086065  0  1.043967  0  0  0.088095  0  1.044164  0  0.026465  0  0.09101  0.084649  0  1.04378  0
H  H15  1  0.50898297  0.15258899  0.17549335  1  0  0.076104  0  0.980209  0  0  0.08675  0  1.042807  0  0  0.088709  0  1.043087  0  0.062726  0  0.091135  0.085369  0  1.04267  0
H  H16  1  0.65998534  0.84714758  0.67576680  1  0  0.075967  0  0.980909  0  0  0.086052  0  1.043998  0  0  0.088081  0  1.044198  0  0.026518  0  0.091005  0.084636  0  1.04381  0
H  H17  1  0.49101787  0.84741020  0.82450499  1  0  0.076106  0  0.980218  0  0  0.086765  0  1.042795  0  0  0.088724  0  1.043071  0  0.062741  0  0.091139  0.085383  0  1.042659  0
H  H18  1  0.39958707  0.38779029  0.41539022  1  0  0.105119  0  0.95617  0  0  0.114004  0  1.016833  0  0  0.116586  0  1.0141  0  0.182098  0  0.135012  0.112048  0  1.018844  0
H  H19  1  0.21262411  0.38785863  0.08452813  1  0  0.105534  0  0.955696  0  0  0.114652  0  1.016108  0  0  0.117215  0  1.013378  0  0.167651  0  0.135134  0.112735  0  1.018047  0
H  H20  1  0.60041790  0.61220597  0.58461101  1  0  0.105143  0  0.956131  0  0  0.114026  0  1.016793  0  0  0.116609  0  1.014056  0  0.182321  0  0.135023  0.11207  0  1.018803  0
H  H21  1  0.78737770  0.61213861  0.91547208  1  0  0.105548  0  0.955696  0  0  0.114663  0  1.016117  0  0  0.117226  0  1.013385  0  0.167635  0  0.135132  0.112748  0  1.018056  0
H  H22  1  0.88543987  0.41647450  0.34072064  1  0  0.125708  0  0.963551  0  0  0.131379  0  1.030492  0  0  0.135186  0  1.02607  0  0.230406  0  0.143002  0.128517  0  1.033654  0
H  H23  1  0.69796978  0.41639542  0.15955457  1  0  0.125283  0  0.964052  0  0  0.131194  0  1.030674  0  0  0.134975  0  1.026319  0  0.229154  0  0.142776  0.128326  0  1.033879  0
H  H24  1  0.11456460  0.58352274  0.65927996  1  0  0.125798  0  0.963611  0  0  0.131427  0  1.030572  0  0  0.135229  0  1.026158  0  0.230925  0  0.143022  0.128567  0  1.033728  0
H  H25  1  0.30202729  0.58360865  0.84044576  1  0  0.125272  0  0.964114  0  0  0.131174  0  1.030745  0  0  0.134953  0  1.026395  0  0.229388  0  0.142766  0.128307  0  1.033949  0
H  H26  1  0.74125319  0.32834540  0.47527141  1  0  0.089745  0  0.932429  0  0  0.106005  0  0.993069  0  0  0.106923  0  0.992132  0  0.079949  0  0.118299  0.105257  0  0.993768  0
H  H27  1  0.93050520  0.32832978  0.02503630  1  0  0.089658  0  0.932308  0  0  0.105116  0  0.993718  0  0  0.106107  0  0.992769  0  0.07999  0  0.11824  0.1044  0  0.994287  0
H  H28  1  0.25875129  0.67165184  0.52472857  1  0  0.089726  0  0.932443  0  0  0.105979  0  0.993057  0  0  0.106898  0  0.992117  0  0.079917  0  0.118281  0.105232  0  0.993756  0
H  H29  1  0.06949405  0.67167527  0.97496317  1  0  0.089729  0  0.932287  0  0  0.105179  0  0.993689  0  0  0.106172  0  0.992737  0  0.080073  0  0.118278  0.104467  0  0.99426  0
H  H30  1  0.84529324  0.32047779  0.56629992  1  0  0.097724  0  0.945193  0  0  0.110541  0  1.011802  0  0  0.111516  0  1.011601  0  0.107263  0  0.118513  0.109688  0  1.012143  0
H  H31  1  0.83450234  0.32055101  0.93393509  1  0  0.097494  0  0.943797  0  0  0.109717  0  1.011082  0  0  0.110713  0  1.010875  0  0.108168  0  0.118237  0.108933  0  1.011271  0
H  H32  1  0.15470857  0.67951945  0.43369966  1  0  0.097662  0  0.945329  0  0  0.110531  0  1.011846  0  0  0.111503  0  1.01165  0  0.107243  0  0.118532  0.109677  0  1.012188  0
H  H33  1  0.16549690  0.67945404  0.06606314  1  0  0.097466  0  0.943807  0  0  0.109697  0  1.011069  0  0  0.110695  0  1.010858  0  0.108163  0  0.118229  0.108916  0  1.011261  0
H  H34  1  0.10001369  0.22419993  0.61189957  1  0  0.104605  0  0.991842  0  0  0.118915  0  1.066653  0  0  0.120929  0  1.06503  0  0.059272  0  0.085152  0.117285  0  1.06802  0
H  H35  1  0.67552248  0.22460019  0.88840866  1  0  0.10329  0  0.993288  0  0  0.117316  0  1.068821  0  0  0.119318  0  1.067205  0  0.051495  0  0.084904  0.115826  0  1.069957  0
H  H36  1  0.89999295  0.77579829  0.38810018  1  0  0.104626  0  0.991776  0  0  0.118899  0  1.066647  0  0  0.120911  0  1.065024  0  0.059273  0  0.085166  0.117271  0  1.068012  0
H  H37  1  0.32447313  0.77540681  0.11159104  1  0  0.103413  0  0.993302  0  0  0.117393  0  1.068842  0  0  0.119393  0  1.067224  0  0.051513  0  0.084927  0.115904  0  1.069977  0
H  H38  1  0.19045277  0.07497216  0.66345165  1  0  0.108736  0  0.988039  0  0  0.130532  0  1.047091  0  0  0.130817  0  1.049632  0  0.057  0  0.089105  0.130234  0  1.045414  0
H  H39  1  0.73428771  0.07550227  0.83667945  1  0  0.10712  0  0.987568  0  0  0.128889  0  1.047176  0  0  0.12914  0  1.049743  0  0.040393  0  0.088532  0.128611  0  1.045502  0
H  H40  1  0.80955171  0.92502507  0.33654958  1  0  0.108727  0  0.988059  0  0  0.130553  0  1.047075  0  0  0.130839  0  1.049615  0  0.057068  0  0.089095  0.130255  0  1.045398  0
H  H41  1  0.26570790  0.92450473  0.16332087  1  0  0.107196  0  0.987445  0  0  0.128967  0  1.047043  0  0  0.129219  0  1.049606  0  0.040322  0  0.088561  0.128689  0  1.045371  0
H  H42  1  0.94440835  0.16449144  0.68402707  1  0  0.1218  0  0.961451  0  0  0.142031  0  1.025264  0  0  0.143644  0  1.024528  0  0.060014  0  0.092509  0.140742  0  1.025943  0
H  H43  1  0.89080047  0.16503619  0.81619066  1  0  0.120529  0  0.961641  0  0  0.141383  0  1.024951  0  0  0.143021  0  1.024164  0  0.062004  0  0.09253  0.140109  0  1.025621  0
H  H44  1  0.05559613  0.83550579  0.31597354  1  0  0.121771  0  0.961475  0  0  0.142014  0  1.025283  0  0  0.143629  0  1.024543  0  0.059962  0  0.092501  0.140724  0  1.025964  0
H  H45  1  0.10919611  0.83496885  0.18380842  1  0  0.12053  0  0.961701  0  0  0.141385  0  1.024997  0  0  0.14302  0  1.024215  0  0.062042  0  0.092528  0.140122  0  1.02566  0
H  H46  1  0.76649045  0.24963419  0.36617063  1  0  0.104531  0  0.994601  0  0  0.123238  0  1.059502  0  0  0.124556  0  1.059043  0  0.03137  0  0.085552  0.122084  0  1.060116  0
H  H47  1  0.98435314  0.24927493  0.13394096  1  0  0.104384  0  0.994406  0  0  0.123495  0  1.058899  0  0  0.12483  0  1.058418  0  0.040631  0  0.085725  0.122412  0  1.059386  0
H  H48  1  0.23351851  0.75036207  0.63382776  1  0  0.104592  0  0.994462  0  0  0.123242  0  1.059439  0  0  0.124562  0  1.058983  0  0.031304  0  0.085549  0.122088  0  1.060053  0
H  H49  1  0.01564394  0.75072914  0.86605749  1  0  0.104405  0  0.994408  0  0  0.123513  0  1.058904  0  0  0.124849  0  1.058422  0  0.040692  0  0.085728  0.122432  0  1.059392  0
H  H50  1  0.65999864  0.12910333  0.37132471  1  0  0.107124  0  0.961771  0  0  0.127821  0  1.024703  0  0  0.128498  0  1.025789  0  0.066511  0  0.089687  0.127242  0  1.024094  0
H  H51  1  0.21129092  0.12863961  0.12867463  1  0  0.106127  0  0.962533  0  0  0.127085  0  1.025357  0  0  0.127789  0  1.026418  0  0.037324  0  0.089775  0.126563  0  1.024624  0
H  H52  1  0.34000703  0.87089684  0.62867255  1  0  0.107109  0  0.961729  0  0  0.127803  0  1.024654  0  0  0.12848  0  1.025739  0  0.066372  0  0.089664  0.127233  0  1.024037  0
H  H53  1  0.78870433  0.87136544  0.87132581  1  0  0.106113  0  0.962489  0  0  0.127063  0  1.02533  0  0  0.12777  0  1.026386  0  0.037317  0  0.08976  0.126541  0  1.024597  0
H  H54  1  0.87690796  0.10703420  0.30469263  1  0  0.10891  0  0.970974  0  0  0.134158  0  1.025101  0  0  0.135331  0  1.025211  0  0.02387  0  0.092678  0.133209  0  1.025186  0
H  H55  1  0.01651070  0.10664467  0.19543469  1  0  0.108285  0  0.970764  0  0  0.133218  0  1.02546  0  0  0.134423  0  1.025547  0  0.00986  0  0.092335  0.132385  0  1.025398  0
H  H56  1  0.12310099  0.89296206  0.69530700  1  0  0.108997  0  0.970931  0  0  0.1342  0  1.025096  0  0  0.135378  0  1.0252  0  0.02391  0  0.092697  0.133251  0  1.025183  0
H  H57  1  0.98348491  0.89336233  0.80456439  1  0  0.108299  0  0.970741  0  0  0.133227  0  1.025443  0  0  0.134425  0  1.025542  0  0.009828  0  0.092356  0.132394  0  1.025382  0
C  C58  1  0.50391284  0.59724395  0.31837625  1  0  0.6894  0  3.872124  0  0  0.64146  0  4.177563  0  0  0.673798  0  4.171876  0  1.558541  0  0.203078  0.61956  0  4.180538  0
C  C59  1  0.89804203  0.59689738  0.18154690  1  0  0.688523  0  3.874256  0  0  0.640344  0  4.179966  0  0  0.67263  0  4.1743  0  1.551853  0  0.201863  0.618475  0  4.182974  0
C  C60  1  0.49608583  0.40275427  0.68162482  1  0  0.689356  0  3.87211  0  0  0.641428  0  4.177563  0  0  0.673765  0  4.171871  0  1.558626  0  0.20306  0.619527  0  4.180543  0
C  C61  1  0.10195713  0.40309986  0.81845230  1  0  0.688506  0  3.874307  0  0  0.64032  0  4.180029  0  0  0.672607  0  4.174355  0  1.551681  0  0.201856  0.618447  0  4.183036  0
C  C62  1  0.57948826  0.69893512  0.34370496  1  0  -0.302833  0  3.705565  0  0  -0.345377  0  3.944057  0  0  -0.351041  0  3.952733  0  -0.001528  0  -0.162051  -0.341468  0  3.938119  0
C  C63  1  0.72066264  0.69863834  0.15625493  1  0  -0.303568  0  3.706261  0  0  -0.345586  0  3.944949  0  0  -0.351119  0  3.953414  0  -0.034341  0  -0.161435  -0.34183  0  3.939133  0
C  C64  1  0.42050593  0.30106407  0.65629520  1  0  -0.302711  0  3.705492  0  0  -0.345357  0  3.944185  0  0  -0.351012  0  3.952849  0  -0.001569  0  -0.162087  -0.341439  0  3.938219  0
C  C65  1  0.27933337  0.30135987  0.84374387  1  0  -0.303662  0  3.706387  0  0  -0.345648  0  3.945092  0  0  -0.351177  0  3.953575  0  -0.034797  0  -0.161477  -0.341883  0  3.939264  0
C  C66  1  0.54637234  0.82319820  0.29295987  1  0  0.08087  0  3.690432  0  0  0.097432  0  3.921265  0  0  0.097577  0  3.944925  0  0.00146  0  -0.005614  0.097302  0  3.905302  0
C  C67  1  0.62978997  0.82306445  0.20687501  1  0  0.082957  0  3.688627  0  0  0.097887  0  3.920569  0  0  0.098004  0  3.944212  0  -0.052813  0  -0.005178  0.097836  0  3.904564  0
C  C68  1  0.45362354  0.17680294  0.70704068  1  0  0.080821  0  3.690489  0  0  0.097405  0  3.92132  0  0  0.097551  0  3.944977  0  0.001447  0  -0.005631  0.097275  0  3.905362  0
C  C69  1  0.37020821  0.17693474  0.79312419  1  0  0.082956  0  3.6886  0  0  0.097906  0  3.920514  0  0  0.098022  0  3.944152  0  -0.05284  0  -0.005146  0.097851  0  3.90451  0
C  C70  1  0.44081000  0.94274305  0.33341561  1  0  -0.118795  0  3.747685  0  0  -0.137305  0  3.993454  0  0  -0.139597  0  4.014109  0  -0.072417  0  -0.092515  -0.135779  0  3.979583  0
C  C71  1  0.61675893  0.94246579  0.16636471  1  0  -0.117821  0  3.746012  0  0  -0.135947  0  3.992125  0  0  -0.138257  0  4.012721  0  -0.095152  0  -0.092096  -0.134367  0  3.978134  0
C  C72  1  0.55918903  0.05725712  0.66658471  1  0  -0.118767  0  3.747656  0  0  -0.137252  0  3.993399  0  0  -0.139544  0  4.014054  0  -0.072323  0  -0.092509  -0.135727  0  3.979532  0
C  C73  1  0.38324059  0.05753339  0.83363437  1  0  -0.1177  0  3.746074  0  0  -0.135819  0  3.992163  0  0  -0.138132  0  4.012768  0  -0.095481  0  -0.092037  -0.134239  0  3.978172  0
C  C74  1  0.42351682  0.06111721  0.29148101  1  0  -0.078565  0  3.815536  0  0  -0.090571  0  4.064798  0  0  -0.091908  0  4.085197  0  -0.029314  0  -0.100286  -0.089589  0  4.05096  0
C  C75  1  0.51649228  0.06097858  0.20826583  1  0  -0.079703  0  3.814484  0  0  -0.092353  0  4.063801  0  0  -0.09365  0  4.084277  0  0.001705  0  -0.100443  -0.091378  0  4.049951  0
C  C76  1  0.57648171  0.93888393  0.70851807  1  0  -0.0786  0  3.815562  0  0  -0.090571  0  4.064813  0  0  -0.091908  0  4.085212  0  -0.029342  0  -0.100272  -0.08959  0  4.050976  0
C  C77  1  0.48350542  0.93902158  0.79173461  1  0  -0.07975  0  3.814598  0  0  -0.092411  0  4.063903  0  0  -0.093706  0  4.084375  0  0.002115  0  -0.10046  -0.091435  0  4.050052  0
C  C78  1  0.26255810  0.37846710  0.41632933  1  0  0.187627  0  3.719408  0  0  0.133437  0  4.011071  0  0  0.144567  0  4.023055  0  0.946245  0  0.145355  0.126326  0  4.002497  0
C  C79  1  0.35895753  0.37856765  0.08366336  1  0  0.18758  0  3.717608  0  0  0.133329  0  4.009278  0  0  0.144492  0  4.021254  0  0.968821  0  0.146185  0.126157  0  4.000781  0
C  C80  1  0.73744553  0.62152917  0.58367202  1  0  0.187674  0  3.71938  0  0  0.13348  0  4.011041  0  0  0.144612  0  4.023024  0  0.946188  0  0.14537  0.126369  0  4.002467  0
C  C81  1  0.64104562  0.62142959  0.91633674  1  0  0.187448  0  3.717566  0  0  0.133174  0  4.009274  0  0  0.144338  0  4.021249  0  0.968811  0  0.14612  0.126001  0  4.000778  0
C  C82  1  0.00426616  0.39427650  0.37462039  1  0  0.17699  0  3.598375  0  0  0.099228  0  3.860803  0  0  0.113892  0  3.870672  0  0.954576  0  0.170861  0.090051  0  3.853602  0
C  C83  1  0.60135408  0.39426186  0.12560264  1  0  0.175468  0  3.597707  0  0  0.097351  0  3.860522  0  0  0.112016  0  3.870413  0  0.983273  0  0.169412  0.088115  0  3.853451  0
C  C84  1  0.99573650  0.60572171  0.62538157  1  0  0.176798  0  3.598428  0  0  0.099111  0  3.860857  0  0  0.113771  0  3.870732  0  0.953968  0  0.170798  0.089936  0  3.853654  0
C  C85  1  0.39864432  0.60574221  0.87439695  1  0  0.175425  0  3.597863  0  0  0.097252  0  3.860635  0  0  0.111924  0  3.870516  0  0.983051  0  0.169293  0.088017  0  3.853561  0
C  C86  1  0.87167406  0.28407828  0.50159939  1  0  -0.047478  0  3.637338  0  0  -0.127813  0  3.89101  0  0  -0.123412  0  3.901085  0  0.299645  0  -0.0449  -0.130473  0  3.884145  0
C  C87  1  0.84436646  0.28412318  0.99864842  1  0  -0.047008  0  3.637428  0  0  -0.12568  0  3.889389  0  0  -0.121432  0  3.899639  0  0.222759  0  -0.044576  -0.128246  0  3.882276  0
C  C88  1  0.12832860  0.71591994  0.49840071  1  0  -0.047446  0  3.637453  0  0  -0.127682  0  3.890914  0  0  -0.123288  0  3.900998  0  0.299682  0  -0.044866  -0.130345  0  3.88405  0
C  C89  1  0.15563460  0.71588089  0.00135093  1  0  -0.047067  0  3.637518  0  0  -0.12579  0  3.889419  0  0  -0.121539  0  3.899662  0  0.222778  0  -0.044602  -0.128375  0  3.882337  0
C  C90  1  0.93885190  0.13622117  0.50018922  1  0  -0.050817  0  3.710613  0  0  -0.04725  0  3.966887  0  0  -0.050014  0  3.991794  0  -0.059998  0  -0.023488  -0.0454  0  3.950102  0
C  C91  1  0.92488081  0.13626413  0.00000154  1  0  -0.052072  0  3.712425  0  0  -0.048075  0  3.96774  0  0  -0.05083  0  3.992729  0  -0.001434  0  -0.024299  -0.046221  0  3.950876  0
C  C92  1  0.06115293  0.86377802  0.49981127  1  0  -0.050846  0  3.710705  0  0  -0.047308  0  3.966922  0  0  -0.050069  0  3.991843  0  -0.059983  0  -0.023488  -0.045456  0  3.950137  0
C  C93  1  0.07511941  0.86373897  0.99999980  1  0  -0.051976  0  3.712268  0  0  -0.047972  0  3.967595  0  0  -0.050721  0  3.992575  0  -0.001475  0  -0.024276  -0.046113  0  3.950732  0
C  C94  1  0.03772629  0.06592818  0.56398063  1  0  0.061992  0  3.704862  0  0  0.073484  0  3.95178  0  0  0.073203  0  3.97614  0  -0.016279  0  -0.012005  0.073467  0  3.935397  0
C  C95  1  0.89620397  0.06615076  0.93612565  1  0  0.060381  0  3.704884  0  0  0.0719  0  3.952174  0  0  0.071607  0  3.976508  0  -0.037341  0  -0.012266  0.071897  0  3.935784  0
C  C96  1  0.96227721  0.93407101  0.43601998  1  0  0.062022  0  3.704814  0  0  0.073525  0  3.951746  0  0  0.073238  0  3.976101  0  -0.016235  0  -0.011993  0.073507  0  3.935365  0
C  C97  1  0.10379443  0.93385331  0.06387332  1  0  0.060545  0  3.704773  0  0  0.072027  0  3.952094  0  0  0.071735  0  3.97642  0  -0.037343  0  -0.012207  0.072025  0  3.935706  0
C  C98  1  0.07055968  0.13567154  0.63419805  1  0  -0.345378  0  3.720673  0  0  -0.42763  0  3.959389  0  0  -0.429698  0  3.968496  0  -0.099408  0  -0.254109  -0.425868  0  3.953329  0
C  C99  1  0.79350450  0.13613136  0.86600626  1  0  -0.34084  0  3.719668  0  0  -0.423548  0  3.958246  0  0  -0.425576  0  3.967455  0  -0.054714  0  -0.253404  -0.421751  0  3.951926  0
C  C100  1  0.92944612  0.86432570  0.36580244  1  0  -0.345314  0  3.720606  0  0  -0.427611  0  3.959351  0  0  -0.429677  0  3.968456  0  -0.099417  0  -0.25409  -0.42585  0  3.953292  0
C  C101  1  0.20649160  0.86387467  0.13399345  1  0  -0.341095  0  3.719719  0  0  -0.423748  0  3.958323  0  0  -0.425787  0  3.967565  0  -0.054699  0  -0.25347  -0.421963  0  3.951997  0
C  C102  1  0.90076285  0.07167244  0.43617965  1  0  0.044192  0  3.721832  0  0  0.056313  0  3.969562  0  0  0.055471  0  3.994664  0  -0.016688  0  -0.01661  0.056826  0  3.952708  0
C  C103  1  0.02768368  0.07147231  0.06389933  1  0  0.045714  0  3.719648  0  0  0.05721  0  3.968107  0  0  0.056407  0  3.993199  0  0.000287  0  -0.01559  0.057804  0  3.951055  0
C  C104  1  0.09924428  0.92832480  0.56382135  1  0  0.04419  0  3.722019  0  0  0.05637  0  3.969631  0  0  0.055504  0  3.994768  0  -0.016618  0  -0.016599  0.056881  0  3.95278  0
C  C105  1  0.97231472  0.92853177  0.93610089  1  0  0.045747  0  3.719664  0  0  0.057216  0  3.968139  0  0  0.056412  0  3.99323  0  0.000296  0  -0.015583  0.057811  0  3.951084  0
C  C106  1  0.79602879  0.14440899  0.36708412  1  0  -0.333784  0  3.739233  0  0  -0.412345  0  3.96999  0  0  -0.414605  0  3.980744  0  -0.063861  0  -0.246215  -0.41053  0  3.962926  0
C  C107  1  0.05987833  0.14402434  0.13302490  1  0  -0.332242  0  3.738321  0  0  -0.41107  0  3.969254  0  0  -0.41336  0  3.979977  0  -0.030774  0  -0.246427  -0.40919  0  3.96182  0
C  C108  1  0.20397918  0.85558923  0.63291551  1  0  -0.333874  0  3.739167  0  0  -0.41239  0  3.969936  0  0  -0.414649  0  3.980696  0  -0.063803  0  -0.246208  -0.410584  0  3.962867  0
C  C109  1  0.94012140  0.85597973  0.86697520  1  0  -0.332268  0  3.738315  0  0  -0.411067  0  3.969252  0  0  -0.413357  0  3.979976  0  -0.030766  0  -0.246416  -0.409191  0  3.961818  0
N  N110  1  0.16375680  0.42216799  0.35087847  1  0  -0.422629  0  3.274992  0  0  -0.342903  0  3.594842  0  0  -0.364279  0  3.601187  0  -1.25016  0  -0.355111  -0.328283  0  3.58999  0
N  N111  1  0.41391055  0.42214847  0.14920747  1  0  -0.420836  0  3.273728  0  0  -0.340743  0  3.593353  0  0  -0.362149  0  3.599738  0  -1.263709  0  -0.353655  -0.326399  0  3.588528  0
N  N112  1  0.83624502  0.57782925  0.64912361  1  0  -0.422669  0  3.275068  0  0  -0.342937  0  3.594886  0  0  -0.364321  0  3.601241  0  -1.250339  0  -0.355148  -0.328321  0  3.59004  0
N  N113  1  0.58608994  0.57784877  0.85079223  1  0  -0.420745  0  3.273627  0  0  -0.340638  0  3.593233  0  0  -0.362052  0  3.599628  0  -1.263712  0  -0.353579  -0.326296  0  3.588412  0
N  N114  1  0.17338641  0.32562849  0.47842735  1  0  -0.254903  0  2.853868  0  0  -0.252142  0  3.120216  0  0  -0.260247  0  3.134448  0  -0.67068  0  -0.21261  -0.246304  0  3.110205  0
N  N115  1  0.50113868  0.32577298  0.02161782  1  0  -0.254703  0  2.853907  0  0  -0.252004  0  3.120725  0  0  -0.260129  0  3.134934  0  -0.687785  0  -0.213568  -0.246263  0  3.111  0
N  N116  1  0.82661905  0.67436679  0.52157388  1  0  -0.255046  0  2.853822  0  0  -0.252259  0  3.120198  0  0  -0.260373  0  3.134428  0  -0.670659  0  -0.212655  -0.24642  0  3.110185  0
N  N117  1  0.49886300  0.67422719  0.97838228  1  0  -0.25442  0  2.853999  0  0  -0.251776  0  3.12077  0  0  -0.259893  0  3.134979  0  -0.687778  0  -0.213448  -0.246034  0  3.111042  0
N  N118  1  0.01001524  0.33666696  0.45091519  1  0  0.050799  0  3.529058  0  0  0.169095  0  3.720771  0  0  0.158442  0  3.744499  0  -0.802593  0  -0.125837  0.175215  0  3.706033  0
N  N119  1  0.65335753  0.33676263  0.04926087  1  0  0.051477  0  3.527527  0  0  0.169511  0  3.719399  0  0  0.158886  0  3.743169  0  -0.807618  0  -0.125141  0.175488  0  3.704893  0
N  N120  1  0.98998839  0.66332930  0.54908740  1  0  0.051014  0  3.52883  0  0  0.169174  0  3.720617  0  0  0.158556  0  3.744282  0  -0.802601  0  -0.125772  0.175293  0  3.705878  0
N  N121  1  0.34664171  0.66324241  0.95073860  1  0  0.051218  0  3.527942  0  0  0.169442  0  3.719578  0  0  0.158791  0  3.743393  0  -0.807606  0  -0.125163  0.175423  0  3.705072  0
O  O122  1  0.58531812  0.47856991  0.33321940  1  0  -0.648167  0  1.911296  0  0  -0.602726  0  2.139787  0  0  -0.625671  0  2.130775  0  -1.203788  0  -0.335853  -0.586638  0  2.145461  0
O  O123  1  0.93519494  0.47823213  0.16671417  1  0  -0.647809  0  1.913984  0  0  -0.602492  0  2.142761  0  0  -0.62539  0  2.133687  0  -1.202471  0  -0.335356  -0.586318  0  2.148219  0
O  O124  1  0.41468055  0.52142830  0.66678104  1  0  -0.648248  0  1.911376  0  0  -0.602752  0  2.139806  0  0  -0.625705  0  2.130812  0  -1.203808  0  -0.335883  -0.586665  0  2.145481  0
O  O125  1  0.06480058  0.52176706  0.83328464  1  0  -0.647805  0  1.914025  0  0  -0.602466  0  2.142788  0  0  -0.625364  0  2.133715  0  -1.202406  0  -0.335332  -0.586303  0  2.148264  0
O  O126  1  0.35189793  0.64314141  0.28508853  1  0  -0.646933  0  2.059574  0  0  -0.560588  0  2.328103  0  0  -0.589427  0  2.314922  0  -1.181554  0  -0.327686  -0.540405  0  2.336465  0
O  O127  1  0.00419438  0.64274798  0.21482634  1  0  -0.647114  0  2.058718  0  0  -0.560507  0  2.327069  0  0  -0.58935  0  2.313933  0  -1.176237  0  -0.327493  -0.540405  0  2.335602  0
O  O128  1  0.64809725  0.35685583  0.71491351  1  0  -0.646927  0  2.059614  0  0  -0.560587  0  2.328133  0  0  -0.58944  0  2.314979  0  -1.181574  0  -0.327686  -0.540404  0  2.336498  0
O  O129  1  0.99580380  0.35725121  0.78517098  1  0  -0.647091  0  2.058612  0  0  -0.560523  0  2.327025  0  0  -0.589374  0  2.313899  0  -1.176155  0  -0.327534  -0.540422  0  2.335561  0
