# generated using pymatgen
data_AgH13C17SN3ClO4
_symmetry_space_group_name_H-M   'P 1'
_cell_length_a   7.42805872
_cell_length_b   10.82012977
_cell_length_c   11.25170269
_cell_angle_alpha   77.07057375
_cell_angle_beta   71.26646050
_cell_angle_gamma   76.85465227
_symmetry_Int_Tables_number   1
_chemical_formula_structural   AgH13C17SN3ClO4
_chemical_formula_sum   'Ag2 H26 C34 S2 N6 Cl2 O8'
_cell_volume   822.76570426
_cell_formula_units_Z   2
loop_
 _symmetry_equiv_pos_site_id
 _symmetry_equiv_pos_as_xyz
  1  'x, y, z'
loop_
 _atom_site_type_symbol
 _atom_site_label
 _atom_site_symmetry_multiplicity
 _atom_site_fract_x
 _atom_site_fract_y
 _atom_site_fract_z
 _atom_site_occupancy
 _atom_site_hle17_bader_spin_density
 _atom_site_hle17_ddec_charge
 _atom_site_hle17_ddec_spin_density
 _atom_site_hle17_ddec_sum_bond_order
 _atom_site_hle17_magmom
 _atom_site_hse06_10hf_bader_spin_density
 _atom_site_hse06_10hf_ddec_charge
 _atom_site_hse06_10hf_ddec_spin_density
 _atom_site_hse06_10hf_ddec_sum_bond_order
 _atom_site_hse06_10hf_magmom
 _atom_site_hse06_bader_spin_density
 _atom_site_hse06_ddec_charge
 _atom_site_hse06_ddec_spin_density
 _atom_site_hse06_ddec_sum_bond_order
 _atom_site_hse06_magmom
 _atom_site_pbe_bader_spin_density
 _atom_site_pbe_cm5_charge
 _atom_site_pbe_ddec_charge
 _atom_site_pbe_ddec_spin_density
 _atom_site_pbe_ddec_sum_bond_order
 _atom_site_pbe_magmom
Ag  Ag0  1  0.40472335  0.44493045  0.42315576  1  0  0.500197  0  1.479223  0  0  0.354627  0  1.931591  0  0  0.381677  0  1.887569  0  0  0.477712  0.337265  0  1.961656  0
Ag  Ag1  1  0.59527439  0.55506993  0.57684548  1  0  0.50019  0  1.479256  0  0  0.354619  0  1.931624  0  0  0.381668  0  1.887602  0  0  0.477694  0.337251  0  1.961687  0
H  H2  1  0.28380870  0.82102203  0.21617202  1  0  0.354142  0  0.921369  0  0  0.336009  0  0.988111  0  0  0.344312  0  0.980821  0  0  0.286781  0.330152  0  0.993229  0
H  H3  1  0.71619188  0.17897836  0.78382772  1  0  0.354149  0  0.921333  0  0  0.336023  0  0.988065  0  0  0.344326  0  0.980776  0  0  0.286791  0.330169  0  0.993178  0
H  H4  1  0.45566245  0.88911933  0.08757595  1  0  0.344587  0  0.912495  0  0  0.325317  0  0.983189  0  0  0.333143  0  0.976087  0  0  0.291769  0.319757  0  0.988225  0
H  H5  1  0.54434004  0.11087915  0.91242380  1  0  0.344559  0  0.912562  0  0  0.32529  0  0.98325  0  0  0.333117  0  0.976154  0  0  0.291748  0.31973  0  0.988287  0
H  H6  1  0.85114188  0.11666608  0.32354581  1  0  0.107127  0  0.979528  0  0  0.110877  0  1.052508  0  0  0.114857  0  1.048982  0  0  0.104759  0.107988  0  1.055095  0
H  H7  1  0.14885895  0.88333336  0.67645320  1  0  0.107136  0  0.979533  0  0  0.110876  0  1.052533  0  0  0.114857  0  1.049001  0  0  0.104761  0.107984  0  1.05512  0
H  H8  1  0.41858852  0.11708461  0.46581914  1  0  0.13055  0  0.970133  0  0  0.136496  0  1.036815  0  0  0.140732  0  1.034175  0  0  0.104601  0.133416  0  1.038885  0
H  H9  1  0.58141114  0.88291386  0.53418121  1  0  0.130501  0  0.970159  0  0  0.136485  0  1.036794  0  0  0.140721  0  1.034156  0  0  0.104598  0.1334  0  1.038875  0
H  H10  1  0.08593334  0.19474095  0.59519244  1  0  0.09702  0  0.964451  0  0  0.104743  0  1.029597  0  0  0.10808  0  1.027449  0  0  0.1014  0.102263  0  1.031393  0
H  H11  1  0.91406631  0.80525752  0.40480792  1  0  0.097007  0  0.96448  0  0  0.104732  0  1.02962  0  0  0.108069  0  1.027472  0  0  0.1014  0.102247  0  1.031424  0
H  H12  1  0.51323904  0.64391338  0.17603383  1  0  0.092048  0  0.947751  0  0  0.10546  0  1.005199  0  0  0.107454  0  1.003245  0  0  0.120497  0.103927  0  1.006737  0
H  H13  1  0.48676180  0.35608605  0.82396784  1  0  0.09208  0  0.947669  0  0  0.105474  0  1.005145  0  0  0.10747  0  1.003185  0  0  0.120512  0.10394  0  1.006684  0
H  H14  1  0.72318690  0.64459005  0.95402709  1  0  0.116047  0  0.947343  0  0  0.127473  0  1.006211  0  0  0.130367  0  1.005573  0  0  0.109304  0.125395  0  1.006767  0
H  H15  1  0.27681084  0.35541034  0.04597415  1  0  0.116086  0  0.947405  0  0  0.127507  0  1.006264  0  0  0.130403  0  1.005629  0  0  0.109325  0.125426  0  1.00683  0
H  H16  1  0.82940268  0.22705646  0.04037499  1  0  0.124509  0  0.958137  0  0  0.130151  0  1.025488  0  0  0.133646  0  1.023883  0  0  0.110334  0.127622  0  1.02674  0
H  H17  1  0.17059506  0.77294393  0.95962536  1  0  0.124503  0  0.958118  0  0  0.130129  0  1.025486  0  0  0.133623  0  1.023885  0  0  0.110324  0.1276  0  1.026735  0
H  H18  1  0.62944642  0.24761691  0.26103739  1  0  0.075641  0  0.990148  0  0  0.081691  0  1.062876  0  0  0.083942  0  1.060037  0  0  0.108857  0.079934  0  1.065093  0
H  H19  1  0.37055274  0.75238348  0.73896265  1  0  0.075624  0  0.99015  0  0  0.081672  0  1.062881  0  0  0.083924  0  1.06004  0  0  0.10886  0.079914  0  1.065095  0
H  H20  1  0.03251295  0.60445309  0.54835029  1  0  0.073903  0  0.997185  0  0  0.082137  0  1.064438  0  0  0.083338  0  1.064059  0  0  0.112095  0.081069  0  1.065154  0
H  H21  1  0.96748620  0.39554730  0.45164887  1  0  0.073892  0  0.997208  0  0  0.082134  0  1.06445  0  0  0.083337  0  1.064066  0  0  0.112089  0.081064  0  1.065169  0
H  H22  1  0.79633293  0.61495522  0.75996341  1  0  0.10397  0  0.961961  0  0  0.113432  0  1.025978  0  0  0.115856  0  1.025959  0  0  0.105704  0.111633  0  1.026254  0
H  H23  1  0.20366883  0.38504614  0.24003765  1  0  0.103971  0  0.961957  0  0  0.113435  0  1.025961  0  0  0.115859  0  1.025942  0  0  0.105707  0.11164  0  1.026245  0
H  H24  1  0.10061406  0.24300904  0.89138864  1  0  0.125991  0  0.957761  0  0  0.134136  0  1.019274  0  0  0.137615  0  1.017865  0  0  0.111103  0.131602  0  1.020509  0
H  H25  1  0.89938367  0.75699135  0.10861082  1  0  0.125978  0  0.957781  0  0  0.134123  0  1.019294  0  0  0.137601  0  1.017888  0  0  0.111102  0.131588  0  1.020535  0
H  H26  1  0.33416084  0.25552432  0.67435999  1  0  0.088187  0  0.966416  0  0  0.091281  0  1.039816  0  0  0.094522  0  1.036518  0  0  0.113628  0.088804  0  1.042382  0
H  H27  1  0.66583974  0.74447608  0.32564065  1  0  0.088158  0  0.966445  0  0  0.091233  0  1.039869  0  0  0.094468  0  1.036566  0  0  0.113619  0.088757  0  1.042437  0
C  C28  1  0.94703231  0.16539946  0.46572305  1  0  -0.074188  0  3.741105  0  0  -0.048703  0  3.969687  0  0  -0.05797  0  3.993571  0  0  -0.024661  -0.042686  0  3.953679  0
C  C29  1  0.05296969  0.83460094  0.53427550  1  0  -0.074171  0  3.741076  0  0  -0.048734  0  3.969711  0  0  -0.058003  0  3.993595  0  0  -0.024692  -0.042722  0  3.953704  0
C  C30  1  0.97517456  0.11915182  0.35365704  1  0  -0.048788  0  3.731635  0  0  -0.082371  0  3.97932  0  0  -0.079334  0  3.9989  0  0  -0.078989  -0.083987  0  3.966091  0
C  C31  1  0.02482744  0.88084858  0.64634151  1  0  -0.04883  0  3.731614  0  0  -0.082404  0  3.979306  0  0  -0.079364  0  3.998881  0  0  -0.079003  -0.08402  0  3.966068  0
C  C32  1  0.16028222  0.07449744  0.28008967  1  0  -0.209161  0  3.735995  0  0  -0.189956  0  3.991479  0  0  -0.198581  0  4.012916  0  0  -0.03266  -0.184461  0  3.977309  0
C  C33  1  0.83971835  0.92550296  0.71990919  1  0  -0.209176  0  3.73609  0  0  -0.18996  0  3.991558  0  0  -0.198584  0  4.012996  0  0  -0.032665  -0.184457  0  3.977363  0
C  C34  1  0.32048323  0.07445891  0.32083610  1  0  0.134285  0  3.789539  0  0  0.134894  0  4.05754  0  0  0.141026  0  4.078216  0  0  0.017454  0.130736  0  4.043667  0
C  C35  1  0.67951760  0.92554052  0.67916291  1  0  0.13429  0  3.789603  0  0  0.134887  0  4.057622  0  0  0.141018  0  4.078301  0  0  0.01746  0.130733  0  4.043731  0
C  C36  1  0.29367019  0.11693461  0.43490150  1  0  -0.136621  0  3.71057  0  0  -0.159403  0  3.970915  0  0  -0.164331  0  3.98902  0  0  -0.096766  -0.156318  0  3.958919  0
C  C37  1  0.70633088  0.88306386  0.56509766  1  0  -0.136567  0  3.710527  0  0  -0.15936  0  3.970843  0  0  -0.16429  0  3.988949  0  0  -0.096762  -0.156275  0  3.958848  0
C  C38  1  0.10816628  0.16143928  0.50627517  1  0  -0.034719  0  3.709644  0  0  -0.058411  0  3.959723  0  0  -0.054884  0  3.976274  0  0  -0.079777  -0.060575  0  3.948882  0
C  C39  1  0.89183621  0.83855919  0.49372368  1  0  -0.034693  0  3.709582  0  0  -0.058378  0  3.959679  0  0  -0.054848  0  3.97623  0  0  -0.079781  -0.060542  0  3.948845  0
C  C40  1  0.74709703  0.22472103  0.53789715  1  0  0.623411  0  3.969121  0  0  0.572096  0  4.271668  0  0  0.605273  0  4.264666  0  0  0.185202  0.549685  0  4.275474  0
C  C41  1  0.25290379  0.77527841  0.46210186  1  0  0.62327  0  3.969312  0  0  0.57198  0  4.271833  0  0  0.605157  0  4.264834  0  0  0.185143  0.549573  0  4.275639  0
C  C42  1  0.58856417  0.55458223  0.14109352  1  0  0.120858  0  3.700058  0  0  0.090141  0  3.944625  0  0  0.09703  0  3.964207  0  0  0.043301  0.085522  0  3.931609  0
C  C43  1  0.41143641  0.44541817  0.85890711  1  0  0.120899  0  3.699905  0  0  0.090177  0  3.94449  0  0  0.09707  0  3.964071  0  0  0.043305  0.085562  0  3.93147  0
C  C44  1  0.70382315  0.55293217  0.01660436  1  0  -0.150384  0  3.687602  0  0  -0.169993  0  3.935606  0  0  -0.177098  0  3.957077  0  0  -0.079746  -0.165405  0  3.92136  0
C  C45  1  0.29617460  0.44706822  0.98339777  1  0  -0.150484  0  3.687624  0  0  -0.170047  0  3.935673  0  0  -0.177158  0  3.957147  0  0  -0.079759  -0.165459  0  3.921436  0
C  C46  1  0.79786639  0.43493851  0.97629011  1  0  0.089249  0  3.750012  0  0  0.102249  0  3.97964  0  0  0.105777  0  4.001057  0  0  0.011808  0.099852  0  3.965311  0
C  C47  1  0.20213277  0.56506188  0.02371171  1  0  0.089299  0  3.749954  0  0  0.102163  0  3.979733  0  0  0.105688  0  4.001153  0  0  0.011789  0.099761  0  3.965407  0
C  C48  1  0.76724791  0.32237490  0.06543775  1  0  -0.140649  0  3.675421  0  0  -0.159557  0  3.921853  0  0  -0.166958  0  3.943356  0  0  -0.076496  -0.154692  0  3.907659  0
C  C49  1  0.23275125  0.67762549  0.93456319  1  0  -0.140669  0  3.675352  0  0  -0.159524  0  3.921816  0  0  -0.166924  0  3.943321  0  0  -0.076477  -0.154657  0  3.907614  0
C  C50  1  0.65290421  0.33234720  0.18863086  1  0  0.113195  0  3.707647  0  0  0.083306  0  3.951113  0  0  0.089356  0  3.971736  0  0  0.039256  0.079196  0  3.937438  0
C  C51  1  0.34709353  0.66765319  0.81136949  1  0  0.113252  0  3.707618  0  0  0.08336  0  3.951066  0  0  0.08941  0  3.971688  0  0  0.039248  0.079257  0  3.937372  0
C  C52  1  0.04349592  0.52791865  0.62794873  1  0  0.110031  0  3.733884  0  0  0.080385  0  3.978904  0  0  0.086786  0  3.998478  0  0  0.037565  0.075941  0  3.966225  0
C  C53  1  0.95650466  0.47208174  0.37205101  1  0  0.110078  0  3.733884  0  0  0.080426  0  3.978895  0  0  0.086828  0  3.998472  0  0  0.037585  0.075985  0  3.966219  0
C  C54  1  0.91123043  0.53208162  0.74686392  1  0  -0.152567  0  3.710768  0  0  -0.169897  0  3.959445  0  0  -0.176579  0  3.979477  0  0  -0.082882  -0.165575  0  3.946313  0
C  C55  1  0.08877015  0.46791878  0.25313671  1  0  -0.152557  0  3.710778  0  0  -0.169898  0  3.959437  0  0  -0.176581  0  3.979469  0  0  -0.082896  -0.165585  0  3.946323  0
C  C56  1  0.92787408  0.43000808  0.84654608  1  0  0.101989  0  3.733037  0  0  0.112227  0  3.960809  0  0  0.116829  0  3.981199  0  0  0.014592  0.1092  0  3.947041  0
C  C57  1  0.07212509  0.56999231  0.15345486  1  0  0.10196  0  3.733028  0  0  0.112286  0  3.960738  0  0  0.116889  0  3.981127  0  0  0.014605  0.109261  0  3.946972  0
C  C58  1  0.07792553  0.32561626  0.81883860  1  0  -0.13258  0  3.646495  0  0  -0.150075  0  3.890107  0  0  -0.157045  0  3.910228  0  0  -0.072216  -0.145735  0  3.877084  0
C  C59  1  0.92207338  0.67438509  0.18116218  1  0  -0.132549  0  3.646514  0  0  -0.150054  0  3.890099  0  0  -0.157025  0  3.910217  0  0  -0.072195  -0.145706  0  3.877076  0
C  C60  1  0.20892704  0.33062224  0.69845490  1  0  0.121264  0  3.68574  0  0  0.089748  0  3.93523  0  0  0.096638  0  3.952557  0  0  0.045611  0.085078  0  3.924133  0
C  C61  1  0.79107212  0.66937815  0.30154603  1  0  0.121295  0  3.685806  0  0  0.089783  0  3.935331  0  0  0.096688  0  3.952647  0  0  0.045606  0.08511  0  3.924237  0
S  S62  1  0.17833457  0.02384518  0.13493891  1  0  1.295423  0  5.407439  0  0  1.2029  0  5.921263  0  0  1.247249  0  5.903601  0  0  0.5555  1.172292  0  5.932725  0
S  S63  1  0.82166626  0.97615426  0.86506010  1  0  1.295348  0  5.40751  0  0  1.202823  0  5.921342  0  0  1.247176  0  5.903675  0  0  0.555448  1.172215  0  5.932804  0
N  N64  1  0.31210355  0.88322952  0.12888135  1  0  -0.791793  0  2.927453  0  0  -0.759829  0  3.182415  0  0  -0.778792  0  3.171032  0  0  -0.608336  -0.746484  0  3.190083  0
N  N65  1  0.68789845  0.11677088  0.87111809  1  0  -0.791731  0  2.927477  0  0  -0.759768  0  3.182435  0  0  -0.778736  0  3.17105  0  0  -0.608306  -0.746429  0  3.190108  0
N  N66  1  0.56519527  0.44634317  0.22700412  1  0  -0.29109  0  3.350735  0  0  -0.198366  0  3.622572  0  0  -0.218012  0  3.640955  0  0  -0.351358  -0.185181  0  3.610055  0
N  N67  1  0.43480532  0.55365722  0.77299740  1  0  -0.291159  0  3.350763  0  0  -0.198417  0  3.6226  0  0  -0.218065  0  3.640983  0  0  -0.351387  -0.185237  0  3.610082  0
N  N68  1  0.19312644  0.43100833  0.60434701  1  0  -0.29793  0  3.376586  0  0  -0.203083  0  3.648251  0  0  -0.222889  0  3.665525  0  0  -0.353406  -0.189845  0  3.636819  0
N  N69  1  0.80687248  0.56899302  0.39565377  1  0  -0.297975  0  3.376598  0  0  -0.203125  0  3.648276  0  0  -0.222936  0  3.665553  0  0  -0.353402  -0.18988  0  3.636836  0
Cl  Cl70  1  0.55374452  0.02287451  0.23459281  1  0  -0.026363  0  1.442281  0  0  -0.001381  0  1.693626  0  0  -0.003939  0  1.687244  0  0  0.05385  0.000624  0  1.698144  0
Cl  Cl71  1  0.44625631  0.97712492  0.76540708  1  0  -0.026361  0  1.442283  0  0  -0.001364  0  1.693612  0  0  -0.00392  0  1.68723  0  0  0.053853  0.000629  0  1.698122  0
O  O72  1  0.73395209  0.27343406  0.63469317  1  0  -0.67253  0  1.959122  0  0  -0.621751  0  2.207806  0  0  -0.644424  0  2.195592  0  0  -0.348105  -0.605662  0  2.215565  0
O  O73  1  0.26604848  0.72656634  0.36530568  1  0  -0.672424  0  1.959167  0  0  -0.621636  0  2.207825  0  0  -0.644316  0  2.195624  0  0  -0.34806  -0.605551  0  2.215586  0
O  O74  1  0.60915587  0.22658857  0.49405681  1  0  -0.643311  0  2.010203  0  0  -0.587313  0  2.27126  0  0  -0.612269  0  2.260302  0  0  -0.33793  -0.56953  0  2.277915  0
O  O75  1  0.39084472  0.77341183  0.50594383  1  0  -0.643252  0  2.010267  0  0  -0.587266  0  2.271313  0  0  -0.61222  0  2.26035  0  0  -0.337893  -0.569484  0  2.277968  0
O  O76  1  0.98467650  0.01219936  0.14338417  1  0  -0.598848  0  1.954329  0  0  -0.551073  0  2.201771  0  0  -0.571794  0  2.191127  0  0  -0.315508  -0.536453  0  2.208579  0
O  O77  1  0.01532432  0.98780007  0.85661573  1  0  -0.598845  0  1.954332  0  0  -0.551071  0  2.201776  0  0  -0.571796  0  2.191132  0  0  -0.315512  -0.536458  0  2.208585  0
O  O78  1  0.27700229  0.11371995  0.03011220  1  0  -0.64211  0  1.956189  0  0  -0.590631  0  2.203373  0  0  -0.610622  0  2.190614  0  0  -0.323825  -0.576362  0  2.211513  0
O  O79  1  0.72299971  0.88628045  0.96988724  1  0  -0.642076  0  1.956235  0  0  -0.590595  0  2.203423  0  0  -0.610586  0  2.190656  0  0  -0.323805  -0.576332  0  2.211565  0
