# generated using pymatgen
data_AlH18C21(N3O2)3
_symmetry_space_group_name_H-M   'P 1'
_cell_length_a   3.92957342
_cell_length_b   27.97040356
_cell_length_c   27.97035423
_cell_angle_alpha   120.00009191
_cell_angle_beta   90.00065976
_cell_angle_gamma   89.99947333
_symmetry_Int_Tables_number   1
_chemical_formula_structural   AlH18C21(N3O2)3
_chemical_formula_sum   'Al2 H36 C42 N18 O12'
_cell_volume   2662.39406235
_cell_formula_units_Z   2
loop_
 _symmetry_equiv_pos_site_id
 _symmetry_equiv_pos_as_xyz
  1  'x, y, z'
loop_
 _atom_site_type_symbol
 _atom_site_label
 _atom_site_symmetry_multiplicity
 _atom_site_fract_x
 _atom_site_fract_y
 _atom_site_fract_z
 _atom_site_occupancy
 _atom_site_pbe_bader_charge
 _atom_site_pbe_bader_spin_density
 _atom_site_pbe_cm5_charge
 _atom_site_pbe_ddec_charge
 _atom_site_pbe_ddec_spin_density
 _atom_site_pbe_ddec_sum_bond_order
 _atom_site_pbe_magmom
Al  Al0  1  0.98860476  0.49999941  0.50000094  1  2.504017  0  0.418138  1.585453  0  2.580219  0
Al  Al1  1  0.92684426  0.16666603  0.83333404  1  2.501229  0  0.4207  1.586348  0  2.577107  0
H  H2  1  0.15526321  0.19004691  0.70117024  1  0.072188  0  0.102559  0.110907  0  0.996903  0
H  H3  1  0.17474493  0.24357055  0.65095850  1  0.082655  0  0.10317  0.112036  0  1.014931  0
H  H4  1  0.71589952  0.29297037  0.54676556  1  0.056821  0  0.103379  0.124487  0  1.002725  0
H  H5  1  0.17196138  0.42211349  0.68372772  1  0.071973  0  0.097678  0.115558  0  1.025357  0
H  H6  1  0.15525584  0.01112494  0.80995413  1  0.088118  0  0.102575  0.110942  0  0.996813  0
H  H7  1  0.17471180  0.90739046  0.75643180  1  0.084691  0  0.103204  0.112088  0  1.014877  0
H  H8  1  0.71586270  0.75379520  0.70702811  1  0.066543  0  0.103325  0.124443  0  1.002817  0
H  H9  1  0.17190242  0.76160755  0.57788323  1  0.06855  0  0.097587  0.115528  0  1.025583  0
H  H10  1  0.15528411  0.29882930  0.98887816  1  0.065922  0  0.102612  0.110992  0  0.996851  0
H  H11  1  0.17474647  0.34904030  0.09261286  1  0.130698  0  0.103184  0.112074  0  1.015004  0
H  H12  1  0.71589200  0.45323356  0.24620723  1  0.057773  0  0.103367  0.124505  0  1.00278  0
H  H13  1  0.17196445  0.31627285  0.23838891  1  0.079575  0  0.097644  0.115566  0  1.025547  0
H  H14  1  0.76835313  0.30141457  0.86526897  1  0.478325  0  0.306825  0.316643  0  0.96047  0
H  H15  1  0.76895938  0.36565942  0.86989053  1  0.398734  0  0.302131  0.289649  0  0.960132  0
H  H16  1  0.76572469  0.40122365  0.76916275  1  0.440561  0  0.295938  0.285349  0  0.978384  0
H  H17  1  0.98712247  0.38699286  0.81215491  1  0.449113  0  0.296394  0.290836  0  0.961609  0
H  H18  1  0.87581481  0.37315305  0.48099580  1  0.479088  0  0.300023  0.308409  0  0.984455  0
H  H19  1  0.96506066  0.31425748  0.48333447  1  0.439308  0  0.306217  0.306258  0  0.935509  0
H  H20  1  0.09385590  0.50773841  0.62200998  1  0.468748  0  0.299229  0.308457  0  0.984966  0
H  H21  1  0.97243727  0.49644721  0.67456746  1  0.444091  0  0.305449  0.305349  0  0.937112  0
H  H22  1  0.76835932  0.06384760  0.69858213  1  0.53066  0  0.306721  0.316324  0  0.961059  0
H  H23  1  0.76898215  0.00422191  0.63433803  1  0.436442  0  0.302079  0.289637  0  0.960019  0
H  H24  1  0.76571991  0.86793307  0.59877968  1  0.417588  0  0.295939  0.285504  0  0.978228  0
H  H25  1  0.98713701  0.92515431  0.61301199  1  0.452638  0  0.296359  0.290733  0  0.962019  0
H  H26  1  0.87583331  0.60784401  0.62684565  1  0.482827  0  0.300106  0.308471  0  0.984509  0
H  H27  1  0.96507237  0.66907988  0.68574134  1  0.427989  0  0.30614  0.306182  0  0.935548  0
H  H28  1  0.09384192  0.61426689  0.49225791  1  0.46382  0  0.299219  0.308427  0  0.985044  0
H  H29  1  0.97239618  0.67811353  0.50354893  1  0.442879  0  0.305425  0.305431  0  0.937096  0
H  H30  1  0.76836416  0.13473200  0.93615119  1  0.471258  0  0.306765  0.316421  0  0.960959  0
H  H31  1  0.76896988  0.13011135  0.99577594  1  0.432292  0  0.302117  0.289723  0  0.959669  0
H  H32  1  0.76571441  0.23083910  0.13206685  1  0.462297  0  0.295911  0.285395  0  0.978395  0
H  H33  1  0.98712939  0.18784802  0.07484611  1  0.460433  0  0.296412  0.290868  0  0.96172  0
H  H34  1  0.87581901  0.51900362  0.39216022  1  0.487683  0  0.300057  0.308363  0  0.98457  0
H  H35  1  0.96506544  0.51666443  0.33092556  1  0.442112  0  0.306126  0.306149  0  0.93534  0
H  H36  1  0.09385308  0.37798974  0.38573001  1  0.502027  0  0.299187  0.308422  0  0.985074  0
H  H37  1  0.97242595  0.32543299  0.32188232  1  0.444407  0  0.305425  0.305374  0  0.93712  0
C  C38  1  0.48587114  0.45949017  0.41337024  1  1.482351  0  0.257175  0.6544  0  4.041273  0
C  C39  1  0.48586892  0.45387807  0.54051059  1  1.48142  0  0.257328  0.654617  0  4.041004  0
C  C40  1  0.48586726  0.58662990  0.54612296  1  1.486482  0  0.257104  0.654275  0  4.041267  0
C  C41  1  0.42801345  0.21630943  0.79762651  1  1.485468  0  0.266095  0.65189  0  4.051663  0
C  C42  1  0.42800467  0.08131406  0.78369004  1  1.486064  0  0.266097  0.651997  0  4.051637  0
C  C43  1  0.42801635  0.20237427  0.91868752  1  1.485191  0  0.266  0.651946  0  4.051667  0
C  C44  1  0.44945121  0.24945363  0.77027263  1  0.073859  0  -0.025478  -0.15403  0  3.961483  0
C  C45  1  0.28909901  0.22928366  0.71833110  1  -0.014456  0  -0.095089  -0.090812  0  4.043466  0
C  C46  1  0.29702652  0.25857193  0.69086108  1  -0.021754  0  -0.103902  -0.173167  0  4.039416  0
C  C47  1  0.45761321  0.31075377  0.71598256  1  0.333585  0  0.076428  0.077487  0  4.057112  0
C  C48  1  0.60965149  0.33284970  0.76853725  1  0.453246  0  0.094768  0.128147  0  4.016109  0
C  C49  1  0.61347596  0.30141853  0.79588062  1  0.432443  0  0.103887  0.203777  0  4.041986  0
C  C50  1  0.60104424  0.33389434  0.56602168  1  0.004758  0  -0.12011  -0.323922  0  3.959744  0
C  C51  1  0.44755571  0.35504927  0.61767388  1  0.371945  0  0.086716  0.219277  0  4.138763  0
C  C52  1  0.30107605  0.40758817  0.64437740  1  1.5e-05  0  -0.127744  -0.336411  0  3.973689  0
C  C53  1  0.29970736  0.43968025  0.61876994  1  0.402208  0  0.10646  0.330266  0  4.078542  0
C  C54  1  0.47409377  0.42029454  0.56703461  1  -0.021258  0  -0.042073  -0.298027  0  3.860495  0
C  C55  1  0.63325174  0.36687080  0.54157275  1  0.436213  0  0.106583  0.326652  0  4.080698  0
C  C56  1  0.44944532  0.02081711  0.75054714  1  0.02646  0  -0.025397  -0.153915  0  3.961368  0
C  C57  1  0.28909103  0.98904722  0.77071659  1  -0.028205  0  -0.095162  -0.090991  0  4.043692  0
C  C58  1  0.29700352  0.93229016  0.74143041  1  -0.022562  0  -0.104013  -0.173223  0  4.039447  0
C  C59  1  0.45757697  0.90522536  0.68924627  1  0.399512  0  0.076596  0.077631  0  4.056967  0
C  C60  1  0.60963480  0.93568335  0.66714996  1  0.44129  0  0.094626  0.127978  0  4.016376  0
C  C61  1  0.61347679  0.99445689  0.69857979  1  0.417747  0  0.103976  0.203883  0  4.042011  0
C  C62  1  0.60100195  0.73212457  0.66610379  1  -9.5e-05  0  -0.120071  -0.323964  0  3.960111  0
C  C63  1  0.44749994  0.76262174  0.64494923  1  0.281063  0  0.086798  0.219549  0  4.138744  0
C  C64  1  0.30100438  0.73678729  0.59240699  1  0.069287  0  -0.127741  -0.33656  0  3.973621  0
C  C65  1  0.29966896  0.67908522  0.56031970  1  0.398301  0  0.106549  0.330382  0  4.078236  0
C  C66  1  0.47406382  0.64673582  0.57970338  1  -0.020118  0  -0.042073  -0.298001  0  3.860549  0
C  C67  1  0.63322739  0.67470172  0.63312951  1  0.432012  0  0.106524  0.326663  0  4.08096  0
C  C68  1  0.44946299  0.22972767  0.97918296  1  0.014519  0  -0.025476  -0.15402  0  3.961239  0
C  C69  1  0.28911656  0.28166966  0.01095422  1  -0.072101  0  -0.095096  -0.090844  0  4.043394  0
C  C70  1  0.29702469  0.30913976  0.06771340  1  0.046372  0  -0.103936  -0.173296  0  4.039347  0
C  C71  1  0.45760895  0.28401750  0.09477501  1  0.350378  0  0.076482  0.077635  0  4.056853  0
C  C72  1  0.60965904  0.23146273  0.06431622  1  0.378035  0  0.094708  0.128038  0  4.016511  0
C  C73  1  0.61349511  0.20411954  0.00554385  1  0.443821  0  0.104019  0.203965  0  4.041837  0
C  C74  1  0.60103374  0.43397775  0.26787634  1  -0.049849  0  -0.120094  -0.323878  0  3.96004  0
C  C75  1  0.44755445  0.38232713  0.23737850  1  0.350036  0  0.086704  0.219249  0  4.138738  0
C  C76  1  0.30105959  0.35561971  0.26321218  1  -0.07081  0  -0.127743  -0.336436  0  3.973577  0
C  C77  1  0.29970726  0.38123080  0.32091297  1  0.468841  0  0.106413  0.330172  0  4.078555  0
C  C78  1  0.47409220  0.43296489  0.35326369  1  9.2e-05  0  -0.042037  -0.297919  0  3.860528  0
C  C79  1  0.63324997  0.45842679  0.32529981  1  0.496073  0  0.106555  0.326541  0  4.080877  0
N  N80  1  0.47990870  0.34434505  0.69219014  1  -0.549665  0  -0.154138  -0.128873  0  3.334839  0
N  N81  1  0.44225444  0.31980461  0.64016012  1  -0.453515  0  -0.146153  -0.120117  0  3.235448  0
N  N82  1  0.47985473  0.84784379  0.65565438  1  -0.566195  0  -0.154195  -0.128882  0  3.334718  0
N  N83  1  0.44218082  0.82035174  0.68019410  1  -0.427979  0  -0.146208  -0.120324  0  3.235513  0
N  N84  1  0.47989283  0.30780906  0.15215735  1  -0.455009  0  -0.154202  -0.128929  0  3.334875  0
N  N85  1  0.44224182  0.35983913  0.17964718  1  -0.517997  0  -0.146175  -0.120175  0  3.235453  0
N  N86  1  0.77841883  0.32398010  0.84590176  1  -1.194959  0  -0.59117  -0.596191  0  3.355308  0
N  N87  1  0.75576592  0.38516317  0.79480631  1  -1.233055  0  -0.606505  -0.616052  0  3.322591  0
N  N88  1  0.79766012  0.34499637  0.49151456  1  -1.254751  0  -0.602047  -0.622188  0  3.301359  0
N  N89  1  0.15058880  0.49110937  0.64610416  1  -1.236583  0  -0.602852  -0.624162  0  3.302951  0
N  N90  1  0.77841432  0.02191447  0.67601769  1  -1.283603  0  -0.59103  -0.59589  0  3.355692  0
N  N91  1  0.75575626  0.90963703  0.61483828  1  -1.185334  0  -0.606402  -0.616032  0  3.322855  0
N  N92  1  0.79766693  0.64651829  0.65500140  1  -1.249329  0  -0.601975  -0.622115  0  3.301576  0
N  N93  1  0.15054969  0.65498878  0.50888674  1  -1.233877  0  -0.60289  -0.624296  0  3.302922  0
N  N94  1  0.77842994  0.15410041  0.97808491  1  -1.217026  0  -0.591127  -0.596092  0  3.355384  0
N  N95  1  0.75576336  0.20519609  0.09036348  1  -1.245099  0  -0.606489  -0.616151  0  3.322879  0
N  N96  1  0.79766425  0.50848512  0.35348581  1  -1.262264  0  -0.601936  -0.621959  0  3.301363  0
N  N97  1  0.15058866  0.35389616  0.34500850  1  -1.27518  0  -0.602784  -0.624138  0  3.303033  0
O  O98  1  0.72322760  0.55976995  0.55464148  1  -1.269366  0  -0.245107  -0.612138  0  2.411394  0
O  O99  1  0.72321998  0.49486970  0.44023171  1  -1.26959  0  -0.245127  -0.612155  0  2.41128  0
O  O100  1  0.72323448  0.44536023  0.50513054  1  -1.268112  0  -0.245239  -0.612368  0  2.41113  0
O  O101  1  0.25836350  0.56084331  0.50833639  1  -1.267532  0  -0.248923  -0.617524  0  2.403313  0
O  O102  1  0.25836508  0.49166173  0.55250954  1  -1.264172  0  -0.248995  -0.617565  0  2.403595  0
O  O103  1  0.25835936  0.44749066  0.43915434  1  -1.266256  0  -0.248935  -0.617546  0  2.403475  0
O  O104  1  0.65356759  0.16563324  0.88973263  1  -1.264767  0  -0.244219  -0.61206  0  2.391779  0
O  O105  1  0.65355063  0.22409682  0.83436713  1  -1.26148  0  -0.244244  -0.611931  0  2.391939  0
O  O106  1  0.65355204  0.11026716  0.77590152  1  -1.261341  0  -0.244223  -0.61199  0  2.391728  0
O  O107  1  0.18668601  0.21597501  0.89709389  1  -1.255364  0  -0.241083  -0.597453  0  2.369608  0
O  O108  1  0.18669421  0.10290760  0.81888445  1  -1.254421  0  -0.241151  -0.5975  0  2.369718  0
O  O109  1  0.18667744  0.18111600  0.78402463  1  -1.250125  0  -0.241149  -0.597507  0  2.36957  0
