# generated using pymatgen
data_Ag2H19C25S(N2O3)2
_symmetry_space_group_name_H-M   'P 1'
_cell_length_a   9.70848569
_cell_length_b   10.43890143
_cell_length_c   12.84118393
_cell_angle_alpha   79.64398175
_cell_angle_beta   82.13171296
_cell_angle_gamma   68.66958859
_symmetry_Int_Tables_number   1
_chemical_formula_structural   Ag2H19C25S(N2O3)2
_chemical_formula_sum   'Ag4 H38 C50 S2 N8 O12'
_cell_volume   1188.86885790
_cell_formula_units_Z   2
loop_
 _symmetry_equiv_pos_site_id
 _symmetry_equiv_pos_as_xyz
  1  'x, y, z'
loop_
 _atom_site_type_symbol
 _atom_site_label
 _atom_site_symmetry_multiplicity
 _atom_site_fract_x
 _atom_site_fract_y
 _atom_site_fract_z
 _atom_site_occupancy
 _atom_site_pbe_bader_spin_density
 _atom_site_pbe_cm5_charge
 _atom_site_pbe_ddec_charge
 _atom_site_pbe_ddec_spin_density
 _atom_site_pbe_ddec_sum_bond_order
 _atom_site_pbe_magmom
Ag  Ag0  1  0.09257465  0.51153916  0.59405216  1  0  0.479712  0.351295  0  1.953226  0
Ag  Ag1  1  0.90742345  0.48846307  0.40594729  1  0  0.479724  0.351275  0  1.95332  0
Ag  Ag2  1  0.93005457  0.34378811  0.15142080  1  0  0.481568  0.357751  0  1.937948  0
Ag  Ag3  1  0.06994874  0.65621415  0.84857962  1  0  0.481576  0.357761  0  1.937944  0
H  H4  1  0.46242986  0.49907442  0.35418893  1  0  0.104367  0.10946  0  1.060799  0
H  H5  1  0.53757483  0.50092682  0.64580836  1  0  0.104336  0.109445  0  1.060778  0
H  H6  1  0.10233092  0.82489699  0.12343833  1  0  0.102469  0.10883  0  1.021293  0
H  H7  1  0.89766890  0.17509795  0.87656199  1  0  0.10247  0.108822  0  1.021318  0
H  H8  1  0.10755686  0.91589077  0.93193862  1  0  0.101497  0.099937  0  1.007604  0
H  H9  1  0.89244100  0.08410937  0.06806116  1  0  0.101522  0.09997  0  1.007585  0
H  H10  1  0.34198958  0.84147708  0.81683386  1  0  0.093882  0.086689  0  1.028944  0
H  H11  1  0.65801023  0.15852619  0.18316680  1  0  0.093895  0.086725  0  1.028919  0
H  H12  1  0.57408219  0.67472776  0.89545696  1  0  0.102641  0.106647  0  1.003501  0
H  H13  1  0.42591708  0.32527967  0.10454315  1  0  0.102608  0.106629  0  1.003411  0
H  H14  1  0.11173900  0.30484771  0.93071267  1  0  0.115498  0.100417  0  1.025101  0
H  H15  1  0.88826162  0.69515347  0.06928898  1  0  0.115505  0.100487  0  1.025098  0
H  H16  1  0.16270693  0.06383762  0.22690881  1  0  0.111128  0.089391  0  1.032434  0
H  H17  1  0.83729569  0.93616360  0.77308872  1  0  0.111103  0.089321  0  1.032396  0
H  H18  1  0.42095574  0.92811963  0.17770290  1  0  0.10394  0.10933  0  1.026806  0
H  H19  1  0.57903986  0.07187531  0.82229400  1  0  0.103805  0.109109  0  1.02668  0
H  H20  1  0.36642536  0.17066719  0.86511280  1  0  0.10331  0.105883  0  1.026206  0
H  H21  1  0.63357430  0.82933089  0.13488630  1  0  0.103337  0.105954  0  1.026372  0
H  H22  1  0.16073497  0.20374393  0.67991782  1  0  0.118225  0.106926  0  1.018425  0
H  H23  1  0.83926612  0.79625312  0.32008127  1  0  0.11824  0.106979  0  1.018371  0
H  H24  1  0.37331384  0.98250689  0.68446129  1  0  0.108417  0.112985  0  1.024732  0
H  H25  1  0.62668819  0.01749327  0.31553958  1  0  0.108434  0.113021  0  1.02468  0
H  H26  1  0.64659146  0.22066047  0.52476372  1  0  0.11382  0.135808  0  1.019482  0
H  H27  1  0.35340880  0.77934174  0.47524016  1  0  0.113854  0.1358  0  1.019438  0
H  H28  1  0.42101801  0.42864664  0.52626693  1  0  0.121891  0.102241  0  1.00345  0
H  H29  1  0.57897752  0.57135139  0.47373342  1  0  0.121884  0.102224  0  1.003415  0
H  H30  1  0.76328418  0.59624218  0.67283534  1  0  0.115266  0.087205  0  1.037119  0
H  H31  1  0.23671501  0.40376003  0.32716711  1  0  0.115219  0.087148  0  1.037083  0
H  H32  1  0.54242494  0.80791108  0.67586613  1  0  0.109922  0.118754  0  1.008081  0
H  H33  1  0.45757405  0.19208904  0.32413898  1  0  0.109945  0.118787  0  1.008107  0
H  H34  1  0.82549684  0.04331201  0.53570364  1  0  0.114815  0.129737  0  1.008885  0
H  H35  1  0.17450240  0.95668711  0.46429379  1  0  0.114816  0.129718  0  1.008918  0
H  H36  1  0.03455826  0.81800499  0.53568122  1  0  0.119009  0.096223  0  1.015674  0
H  H37  1  0.96544000  0.18199410  0.46431945  1  0  0.118996  0.096216  0  1.015653  0
H  H38  1  0.15343415  0.49127696  0.07851530  1  0  0.286609  0.387735  0  0.951511  0
H  H39  1  0.84656697  0.50872007  0.92148535  1  0  0.286582  0.3877  0  0.951586  0
H  H40  1  0.07790309  0.55476908  0.18557861  1  0  0.280723  0.379989  0  0.96613  0
H  H41  1  0.92209581  0.44523106  0.81442183  1  0  0.28068  0.379943  0  0.966203  0
C  C42  1  0.46246766  0.54299086  0.27076258  1  0  -0.095791  -0.146803  0  4.048456  0
C  C43  1  0.53753809  0.45701038  0.72923615  1  0  -0.095783  -0.146818  0  4.048536  0
C  C44  1  0.33686413  0.64014622  0.23097937  1  0  -0.033022  -0.157287  0  3.974341  0
C  C45  1  0.66313748  0.35985499  0.76901983  1  0  -0.032998  -0.157217  0  3.974336  0
C  C46  1  0.33452239  0.69648950  0.11923835  1  0  -0.001766  0.087786  0  3.969021  0
C  C47  1  0.66548132  0.30351171  0.88076218  1  0  -0.001743  0.087765  0  3.969042  0
C  C48  1  0.20529831  0.79165674  0.07335641  1  0  -0.088093  -0.122611  0  3.943392  0
C  C49  1  0.79470303  0.20834239  0.92664235  1  0  -0.088074  -0.122565  0  3.943453  0
C  C50  1  0.20863822  0.84293651  0.96595644  1  0  -0.088037  -0.074542  0  4.030749  0
C  C51  1  0.79136291  0.15706052  0.03404498  1  0  -0.088058  -0.074547  0  4.030595  0
C  C52  1  0.34140668  0.80175025  0.90127145  1  0  -0.096235  -0.097863  0  4.044674  0
C  C53  1  0.65859065  0.19825405  0.09872856  1  0  -0.096231  -0.097907  0  4.044715  0
C  C54  1  0.46973481  0.70847915  0.94429884  1  0  -0.0851  -0.088671  0  3.977857  0
C  C55  1  0.53026769  0.29152519  0.05569980  1  0  -0.085118  -0.08872  0  3.97792  0
C  C56  1  0.46877352  0.65401126  0.05272232  1  0  -0.018968  -0.049138  0  3.927696  0
C  C57  1  0.53122772  0.34599098  0.94727833  1  0  -0.018953  -0.049121  0  3.927802  0
C  C58  1  0.60734355  0.55405323  0.09491244  1  0  0.128592  0.300214  0  4.067482  0
C  C59  1  0.39266295  0.44594594  0.90508417  1  0  0.128548  0.30012  0  4.06747  0
C  C60  1  0.59770291  0.49762904  0.20664518  1  0  0.0523  0.002584  0  4.028095  0
C  C61  1  0.40230035  0.50237323  0.79335212  1  0  0.052341  0.002569  0  4.028127  0
C  C62  1  0.18432394  0.21876062  0.98212477  1  0  0.043465  0.099134  0  3.902963  0
C  C63  1  0.81568168  0.78123542  0.01787318  1  0  0.043429  0.099057  0  3.903139  0
C  C64  1  0.21335375  0.08790729  0.14840297  1  0  0.039086  0.080104  0  3.952483  0
C  C65  1  0.78664247  0.91209178  0.85159949  1  0  0.039159  0.080279  0  3.952747  0
C  C66  1  0.35908322  0.01057282  0.11919956  1  0  -0.083009  -0.159381  0  3.934479  0
C  C67  1  0.64092355  0.98941488  0.88080338  1  0  -0.082932  -0.159218  0  3.934699  0
C  C68  1  0.42189084  0.03850433  0.01648288  1  0  0.012662  0.100139  0  3.968579  0
C  C69  1  0.57810874  0.96149377  0.98351233  1  0  0.012732  0.100331  0  3.968626  0
C  C70  1  0.32802037  0.14345571  0.94687877  1  0  -0.081745  -0.162154  0  3.936657  0
C  C71  1  0.67197942  0.85653400  0.05312621  1  0  -0.081779  -0.162297  0  3.936611  0
C  C72  1  0.27122096  0.20091643  0.64668860  1  0  0.042955  0.083424  0  3.922732  0
C  C73  1  0.72877651  0.79908474  0.35331185  1  0  0.042965  0.083378  0  3.922805  0
C  C74  1  0.39190882  0.07797214  0.64850424  1  0  -0.082147  -0.173011  0  3.958595  0
C  C75  1  0.60809335  0.92202489  0.35149706  1  0  -0.082184  -0.173066  0  3.958741  0
C  C76  1  0.53259094  0.07829351  0.60433796  1  0  0.011543  0.095403  0  3.96789  0
C  C77  1  0.46740818  0.92170873  0.39566059  1  0  0.011564  0.095445  0  3.96765  0
C  C78  1  0.54309705  0.20795017  0.56010255  1  0  -0.074308  -0.159073  0  3.897072  0
C  C79  1  0.45690162  0.79204788  0.43989900  1  0  -0.074363  -0.159084  0  3.896839  0
C  C80  1  0.41716160  0.32675176  0.56090302  1  0  0.050142  0.097165  0  3.91036  0
C  C81  1  0.58283651  0.67325045  0.43909721  1  0  0.050108  0.097123  0  3.910351  0
C  C82  1  0.77163216  0.69775383  0.64314539  1  0  0.045179  0.09034  0  3.949487  0
C  C83  1  0.22836616  0.30224524  0.35685839  1  0  0.045293  0.090457  0  3.949637  0
C  C84  1  0.64832679  0.81817833  0.64432180  1  0  -0.079884  -0.166995  0  3.934997  0
C  C85  1  0.35167242  0.18182388  0.35568142  1  0  -0.079968  -0.167117  0  3.935111  0
C  C86  1  0.66203379  0.94779372  0.60432817  1  0  0.013465  0.09763  0  3.967963  0
C  C87  1  0.33796552  0.05220538  0.39567315  1  0  0.013483  0.097686  0  3.967948  0
C  C88  1  0.80452602  0.94728799  0.56504448  1  0  -0.072628  -0.146847  0  3.899451  0
C  C89  1  0.19547169  0.05271528  0.43495486  1  0  -0.072644  -0.146892  0  3.899562  0
C  C90  1  0.92291896  0.82243032  0.56619837  1  0  0.050359  0.088498  0  3.921419  0
C  C91  1  0.07708076  0.17756773  0.43380384  1  0  0.050415  0.088609  0  3.921268  0
S  S92  1  0.17726207  0.69641603  0.32163942  1  0  0.493846  1.163164  0  6.216816  0
S  S93  1  0.82273746  0.30358516  0.67836001  1  0  0.493773  1.163181  0  6.216621  0
N  N94  1  0.72241707  0.39988158  0.24761286  1  0  -0.211099  0.036148  0  3.705453  0
N  N95  1  0.27758554  0.60011965  0.75238467  1  0  -0.211092  0.036248  0  3.705614  0
N  N96  1  0.12719190  0.19313826  0.08237758  1  0  -0.347056  -0.19898  0  3.586541  0
N  N97  1  0.87281015  0.80686189  0.91762485  1  0  -0.347054  -0.199053  0  3.586836  0
N  N98  1  0.28292671  0.32444461  0.60301297  1  0  -0.348069  -0.180821  0  3.595551  0
N  N99  1  0.71707051  0.67555448  0.39698781  1  0  -0.348009  -0.180724  0  3.595542  0
N  N100  1  0.90725902  0.69899141  0.60425139  1  0  -0.349802  -0.197089  0  3.656972  0
N  N101  1  0.09274041  0.30101289  0.39574994  1  0  -0.34986  -0.19719  0  3.656965  0
O  O102  1  0.22500366  0.62213654  0.42634720  1  0  -0.350315  -0.6103  0  2.314598  0
O  O103  1  0.77499609  0.37785843  0.57364923  1  0  -0.350257  -0.610263  0  2.314404  0
O  O104  1  0.13076565  0.84763992  0.31417121  1  0  -0.354013  -0.603511  0  2.156286  0
O  O105  1  0.86923305  0.15235812  0.68583189  1  0  -0.354007  -0.603525  0  2.15625  0
O  O106  1  0.06415206  0.65291602  0.28511986  1  0  -0.347707  -0.634203  0  2.317808  0
O  O107  1  0.93584641  0.34708518  0.71487814  1  0  -0.347688  -0.634236  0  2.317784  0
O  O108  1  0.71413590  0.34742938  0.34502767  1  0  -0.186999  -0.340222  0  2.071669  0
O  O109  1  0.28586600  0.65257390  0.65497354  1  0  -0.18699  -0.340258  0  2.071849  0
O  O110  1  0.72725525  0.52006149  0.03682337  1  0  -0.291268  -0.466779  0  2.343266  0
O  O111  1  0.27274254  0.47993866  0.96317330  1  0  -0.291291  -0.466752  0  2.34315  0
O  O112  1  0.06748414  0.50321275  0.13145875  1  0  -0.605287  -0.768739  0  2.090975  0
O  O113  1  0.93251351  0.49679053  0.86853748  1  0  -0.60522  -0.768655  0  2.090984  0
