# generated using pymatgen
data_AgH5C6N4O
_symmetry_space_group_name_H-M   'P 1'
_cell_length_a   5.13370842
_cell_length_b   10.07810117
_cell_length_c   13.52435186
_cell_angle_alpha   89.99910158
_cell_angle_beta   97.79789083
_cell_angle_gamma   90.00077858
_symmetry_Int_Tables_number   1
_chemical_formula_structural   AgH5C6N4O
_chemical_formula_sum   'Ag4 H20 C24 N16 O4'
_cell_volume   693.25290324
_cell_formula_units_Z   4
loop_
 _symmetry_equiv_pos_site_id
 _symmetry_equiv_pos_as_xyz
  1  'x, y, z'
loop_
 _atom_site_type_symbol
 _atom_site_label
 _atom_site_symmetry_multiplicity
 _atom_site_fract_x
 _atom_site_fract_y
 _atom_site_fract_z
 _atom_site_occupancy
 _atom_site_hle17_bader_spin_density
 _atom_site_hle17_ddec_charge
 _atom_site_hle17_ddec_spin_density
 _atom_site_hle17_ddec_sum_bond_order
 _atom_site_hle17_magmom
 _atom_site_hse06_10hf_bader_spin_density
 _atom_site_hse06_10hf_ddec_charge
 _atom_site_hse06_10hf_ddec_spin_density
 _atom_site_hse06_10hf_ddec_sum_bond_order
 _atom_site_hse06_10hf_magmom
 _atom_site_hse06_bader_spin_density
 _atom_site_hse06_ddec_charge
 _atom_site_hse06_ddec_spin_density
 _atom_site_hse06_ddec_sum_bond_order
 _atom_site_hse06_magmom
 _atom_site_pbe_bader_spin_density
 _atom_site_pbe_cm5_charge
 _atom_site_pbe_ddec_charge
 _atom_site_pbe_ddec_spin_density
 _atom_site_pbe_ddec_sum_bond_order
 _atom_site_pbe_magmom
Ag  Ag0  1  0.17873410  0.94881426  0.92733300  1  0  0.495504  0  1.514483  0  0  0.347357  0  1.981037  0  0  0.377706  0  1.933028  0  0  0.462164  0.326628  0  2.013856  0
Ag  Ag1  1  0.82126940  0.44882692  0.57266493  1  0  0.495361  0  1.514615  0  0  0.34716  0  1.981286  0  0  0.377505  0  1.933278  0  0  0.462083  0.326484  0  2.013999  0
Ag  Ag2  1  0.82128263  0.05118474  0.07267252  1  0  0.495364  0  1.514438  0  0  0.34724  0  1.981009  0  0  0.37758  0  1.933007  0  0  0.462115  0.326558  0  2.013751  0
Ag  Ag3  1  0.17874661  0.55118399  0.42732503  1  0  0.495454  0  1.514307  0  0  0.347275  0  1.98093  0  0  0.377614  0  1.932919  0  0  0.462094  0.326601  0  2.013645  0
H  H4  1  0.19272656  0.12151413  0.72119109  1  0  0.091257  0  0.968989  0  0  0.103608  0  1.029101  0  0  0.10508  0  1.027229  0  0  0.131956  0.102463  0  1.030505  0
H  H5  1  0.80730169  0.62150671  0.77882879  1  0  0.091439  0  0.968729  0  0  0.103731  0  1.028941  0  0  0.105212  0  1.027043  0  0  0.131945  0.102584  0  1.030349  0
H  H6  1  0.80728234  0.87848587  0.27881482  1  0  0.091186  0  0.968829  0  0  0.103525  0  1.028985  0  0  0.104999  0  1.027109  0  0  0.131918  0.102383  0  1.030387  0
H  H7  1  0.19267324  0.37848832  0.22116376  1  0  0.091457  0  0.968749  0  0  0.103651  0  1.029044  0  0  0.105128  0  1.027161  0  0  0.132004  0.102507  0  1.030449  0
H  H8  1  0.72424477  0.54541035  0.10399308  1  0  0.137032  0  0.943038  0  0  0.15104  0  0.996475  0  0  0.154408  0  0.996992  0  0  0.105806  0.148681  0  0.996388  0
H  H9  1  0.27573222  0.04543438  0.39602584  1  0  0.137033  0  0.943146  0  0  0.151058  0  0.996509  0  0  0.154432  0  0.997006  0  0  0.105767  0.148692  0  0.996441  0
H  H10  1  0.27575986  0.45458369  0.89600525  1  0  0.137067  0  0.943181  0  0  0.151098  0  0.996545  0  0  0.154467  0  0.99706  0  0  0.105814  0.148738  0  0.996461  0
H  H11  1  0.72425889  0.95456858  0.60397705  1  0  0.137085  0  0.943328  0  0  0.15107  0  0.996747  0  0  0.154445  0  0.997243  0  0  0.105778  0.148711  0  0.99666  0
H  H12  1  0.81805399  0.65178603  0.95650232  1  0  0.118208  0  0.936236  0  0  0.140485  0  0.991664  0  0  0.142319  0  0.991434  0  0  0.091827  0.139186  0  0.991737  0
H  H13  1  0.18195355  0.15178391  0.54350526  1  0  0.118138  0  0.936357  0  0  0.140446  0  0.991761  0  0  0.142277  0  0.991538  0  0  0.09181  0.139143  0  0.991833  0
H  H14  1  0.18196233  0.34821793  0.04349432  1  0  0.118228  0  0.93628  0  0  0.140508  0  0.991715  0  0  0.142338  0  0.991493  0  0  0.09184  0.139207  0  0.991785  0
H  H15  1  0.81803111  0.84822700  0.45648552  1  0  0.118043  0  0.936339  0  0  0.140381  0  0.991726  0  0  0.14221  0  0.991506  0  0  0.091823  0.139082  0  0.991797  0
H  H16  1  0.50625011  0.67199398  0.88158899  1  0  0.12748  0  0.960176  0  0  0.143218  0  1.028652  0  0  0.145664  0  1.028086  0  0  0.096245  0.141279  0  1.029437  0
H  H17  1  0.49374290  0.17198139  0.61842291  1  0  0.127347  0  0.96024  0  0  0.143111  0  1.028718  0  0  0.145573  0  1.028139  0  0  0.096178  0.141169  0  1.0295  0
H  H18  1  0.49374286  0.32801097  0.11841177  1  0  0.127464  0  0.960157  0  0  0.143204  0  1.02864  0  0  0.145664  0  1.028061  0  0  0.096244  0.141257  0  1.029444  0
H  H19  1  0.50622648  0.82803249  0.38157678  1  0  0.127341  0  0.96024  0  0  0.143094  0  1.028766  0  0  0.145553  0  1.028188  0  0  0.096139  0.141146  0  1.029561  0
H  H20  1  0.68901417  0.81369879  0.92560251  1  0  0.112754  0  0.97537  0  0  0.126131  0  1.060988  0  0  0.130064  0  1.055439  0  0  0.086528  0.123043  0  1.065316  0
H  H21  1  0.31099363  0.31368711  0.57441464  1  0  0.112729  0  0.975334  0  0  0.126114  0  1.060992  0  0  0.130052  0  1.055435  0  0  0.086539  0.123017  0  1.065325  0
H  H22  1  0.31099470  0.18631509  0.07440266  1  0  0.112811  0  0.975489  0  0  0.126161  0  1.061158  0  0  0.130115  0  1.05556  0  0  0.086531  0.123067  0  1.065494  0
H  H23  1  0.68898140  0.68631685  0.42558013  1  0  0.11269  0  0.97525  0  0  0.126034  0  1.061023  0  0  0.129984  0  1.055441  0  0  0.086518  0.122934  0  1.065366  0
C  C24  1  0.04321375  0.16473897  0.76048894  1  0  0.229838  0  3.712474  0  0  0.169266  0  3.995124  0  0  0.185071  0  4.006876  0  0  0.148526  0.159121  0  3.98666  0
C  C25  1  0.95681046  0.66473763  0.73952665  1  0  0.229761  0  3.712019  0  0  0.169225  0  3.994654  0  0  0.18503  0  4.006407  0  0  0.148506  0.15908  0  3.9862  0
C  C26  1  0.95680280  0.83525308  0.23951288  1  0  0.22986  0  3.712591  0  0  0.16931  0  3.995266  0  0  0.18511  0  4.007024  0  0  0.14856  0.159165  0  3.986803  0
C  C27  1  0.04317078  0.33525938  0.26047506  1  0  0.22985  0  3.712957  0  0  0.169414  0  3.995583  0  0  0.185206  0  4.007341  0  0  0.148616  0.159271  0  3.987116  0
C  C28  1  0.44929291  0.61198805  0.19972888  1  0  0.519562  0  3.897679  0  0  0.474403  0  4.184729  0  0  0.504436  0  4.186199  0  0  0.215372  0.454398  0  4.183261  0
C  C29  1  0.55064985  0.11201371  0.30028788  1  0  0.519436  0  3.897711  0  0  0.47412  0  4.18503  0  0  0.504152  0  4.186508  0  0  0.21522  0.454117  0  4.183549  0
C  C30  1  0.55072382  0.38799309  0.80027665  1  0  0.519606  0  3.897099  0  0  0.474273  0  4.184423  0  0  0.50431  0  4.185888  0  0  0.21526  0.454269  0  4.182953  0
C  C31  1  0.44933945  0.88798727  0.69971863  1  0  0.519494  0  3.897613  0  0  0.474119  0  4.185025  0  0  0.504149  0  4.186501  0  0  0.215292  0.454114  0  4.183555  0
C  C32  1  0.57051412  0.61765693  0.11116424  1  0  -0.3953  0  3.696781  0  0  -0.42229  0  3.963313  0  0  -0.442149  0  3.983405  0  0  -0.13191  -0.409495  0  3.949887  0
C  C33  1  0.42946567  0.11767236  0.38884155  1  0  -0.395237  0  3.697288  0  0  -0.422161  0  3.963837  0  0  -0.44202  0  3.983922  0  0  -0.1318  -0.40937  0  3.950402  0
C  C34  1  0.42948315  0.38233909  0.88884484  1  0  -0.395285  0  3.697012  0  0  -0.422206  0  3.963528  0  0  -0.442064  0  3.983613  0  0  -0.131804  -0.409415  0  3.9501  0
C  C35  1  0.57056054  0.88233061  0.61115701  1  0  -0.395315  0  3.696902  0  0  -0.422206  0  3.96351  0  0  -0.442064  0  3.9836  0  0  -0.13184  -0.409414  0  3.950083  0
C  C36  1  0.50377251  0.71084898  0.03645659  1  0  0.367295  0  3.764266  0  0  0.362517  0  4.018391  0  0  0.380225  0  4.036246  0  0  0.112524  0.350888  0  4.005708  0
C  C37  1  0.49624515  0.21085371  0.46355150  1  0  0.367371  0  3.76419  0  0  0.362538  0  4.018426  0  0  0.380258  0  4.036268  0  0  0.112604  0.350912  0  4.005721  0
C  C38  1  0.49624011  0.28915002  0.96354505  1  0  0.367203  0  3.764602  0  0  0.362423  0  4.018801  0  0  0.380129  0  4.036661  0  0  0.112419  0.350802  0  4.006094  0
C  C39  1  0.50375748  0.78914132  0.53644599  1  0  0.367278  0  3.764122  0  0  0.362478  0  4.01831  0  0  0.380192  0  4.036161  0  0  0.112555  0.350856  0  4.005607  0
C  C40  1  0.80553686  0.19771536  0.87649869  1  0  0.483194  0  3.812412  0  0  0.430773  0  4.074014  0  0  0.455321  0  4.087101  0  0  0.335077  0.414502  0  4.064732  0
C  C41  1  0.19448225  0.69770819  0.62350009  1  0  0.483307  0  3.81238  0  0  0.431096  0  4.07366  0  0  0.455648  0  4.086741  0  0  0.335177  0.414821  0  4.064393  0
C  C42  1  0.19447579  0.80227967  0.12350369  1  0  0.483077  0  3.812552  0  0  0.430723  0  4.074062  0  0  0.455272  0  4.087147  0  0  0.335092  0.414453  0  4.064787  0
C  C43  1  0.80552020  0.30229577  0.37649370  1  0  0.483181  0  3.812133  0  0  0.430962  0  4.073427  0  0  0.455499  0  4.086514  0  0  0.335101  0.414689  0  4.064153  0
C  C44  1  0.63863439  0.71185692  0.94538341  1  0  -0.376359  0  3.693848  0  0  -0.458521  0  3.93629  0  0  -0.462863  0  3.941027  0  0  -0.246769  -0.455069  0  3.93303  0
C  C45  1  0.36137025  0.21185073  0.55462716  1  0  -0.376151  0  3.693814  0  0  -0.458354  0  3.936195  0  0  -0.462707  0  3.940905  0  0  -0.246723  -0.454905  0  3.932962  0
C  C46  1  0.36136075  0.28814505  0.05462188  1  0  -0.376411  0  3.693937  0  0  -0.458552  0  3.936304  0  0  -0.462898  0  3.94102  0  0  -0.246818  -0.455113  0  3.933073  0
C  C47  1  0.63861645  0.78815819  0.44536518  1  0  -0.375965  0  3.693569  0  0  -0.458168  0  3.935927  0  0  -0.462522  0  3.940658  0  0  -0.24664  -0.454731  0  3.932716  0
N  N48  1  0.99942893  0.11927440  0.85152718  1  0  -0.462893  0  3.269779  0  0  -0.376181  0  3.570357  0  0  -0.402481  0  3.579596  0  0  -0.376052  -0.358381  0  3.563176  0
N  N49  1  0.00058694  0.61927139  0.64848181  1  0  -0.462876  0  3.269599  0  0  -0.376263  0  3.570154  0  0  -0.402554  0  3.579368  0  0  -0.375994  -0.35847  0  3.562986  0
N  N50  1  0.00059573  0.88071964  0.14848018  1  0  -0.462512  0  3.269616  0  0  -0.375907  0  3.57023  0  0  -0.402189  0  3.579444  0  0  -0.375903  -0.358116  0  3.563057  0
N  N51  1  0.99940351  0.38072463  0.35150700  1  0  -0.462911  0  3.269996  0  0  -0.376308  0  3.570502  0  0  -0.402568  0  3.579699  0  0  -0.376035  -0.358527  0  3.563352  0
N  N52  1  0.89443292  0.26651692  0.72569138  1  0  -0.272892  0  2.936554  0  0  -0.24102  0  3.220332  0  0  -0.253521  0  3.233628  0  0  -0.229352  -0.232524  0  3.211254  0
N  N53  1  0.10560570  0.76651291  0.77431947  1  0  -0.273027  0  2.936317  0  0  -0.241159  0  3.220107  0  0  -0.253656  0  3.233397  0  0  -0.2294  -0.232655  0  3.211017  0
N  N54  1  0.10556604  0.73348108  0.27431187  1  0  -0.272968  0  2.936747  0  0  -0.241071  0  3.22053  0  0  -0.253576  0  3.233831  0  0  -0.229418  -0.232572  0  3.211452  0
N  N55  1  0.89439320  0.23349204  0.22568230  1  0  -0.273004  0  2.936822  0  0  -0.241159  0  3.220592  0  0  -0.253657  0  3.233893  0  0  -0.229491  -0.232657  0  3.211497  0
N  N56  1  0.74337931  0.28755661  0.80024681  1  0  -0.126179  0  3.506055  0  0  -0.03847  0  3.718438  0  0  -0.056097  0  3.74041  0  0  -0.125374  -0.027038  0  3.703662  0
N  N57  1  0.25667779  0.78755358  0.69976023  1  0  -0.12607  0  3.50545  0  0  -0.0384  0  3.717796  0  0  -0.056036  0  3.739781  0  0  -0.125326  -0.026959  0  3.703014  0
N  N58  1  0.25663938  0.71243942  0.19975880  1  0  -0.126229  0  3.505718  0  0  -0.038609  0  3.71809  0  0  -0.056242  0  3.74007  0  0  -0.12541  -0.02717  0  3.703312  0
N  N59  1  0.74331694  0.21244344  0.30023617  1  0  -0.126102  0  3.505333  0  0  -0.038431  0  3.717645  0  0  -0.056067  0  3.739631  0  0  -0.125262  -0.026992  0  3.702859  0
N  N60  1  0.31367486  0.80446270  0.04121759  1  0  -0.496293  0  3.264412  0  0  -0.41081  0  3.549997  0  0  -0.439812  0  3.560987  0  0  -0.372386  -0.391242  0  3.541754  0
N  N61  1  0.68633324  0.30446277  0.45878476  1  0  -0.496141  0  3.264376  0  0  -0.41069  0  3.549898  0  0  -0.439694  0  3.560888  0  0  -0.372298  -0.391127  0  3.541653  0
N  N62  1  0.68633607  0.19553829  0.95878990  1  0  -0.496125  0  3.264243  0  0  -0.410688  0  3.549926  0  0  -0.439691  0  3.560921  0  0  -0.372217  -0.39112  0  3.541671  0
N  N63  1  0.31366590  0.69553921  0.54122219  1  0  -0.496302  0  3.264836  0  0  -0.41088  0  3.550389  0  0  -0.439882  0  3.561374  0  0  -0.372414  -0.391316  0  3.542149  0
O  O64  1  0.49194819  0.53270440  0.27079949  1  0  -0.552214  0  1.969537  0  0  -0.501364  0  2.208177  0  0  -0.523243  0  2.200252  0  0  -0.304189  -0.486316  0  2.21335  0
O  O65  1  0.50794648  0.03272979  0.22919144  1  0  -0.552372  0  1.968691  0  0  -0.501542  0  2.20743  0  0  -0.523436  0  2.199517  0  0  -0.304301  -0.486488  0  2.212597  0
O  O66  1  0.50803247  0.46728368  0.72918962  1  0  -0.552364  0  1.968848  0  0  -0.501483  0  2.207592  0  0  -0.523374  0  2.199671  0  0  -0.304204  -0.486437  0  2.212765  0
O  O67  1  0.49202643  0.96727517  0.77079954  1  0  -0.552286  0  1.96908  0  0  -0.50145  0  2.207874  0  0  -0.523333  0  2.199954  0  0  -0.304235  -0.486398  0  2.213049  0
