# generated using pymatgen
data_CdH12C22S2(NO)4
_symmetry_space_group_name_H-M   'P 1'
_cell_length_a   13.91067991
_cell_length_b   17.54487093
_cell_length_c   21.40205604
_cell_angle_alpha   101.86224323
_cell_angle_beta   89.99955487
_cell_angle_gamma   89.99908266
_symmetry_Int_Tables_number   1
_chemical_formula_structural   CdH12C22S2(NO)4
_chemical_formula_sum   'Cd8 H96 C176 S16 N32 O32'
_cell_volume   5111.86129687
_cell_formula_units_Z   8
loop_
 _symmetry_equiv_pos_site_id
 _symmetry_equiv_pos_as_xyz
  1  'x, y, z'
loop_
 _atom_site_type_symbol
 _atom_site_label
 _atom_site_symmetry_multiplicity
 _atom_site_fract_x
 _atom_site_fract_y
 _atom_site_fract_z
 _atom_site_occupancy
 _atom_site_pbe_bader_charge
 _atom_site_pbe_bader_spin_density
 _atom_site_pbe_cm5_charge
 _atom_site_pbe_ddec_charge
 _atom_site_pbe_ddec_spin_density
 _atom_site_pbe_ddec_sum_bond_order
 _atom_site_pbe_magmom
Cd  Cd0  1  0.60140031  0.47818557  0.42438513  1  1.280094  0  0.77054  0.883057  0  2.201454  0
Cd  Cd1  1  0.10139979  0.52182059  0.07561786  1  1.280013  0  0.77055  0.88309  0  2.201348  0
Cd  Cd2  1  0.39858788  0.52181928  0.57561499  1  1.280056  0  0.77053  0.883018  0  2.201514  0
Cd  Cd3  1  0.89859199  0.47818496  0.92438798  1  1.280015  0  0.77057  0.883136  0  2.201405  0
Cd  Cd4  1  0.89672148  0.98468839  0.42578818  1  1.280874  0  0.769248  0.885106  0  2.198066  0
Cd  Cd5  1  0.39670970  0.01530055  0.07420451  1  1.285347  0  0.769334  0.885187  0  2.197959  0
Cd  Cd6  1  0.10327533  0.01530885  0.57420889  1  1.280818  0  0.769282  0.885147  0  2.197863  0
Cd  Cd7  1  0.60327201  0.98468915  0.92579326  1  1.280862  0  0.769302  0.885129  0  2.197965  0
H  H8  1  0.60481897  0.43425738  0.18727497  1  0.12923  0  0.092956  0.095674  0  1.056748  0
H  H9  1  0.10481400  0.56574865  0.31272377  1  0.128783  0  0.092989  0.095647  0  1.056693  0
H  H10  1  0.39517640  0.56573940  0.81272810  1  0.128979  0  0.092982  0.095598  0  1.056795  0
H  H11  1  0.89517705  0.43426085  0.68727660  1  0.129104  0  0.092955  0.095581  0  1.056822  0
H  H12  1  0.68009615  0.44729963  0.08370959  1  0.107152  0  0.091089  0.095204  0  1.05335  0
H  H13  1  0.18008805  0.55270477  0.41629084  1  0.107052  0  0.091085  0.095213  0  1.053367  0
H  H14  1  0.31990569  0.55268141  0.91629010  1  0.107044  0  0.091033  0.095124  0  1.053365  0
H  H15  1  0.81990947  0.44732103  0.58371207  1  0.107173  0  0.09103  0.095141  0  1.053388  0
H  H16  1  0.93316772  0.54609977  0.18513661  1  0.126186  0  0.099271  0.113786  0  1.051815  0
H  H17  1  0.43317075  0.45390799  0.31486535  1  0.125938  0  0.099284  0.113784  0  1.051862  0
H  H18  1  0.06683340  0.45388064  0.81486065  1  0.126442  0  0.099273  0.113701  0  1.051863  0
H  H19  1  0.56682893  0.54611267  0.68514190  1  0.126425  0  0.099268  0.113727  0  1.051831  0
H  H20  1  0.85917880  0.53000537  0.28762124  1  0.088791  0  0.094464  0.10116  0  1.056823  0
H  H21  1  0.35918848  0.47001045  0.21238237  1  0.088649  0  0.09443  0.101209  0  1.056797  0
H  H22  1  0.14081514  0.46998905  0.71238007  1  0.088668  0  0.094492  0.101128  0  1.056823  0
H  H23  1  0.64080330  0.53000142  0.78762071  1  0.089068  0  0.094429  0.101188  0  1.056819  0
H  H24  1  0.49201009  0.32507690  0.35167597  1  0.110344  0  0.121993  0.097108  0  0.982071  0
H  H25  1  0.99199985  0.67492521  0.14831780  1  0.110389  0  0.121982  0.097143  0  0.98201  0
H  H26  1  0.50799679  0.67491922  0.64832279  1  0.11017  0  0.121978  0.097145  0  0.981948  0
H  H27  1  0.00798331  0.32507835  0.85167604  1  0.110384  0  0.121981  0.097075  0  0.982194  0
H  H28  1  0.47611944  0.18181478  0.35108034  1  0.123747  0  0.116416  0.130602  0  0.987359  0
H  H29  1  0.97610341  0.81818472  0.14891638  1  0.123808  0  0.116464  0.130748  0  0.987433  0
H  H30  1  0.52389391  0.81817846  0.64891984  1  0.123749  0  0.116446  0.130707  0  0.987541  0
H  H31  1  0.02388334  0.18181944  0.85107803  1  0.123646  0  0.116435  0.130673  0  0.987505  0
H  H32  1  0.70208496  0.21155180  0.49283112  1  0.066444  0  0.101556  0.107915  0  1.028222  0
H  H33  1  0.20209206  0.78845416  0.00717598  1  0.066777  0  0.101544  0.107901  0  1.028164  0
H  H34  1  0.29791257  0.78846028  0.50718181  1  0.066641  0  0.101505  0.107839  0  1.028192  0
H  H35  1  0.79789828  0.21154006  0.99281548  1  0.066682  0  0.101586  0.107934  0  1.028176  0
H  H36  1  0.70897036  0.35213924  0.48627827  1  0.144142  0  0.116882  0.097451  0  1.026346  0
H  H37  1  0.20897881  0.64786838  0.01372953  1  0.144351  0  0.116931  0.097449  0  1.026387  0
H  H38  1  0.29102357  0.64787449  0.51373024  1  0.144518  0  0.116872  0.097416  0  1.026372  0
H  H39  1  0.79100794  0.35212888  0.98626848  1  0.144618  0  0.116837  0.097336  0  1.026433  0
H  H40  1  0.49428782  0.72764906  0.33141513  1  0.047664  0  0.104834  0.113868  0  1.005338  0
H  H41  1  0.99429773  0.27236244  0.16858523  1  0.04744  0  0.104871  0.113962  0  1.005317  0
H  H42  1  0.50570612  0.27236511  0.66858691  1  0.047451  0  0.10486  0.113939  0  1.005348  0
H  H43  1  0.00572855  0.72763021  0.83141439  1  0.047134  0  0.104842  0.113885  0  1.005316  0
H  H44  1  0.50523689  0.58833386  0.33947639  1  0.141565  0  0.119579  0.09491  0  1.010379  0
H  H45  1  0.00525485  0.41167593  0.16052346  1  0.141378  0  0.119487  0.094911  0  1.010281  0
H  H46  1  0.49475705  0.41168022  0.66052096  1  0.141259  0  0.119533  0.094866  0  1.010382  0
H  H47  1  0.99476856  0.58831736  0.83947954  1  0.141447  0  0.119538  0.094853  0  1.01048  0
H  H48  1  0.63416641  0.64414996  0.51709384  1  0.104066  0  0.114139  0.086832  0  1.015511  0
H  H49  1  0.13416368  0.35584968  0.98289624  1  0.103846  0  0.114122  0.086844  0  1.015372  0
H  H50  1  0.36584334  0.35585065  0.48289767  1  0.104054  0  0.11413  0.08681  0  1.015374  0
H  H51  1  0.86583817  0.64414808  0.01709763  1  0.103921  0  0.114112  0.086797  0  1.015436  0
H  H52  1  0.63378469  0.78718503  0.51551350  1  0.106756  0  0.112892  0.124399  0  0.996923  0
H  H53  1  0.13377693  0.21281232  0.98447810  1  0.106465  0  0.112929  0.124321  0  0.997008  0
H  H54  1  0.36622578  0.21281741  0.48448250  1  0.106641  0  0.112911  0.124334  0  0.996917  0
H  H55  1  0.86622707  0.78718714  0.01551417  1  0.106563  0  0.112937  0.124396  0  0.996932  0
H  H56  1  0.89236186  0.94823812  0.19121884  1  0.111574  0  0.092947  0.095996  0  1.060016  0
H  H57  1  0.39235947  0.05175135  0.30876835  1  0.111899  0  0.092932  0.096094  0  1.059903  0
H  H58  1  0.10763927  0.05174798  0.80877323  1  0.111791  0  0.092967  0.096107  0  1.059773  0
H  H59  1  0.60764022  0.94825523  0.69123111  1  0.111876  0  0.092937  0.096036  0  1.059849  0
H  H60  1  0.81682400  0.95927395  0.08741598  1  0.085367  0  0.091525  0.096419  0  1.048461  0
H  H61  1  0.31683354  0.04072424  0.41257577  1  0.08567  0  0.091542  0.096509  0  1.048355  0
H  H62  1  0.18316490  0.04070573  0.91257416  1  0.085502  0  0.091512  0.096428  0  1.048362  0
H  H63  1  0.68316255  0.95929579  0.58742905  1  0.085534  0  0.091534  0.096446  0  1.048323  0
H  H64  1  0.56170918  0.05532412  0.18773187  1  0.130571  0  0.1004  0.115099  0  1.047272  0
H  H65  1  0.06170587  0.94468050  0.31228184  1  0.130117  0  0.100415  0.115198  0  1.047174  0
H  H66  1  0.43830273  0.94468552  0.81227554  1  0.130165  0  0.100442  0.115247  0  1.047039  0
H  H67  1  0.93829094  0.05532912  0.68772463  1  0.130427  0  0.100397  0.115141  0  1.047231  0
H  H68  1  0.63651669  0.04203844  0.29085528  1  0.111104  0  0.095991  0.104209  0  1.050576  0
H  H69  1  0.13649996  0.95795736  0.20914872  1  0.111011  0  0.095923  0.104202  0  1.050667  0
H  H70  1  0.36350744  0.95797687  0.70914553  1  0.11188  0  0.095876  0.104155  0  1.050657  0
H  H71  1  0.86350116  0.04203541  0.79085700  1  0.111042  0  0.095878  0.104112  0  1.050725  0
H  H72  1  0.95902830  0.82474444  0.33360940  1  0.119947  0  0.12257  0.098721  0  0.984077  0
H  H73  1  0.45903661  0.17523922  0.16636719  1  0.120431  0  0.122665  0.098796  0  0.984223  0
H  H74  1  0.04097138  0.17525274  0.66638439  1  0.119965  0  0.122613  0.098766  0  0.984006  0
H  H75  1  0.54095660  0.82474500  0.83361757  1  0.120325  0  0.122583  0.098748  0  0.984001  0
H  H76  1  0.97694837  0.68153908  0.33256360  1  0.130539  0  0.118294  0.133783  0  0.985089  0
H  H77  1  0.47696814  0.31844490  0.16741341  1  0.130996  0  0.118205  0.133685  0  0.984877  0
H  H78  1  0.02305203  0.31845869  0.66743121  1  0.130612  0  0.118204  0.133664  0  0.985051  0
H  H79  1  0.52303227  0.68154115  0.83257584  1  0.130914  0  0.118315  0.133876  0  0.984959  0
H  H80  1  0.82194007  0.72341771  0.51167503  1  0.074932  0  0.103845  0.1115  0  1.011534  0
H  H81  1  0.32191084  0.27659160  0.98832353  1  0.075236  0  0.103749  0.111311  0  1.011661  0
H  H82  1  0.17809700  0.27658727  0.48833166  1  0.075639  0  0.103754  0.11144  0  1.01137  0
H  H83  1  0.67809459  0.72341422  0.01166693  1  0.075507  0  0.103751  0.111449  0  1.011412  0
H  H84  1  0.80741390  0.86269558  0.50306216  1  0.135837  0  0.115963  0.095265  0  1.024797  0
H  H85  1  0.30738452  0.13731093  0.99693136  1  0.135633  0  0.115983  0.095253  0  1.024719  0
H  H86  1  0.19261311  0.13730883  0.49694491  1  0.135633  0  0.115931  0.09512  0  1.024978  0
H  H87  1  0.69260942  0.86268889  0.00304975  1  0.135763  0  0.115925  0.095219  0  1.025039  0
H  H88  1  0.99885268  0.23249699  0.32829666  1  0.065254  0  0.105824  0.114433  0  1.004996  0
H  H89  1  0.49885536  0.76750459  0.17170447  1  0.065155  0  0.105761  0.114327  0  1.005087  0
H  H90  1  0.00112544  0.76750151  0.67170527  1  0.065322  0  0.105744  0.114285  0  1.005032  0
H  H91  1  0.50114432  0.23249862  0.82830054  1  0.06528  0  0.105853  0.114475  0  1.005007  0
H  H92  1  0.99165884  0.09350975  0.33794683  1  0.113143  0  0.12038  0.095702  0  1.00087  0
H  H93  1  0.49166457  0.90648537  0.16204539  1  0.113427  0  0.120426  0.095801  0  1.000795  0
H  H94  1  0.00830922  0.90648752  0.66205164  1  0.113678  0  0.12039  0.095779  0  1.000665  0
H  H95  1  0.50832361  0.09351417  0.83795064  1  0.113461  0  0.120377  0.095725  0  1.000873  0
H  H96  1  0.88804610  0.15168336  0.52273096  1  0.114074  0  0.116621  0.095039  0  1.010317  0
H  H97  1  0.38805500  0.84830112  0.97726339  1  0.113781  0  0.116616  0.095057  0  1.010304  0
H  H98  1  0.11195933  0.84831116  0.47727504  1  0.113897  0  0.116559  0.094986  0  1.010259  0
H  H99  1  0.61193031  0.15167932  0.02273527  1  0.114481  0  0.116602  0.095  0  1.01019  0
H  H100  1  0.88529570  0.29434662  0.52016619  1  0.12532  0  0.115011  0.127318  0  0.990306  0
H  H101  1  0.38530243  0.70564040  0.97983745  1  0.125239  0  0.115036  0.127353  0  0.990334  0
H  H102  1  0.11471692  0.70565267  0.47984615  1  0.125285  0  0.114999  0.127294  0  0.990306  0
H  H103  1  0.61469654  0.29434430  0.02017076  1  0.124838  0  0.114985  0.127296  0  0.990352  0
C  C104  1  0.68235109  0.47404760  0.30604548  1  1.540327  0  0.182753  0.553303  0  4.23561  0
C  C105  1  0.18235410  0.52596376  0.19395649  1  1.540775  0  0.182689  0.553326  0  4.23531  0
C  C106  1  0.31764572  0.52595498  0.69395756  1  1.540254  0  0.182815  0.553395  0  4.235532  0
C  C107  1  0.81764127  0.47403879  0.80604467  1  1.540458  0  0.182739  0.553478  0  4.235381  0
C  C108  1  0.72775032  0.48071238  0.24370361  1  -0.042208  0  -0.019309  -0.016942  0  3.957242  0
C  C109  1  0.22775417  0.51929948  0.25629820  1  -0.043014  0  -0.019269  -0.016953  0  3.957197  0
C  C110  1  0.27224936  0.51928086  0.75629705  1  -0.041852  0  -0.019411  -0.017247  0  3.957391  0
C  C111  1  0.77224839  0.48071763  0.74370569  1  -0.0418  0  -0.019346  -0.017263  0  3.957657  0
C  C112  1  0.67725014  0.45759282  0.18618832  1  -0.053156  0  -0.097221  -0.106636  0  3.986353  0
C  C113  1  0.17725067  0.54241337  0.31381288  1  -0.052171  0  -0.097274  -0.106659  0  3.986368  0
C  C114  1  0.32274667  0.54239929  0.81381356  1  -0.052615  0  -0.097135  -0.10627  0  3.986152  0
C  C115  1  0.82274758  0.45760083  0.68619057  1  -0.052778  0  -0.097107  -0.10623  0  3.986398  0
C  C116  1  0.71873507  0.46569064  0.12865338  1  -0.062114  0  -0.098355  -0.11006  0  3.991233  0
C  C117  1  0.21873436  0.53431382  0.37134873  1  -0.062211  0  -0.098389  -0.110185  0  3.99121  0
C  C118  1  0.28126390  0.53429506  0.87134703  1  -0.063139  0  -0.098407  -0.110167  0  3.991332  0
C  C119  1  0.78126605  0.46570563  0.62865600  1  -0.06291  0  -0.098478  -0.110284  0  3.991457  0
C  C120  1  0.81090134  0.49830399  0.12797442  1  -0.074672  0  -0.028909  -0.046087  0  3.99129  0
C  C121  1  0.31090128  0.50170671  0.37202865  1  -0.074722  0  -0.028972  -0.04593  0  3.99107  0
C  C122  1  0.18909619  0.50168347  0.87202721  1  -0.074646  0  -0.028762  -0.04594  0  3.991419  0
C  C123  1  0.68909769  0.49831678  0.62797437  1  -0.074735  0  -0.02877  -0.045987  0  3.991552  0
C  C124  1  0.86119808  0.52169814  0.18557582  1  -0.072617  0  -0.094242  -0.109993  0  3.978492  0
C  C125  1  0.36120062  0.47831241  0.31442648  1  -0.072326  0  -0.09416  -0.109973  0  3.978331  0
C  C126  1  0.13880304  0.47828697  0.81442403  1  -0.071928  0  -0.094274  -0.109934  0  3.978374  0
C  C127  1  0.63880194  0.52170705  0.68557871  1  -0.071898  0  -0.094295  -0.109967  0  3.978416  0
C  C128  1  0.82024082  0.51228884  0.24284579  1  -0.024748  0  -0.09302  -0.098689  0  3.96612  0
C  C129  1  0.32024745  0.48772580  0.25715737  1  -0.024364  0  -0.093001  -0.098729  0  3.965954  0
C  C130  1  0.17976031  0.48770324  0.75715422  1  -0.025246  0  -0.093024  -0.098587  0  3.965939  0
C  C131  1  0.67975440  0.51228962  0.74284860  1  -0.025908  0  -0.092923  -0.098601  0  3.965965  0
C  C132  1  0.85578007  0.50821314  0.06646091  1  1.543504  0  0.200094  0.57027  0  4.21463  0
C  C133  1  0.35577804  0.49179107  0.43353998  1  1.543594  0  0.200075  0.570174  0  4.214702  0
C  C134  1  0.14421386  0.49177314  0.93353960  1  1.543939  0  0.200062  0.570066  0  4.214751  0
C  C135  1  0.64421374  0.50822840  0.56646521  1  1.54345  0  0.199926  0.57001  0  4.214808  0
C  C136  1  0.53724954  0.29667016  0.38172838  1  0.465433  0  0.052729  0.101014  0  3.950771  0
C  C137  1  0.03724195  0.70333797  0.11826965  1  0.464932  0  0.052671  0.100905  0  3.95075  0
C  C138  1  0.46275734  0.70333295  0.61827194  1  0.46581  0  0.052684  0.101013  0  3.950702  0
C  C139  1  0.96274552  0.29666621  0.88172663  1  0.463695  0  0.052615  0.100979  0  3.951072  0
C  C140  1  0.52827090  0.21783603  0.38179379  1  -0.009362  0  -0.074715  -0.157499  0  3.908074  0
C  C141  1  0.02825812  0.78217049  0.11820356  1  -0.009648  0  -0.07466  -0.157533  0  3.90815  0
C  C142  1  0.47174460  0.78216481  0.61820897  1  -0.009707  0  -0.074718  -0.157524  0  3.908102  0
C  C143  1  0.97173006  0.21783477  0.88178822  1  -0.009733  0  -0.074622  -0.157376  0  3.908237  0
C  C144  1  0.58679940  0.18517183  0.42307257  1  0.002498  0  0.010057  0.093719  0  4.027531  0
C  C145  1  0.08679507  0.81483685  0.07692996  1  0.00225  0  0.00998  0.093565  0  4.027277  0
C  C146  1  0.41321107  0.81483547  0.57693401  1  0.002233  0  0.009984  0.093391  0  4.027466  0
C  C147  1  0.91319598  0.18516438  0.92306353  1  0.001944  0  0.009998  0.093427  0  4.027562  0
C  C148  1  0.65318939  0.23416717  0.46124437  1  -0.046435  0  -0.086121  -0.171488  0  3.946864  0
C  C149  1  0.15318939  0.76584000  0.03875944  1  -0.046643  0  -0.08602  -0.171372  0  3.94663  0
C  C150  1  0.34681604  0.76584425  0.53876471  1  -0.046146  0  -0.08599  -0.17122  0  3.946844  0
C  C151  1  0.84679879  0.23415830  0.96123312  1  -0.045751  0  -0.086171  -0.171546  0  3.946738  0
C  C152  1  0.65815243  0.31211190  0.45769486  1  0.491815  0  0.045505  0.0978  0  3.935185  0
C  C153  1  0.15815685  0.68789288  0.04230901  1  0.4917  0  0.045441  0.097807  0  3.93532  0
C  C154  1  0.34184581  0.68789600  0.54231274  1  0.49192  0  0.045558  0.097928  0  3.935231  0
C  C155  1  0.84183349  0.31210666  0.95768701  1  0.491598  0  0.045543  0.098077  0  3.935189  0
C  C156  1  0.57936277  0.10325438  0.42580019  1  0.472398  0  0.129877  0.121689  0  3.984076  0
C  C157  1  0.07935896  0.89675444  0.07420379  1  0.472264  0  0.129823  0.121742  0  3.983674  0
C  C158  1  0.42064698  0.89675527  0.57420768  1  0.472807  0  0.129724  0.121684  0  3.983748  0
C  C159  1  0.92063641  0.10324620  0.92578914  1  0.473064  0  0.129831  0.121872  0  3.983577  0
C  C160  1  0.54368432  0.98045063  0.39674833  1  0.412271  0  0.102972  0.085967  0  4.10255  0
C  C161  1  0.04368145  0.01956035  0.10325150  1  0.411474  0  0.103081  0.086058  0  4.10245  0
C  C162  1  0.45631753  0.01956012  0.60325644  1  0.411949  0  0.103067  0.085994  0  4.102345  0
C  C163  1  0.95632111  0.98044086  0.89674151  1  0.41228  0  0.103011  0.085918  0  4.102505  0
C  C164  1  0.59830682  0.97580742  0.45133080  1  0.396083  0  0.105297  0.090731  0  4.085912  0
C  C165  1  0.09830163  0.02419871  0.04866846  1  0.396239  0  0.105363  0.090754  0  4.086343  0
C  C166  1  0.40169143  0.02420047  0.54867586  1  0.395915  0  0.105308  0.090802  0  4.086367  0
C  C167  1  0.90170021  0.97579840  0.95132252  1  0.395887  0  0.105408  0.09085  0  4.08626  0
C  C168  1  0.56554925  0.85200630  0.42129670  1  0.446595  0  0.118228  0.098098  0  4.024327  0
C  C169  1  0.06555773  0.14800266  0.07870458  1  0.447074  0  0.118257  0.097839  0  4.024369  0
C  C170  1  0.43444756  0.14800391  0.57871033  1  0.447  0  0.118204  0.097781  0  4.024987  0
C  C171  1  0.93445346  0.85199561  0.92128611  1  0.446683  0  0.118207  0.097816  0  4.024868  0
C  C172  1  0.56498864  0.76950272  0.42297994  1  -0.010168  0  0.008355  0.091019  0  4.032102  0
C  C173  1  0.06499187  0.23050440  0.07701638  1  -0.010318  0  0.008309  0.09113  0  4.032214  0
C  C174  1  0.43500530  0.23050737  0.57702100  1  -0.009738  0  0.008305  0.091062  0  4.032318  0
C  C175  1  0.93502076  0.76949335  0.92297750  1  -0.010103  0  0.008342  0.091078  0  4.032174  0
C  C176  1  0.52684760  0.71223136  0.37349855  1  -0.017813  0  -0.0845  -0.170383  0  3.935498  0
C  C177  1  0.02685410  0.28777808  0.12649927  1  -0.017085  0  -0.084477  -0.170458  0  3.93576  0
C  C178  1  0.47314490  0.28777988  0.62650210  1  -0.017169  0  -0.084461  -0.170394  0  3.935754  0
C  C179  1  0.97316427  0.71221801  0.87349856  1  -0.016814  0  -0.084432  -0.170267  0  3.935662  0
C  C180  1  0.53206953  0.63435497  0.37769932  1  0.480327  0  0.047976  0.101656  0  3.937636  0
C  C181  1  0.03207522  0.36565146  0.12229659  1  0.480579  0  0.048061  0.101622  0  3.937845  0
C  C182  1  0.46792728  0.36565446  0.62229777  1  0.480392  0  0.048051  0.101663  0  3.937787  0
C  C183  1  0.96794100  0.63434352  0.87770386  1  0.480135  0  0.04803  0.101639  0  3.937889  0
C  C184  1  0.60571060  0.66568931  0.47651617  1  0.513493  0  0.045361  0.09075  0  3.967856  0
C  C185  1  0.10570733  0.33431367  0.02347649  1  0.514555  0  0.045342  0.090655  0  3.967793  0
C  C186  1  0.39429196  0.33431660  0.52347898  1  0.514372  0  0.045329  0.090727  0  3.967869  0
C  C187  1  0.89429883  0.66568531  0.97652085  1  0.514151  0  0.045387  0.09081  0  3.967752  0
C  C188  1  0.60470554  0.74453192  0.47580861  1  -0.001729  0  -0.0806  -0.159104  0  3.934816  0
C  C189  1  0.10470170  0.25546936  0.02418519  1  -0.001755  0  -0.080579  -0.158939  0  3.934905  0
C  C190  1  0.39529846  0.25547462  0.52418897  1  -0.002221  0  -0.080581  -0.15898  0  3.934971  0
C  C191  1  0.89530517  0.74452784  0.97581000  1  -0.001801  0  -0.080646  -0.159119  0  3.934808  0
C  C192  1  0.81413812  0.98699421  0.30937814  1  1.527143  0  0.183389  0.551866  0  4.235106  0
C  C193  1  0.31412428  0.01297728  0.19061134  1  1.526098  0  0.183425  0.552076  0  4.234725  0
C  C194  1  0.18587450  0.01299363  0.69061326  1  1.526367  0  0.183427  0.552067  0  4.23509  0
C  C195  1  0.68587684  0.98701024  0.80939310  1  1.525992  0  0.183668  0.552224  0  4.234798  0
C  C196  1  0.76873518  0.99396915  0.24724124  1  0.026026  0  -0.018889  -0.016522  0  3.961179  0
C  C197  1  0.26872505  0.00600940  0.25274957  1  0.026172  0  -0.018873  -0.01644  0  3.961112  0
C  C198  1  0.23127888  0.00601984  0.75274987  1  0.025981  0  -0.018856  -0.016466  0  3.960966  0
C  C199  1  0.73127679  0.99398506  0.74725361  1  0.025977  0  -0.018923  -0.01665  0  3.960974  0
C  C200  1  0.81962400  0.97085564  0.18988785  1  -0.090218  0  -0.096934  -0.110157  0  3.992906  0
C  C201  1  0.31961846  0.02913199  0.31010037  1  -0.089638  0  -0.096909  -0.110447  0  3.992698  0
C  C202  1  0.18038216  0.02912868  0.81010207  1  -0.08955  0  -0.096974  -0.110489  0  3.992572  0
C  C203  1  0.68038338  0.97087460  0.68990002  1  -0.089434  0  -0.096861  -0.11025  0  3.992551  0
C  C204  1  0.77793903  0.97786729  0.13220588  1  -0.088856  0  -0.09969  -0.112408  0  3.996848  0
C  C205  1  0.27793798  0.02212919  0.36778860  1  -0.089782  0  -0.099691  -0.112401  0  3.996794  0
C  C206  1  0.22206137  0.02211827  0.86778797  1  -0.088956  0  -0.099717  -0.112415  0  3.99673  0
C  C207  1  0.72206099  0.97788441  0.63221381  1  -0.089166  0  -0.099772  -0.112509  0  3.996884  0
C  C208  1  0.68504328  0.00904479  0.13120838  1  -0.00641  0  -0.02786  -0.044189  0  3.988831  0
C  C209  1  0.18504267  0.99096133  0.36879463  1  -0.006092  0  -0.027868  -0.044163  0  3.988709  0
C  C210  1  0.31496000  0.99095066  0.86878608  1  -0.008165  0  -0.027733  -0.043711  0  3.988543  0
C  C211  1  0.81495486  0.00905532  0.63121480  1  -0.008152  0  -0.027739  -0.043739  0  3.988665  0
C  C212  1  0.63431765  0.03239445  0.18864239  1  -0.060594  0  -0.092318  -0.105493  0  3.970591  0
C  C213  1  0.13431029  0.96760720  0.31136207  1  -0.060527  0  -0.092282  -0.105519  0  3.970375  0
C  C214  1  0.36569570  0.96760979  0.81135624  1  -0.060494  0  -0.092398  -0.105852  0  3.970696  0
C  C215  1  0.86568796  0.03240122  0.68864235  1  -0.060716  0  -0.092352  -0.105654  0  3.97076  0
C  C216  1  0.67574742  0.02453751  0.24617667  1  -0.082946  0  -0.090512  -0.09527  0  3.959995  0
C  C217  1  0.17573484  0.97545594  0.25382489  1  -0.082925  0  -0.090516  -0.095418  0  3.960311  0
C  C218  1  0.32427455  0.97546437  0.75382018  1  -0.0842  0  -0.090459  -0.095264  0  3.960066  0
C  C219  1  0.82426772  0.02454666  0.74617909  1  -0.083369  0  -0.090504  -0.095277  0  3.960064  0
C  C220  1  0.63977116  0.01711598  0.06937124  1  1.546571  0  0.200902  0.572105  0  4.212211  0
C  C221  1  0.13978507  0.98288853  0.43063503  1  1.546634  0  0.200846  0.57215  0  4.212228  0
C  C222  1  0.36022062  0.98287023  0.93062599  1  1.548306  0  0.20076  0.571842  0  4.212068  0
C  C223  1  0.86022181  0.01713045  0.56937476  1  1.548225  0  0.200685  0.571699  0  4.212286  0
C  C224  1  0.92950570  0.79894172  0.37172947  1  0.489413  0  0.051963  0.098614  0  3.947942  0
C  C225  1  0.42950891  0.20104536  0.12825201  1  0.48956  0  0.051906  0.098373  0  3.94844  0
C  C226  1  0.07049830  0.20105551  0.62826713  1  0.489524  0  0.051991  0.098636  0  3.947938  0
C  C227  1  0.57048647  0.79894299  0.87173620  1  0.488609  0  0.052048  0.098656  0  3.947975  0
C  C228  1  0.93962822  0.72005168  0.37142212  1  -0.029302  0  -0.075422  -0.156393  0  3.89813  0
C  C229  1  0.43963701  0.27993179  0.12856015  1  -0.030114  0  -0.075347  -0.156178  0  3.898026  0
C  C230  1  0.06037937  0.27994380  0.62857374  1  -0.029167  0  -0.07521  -0.156145  0  3.897955  0
C  C231  1  0.56036339  0.72005429  0.87143051  1  -0.029672  0  -0.075398  -0.156478  0  3.898078  0
C  C232  1  0.90125051  0.69046420  0.42248044  1  0.009156  0  0.010527  0.090534  0  4.033718  0
C  C233  1  0.40124853  0.30953158  0.07750956  1  0.008674  0  0.010463  0.090228  0  4.034007  0
C  C234  1  0.09875852  0.30953658  0.57751952  1  0.009358  0  0.010417  0.090434  0  4.03358  0
C  C235  1  0.59874972  0.69046327  0.92248434  1  0.009213  0  0.010451  0.090341  0  4.033531  0
C  C236  1  0.85280921  0.74271287  0.47074573  1  -0.029671  0  -0.089051  -0.180319  0  3.971827  0
C  C237  1  0.35279449  0.25728777  0.02924901  1  -0.029842  0  -0.089153  -0.180042  0  3.971727  0
C  C238  1  0.14721348  0.25728860  0.52925947  1  -0.030642  0  -0.089015  -0.180266  0  3.971438  0
C  C239  1  0.64720879  0.74271048  0.97074074  1  -0.030136  0  -0.089004  -0.180168  0  3.971386  0
C  C240  1  0.84494542  0.82037867  0.46683469  1  0.468749  0  0.043557  0.096173  0  3.948607  0
C  C241  1  0.34492576  0.17961912  0.03315685  1  0.468606  0  0.0437  0.09612  0  3.948298  0
C  C242  1  0.15507439  0.17962159  0.53316799  1  0.46878  0  0.043589  0.096219  0  3.948711  0
C  C243  1  0.65506889  0.82037617  0.96683011  1  0.468738  0  0.043485  0.095947  0  3.948946  0
C  C244  1  0.91158942  0.60863563  0.42501761  1  0.454881  0  0.127825  0.117549  0  3.983507  0
C  C245  1  0.41159372  0.39136013  0.07497840  1  0.454884  0  0.128048  0.117819  0  3.983584  0
C  C246  1  0.08840954  0.39136579  0.57498478  1  0.455118  0  0.127825  0.11761  0  3.983402  0
C  C247  1  0.58840525  0.60863188  0.92501880  1  0.454538  0  0.127855  0.117711  0  3.983204  0
C  C248  1  0.95222005  0.48665926  0.39607805  1  0.403097  0  0.106304  0.091172  0  4.094188  0
C  C249  1  0.45221937  0.51333372  0.10392385  1  0.403384  0  0.106321  0.091212  0  4.094493  0
C  C250  1  0.04778107  0.51334171  0.60393081  1  0.402846  0  0.106293  0.091195  0  4.094413  0
C  C251  1  0.54777960  0.48665654  0.89607260  1  0.402932  0  0.106339  0.09125  0  4.094291  0
C  C252  1  0.90090812  0.48104480  0.45173052  1  0.406631  0  0.107544  0.097397  0  4.081051  0
C  C253  1  0.40090871  0.51895071  0.04827439  1  0.406588  0  0.107385  0.09733  0  4.080944  0
C  C254  1  0.09909229  0.51895612  0.54827647  1  0.406718  0  0.107512  0.097528  0  4.080512  0
C  C255  1  0.59908882  0.48104025  0.95172778  1  0.40683  0  0.107638  0.097623  0  4.080653  0
C  C256  1  0.93739015  0.35796467  0.42140823  1  0.477845  0  0.120074  0.098521  0  4.026244  0
C  C257  1  0.43739291  0.64203146  0.07859565  1  0.477662  0  0.119915  0.098291  0  4.02621  0
C  C258  1  0.06260953  0.64203799  0.57859856  1  0.477567  0  0.120019  0.098393  0  4.026474  0
C  C259  1  0.56260678  0.35796247  0.92141025  1  0.478188  0  0.120094  0.098513  0  4.026509  0
C  C260  1  0.94070426  0.27556959  0.42363217  1  0.004668  0  0.006224  0.087056  0  4.035648  0
C  C261  1  0.44071112  0.72442475  0.07637188  1  0.004666  0  0.006199  0.087011  0  4.035991  0
C  C262  1  0.05928968  0.72443019  0.57637604  1  0.004623  0  0.006226  0.087011  0  4.03588  0
C  C263  1  0.55928857  0.27556921  0.92363543  1  0.004773  0  0.006206  0.086998  0  4.035882  0
C  C264  1  0.97308603  0.21772240  0.37246527  1  -0.03441  0  -0.0853  -0.172094  0  3.935761  0
C  C265  1  0.47309398  0.78227202  0.12753628  1  -0.034373  0  -0.085254  -0.171962  0  3.935736  0
C  C266  1  0.02689497  0.78227323  0.62753809  1  -0.034724  0  -0.08531  -0.172034  0  3.935569  0
C  C267  1  0.52690427  0.21772657  0.87246988  1  -0.034743  0  -0.08534  -0.172076  0  3.935851  0
C  C268  1  0.96973253  0.13999169  0.37748920  1  0.4856  0  0.04795  0.101671  0  3.940997  0
C  C269  1  0.46974040  0.85999856  0.12250518  1  0.48583  0  0.047888  0.101463  0  3.940825  0
C  C270  1  0.03024343  0.86000387  0.62251088  1  0.485273  0  0.048035  0.101713  0  3.940668  0
C  C271  1  0.53024922  0.13999467  0.87749454  1  0.485438  0  0.047962  0.101613  0  3.940844  0
C  C272  1  0.90969354  0.17261229  0.48024516  1  0.495965  0  0.04343  0.087185  0  3.962826  0
C  C273  1  0.40970114  0.82737653  0.01975119  1  0.49632  0  0.043456  0.087124  0  3.962945  0
C  C274  1  0.09030255  0.82738455  0.51976119  1  0.495923  0  0.043622  0.087459  0  3.962378  0
C  C275  1  0.59028776  0.17260919  0.98025064  1  0.496193  0  0.043425  0.087408  0  3.962519  0
C  C276  1  0.90923195  0.25131387  0.47894044  1  -0.013148  0  -0.077351  -0.155574  0  3.928294  0
C  C277  1  0.40923754  0.74867449  0.02106098  1  -0.013299  0  -0.077398  -0.155562  0  3.928449  0
C  C278  1  0.09077133  0.74868362  0.52106929  1  -0.013077  0  -0.077284  -0.15547  0  3.92803  0
C  C279  1  0.59075783  0.25131246  0.97894384  1  -0.012724  0  -0.077266  -0.155604  0  3.928326  0
S  S280  1  0.63820533  0.06726151  0.48619762  1  0.299227  0  0.13167  0.128197  0  2.857103  0
S  S281  1  0.13820080  0.93274580  0.01380255  1  0.299656  0  0.131576  0.128099  0  2.857156  0
S  S282  1  0.36179795  0.93274930  0.51381044  1  0.299691  0  0.131668  0.128112  0  2.857408  0
S  S283  1  0.86179673  0.06725135  0.98619030  1  0.299682  0  0.131599  0.128018  0  2.857053  0
S  S284  1  0.50636953  0.88840213  0.36047681  1  0.221993  0  0.103271  0.073183  0  2.68182  0
S  S285  1  0.00637658  0.11161237  0.13952704  1  0.221536  0  0.103284  0.073244  0  2.681707  0
S  S286  1  0.49363087  0.11161268  0.63952813  1  0.221312  0  0.103348  0.073314  0  2.681865  0
S  S287  1  0.99363173  0.88838770  0.86046674  1  0.221129  0  0.103346  0.073318  0  2.681843  0
S  S288  1  0.85722832  0.57127528  0.48646555  1  0.294561  0  0.129037  0.119232  0  2.845025  0
S  S289  1  0.35722900  0.42872246  0.01353246  1  0.294435  0  0.129037  0.119186  0  2.844963  0
S  S290  1  0.14276633  0.42872491  0.51353432  1  0.294504  0  0.128963  0.119052  0  2.844838  0
S  S291  1  0.64276134  0.57127370  0.98646865  1  0.294617  0  0.128946  0.119027  0  2.844743  0
S  S292  1  0.99180589  0.39536593  0.35943298  1  0.236631  0  0.1076  0.079783  0  2.67059  0
S  S293  1  0.49180435  0.60462531  0.14056891  1  0.236521  0  0.10778  0.080009  0  2.670753  0
S  S294  1  0.00819667  0.60463266  0.64057364  1  0.236846  0  0.107718  0.079954  0  2.670775  0
S  S295  1  0.50819893  0.39536387  0.85943158  1  0.236581  0  0.107588  0.079752  0  2.670754  0
N  N296  1  0.60057285  0.34323955  0.41903870  1  -1.21315  0  -0.323212  -0.222977  0  3.471012  0
N  N297  1  0.10057240  0.65676477  0.08095887  1  -1.212318  0  -0.323197  -0.222959  0  3.470978  0
N  N298  1  0.39942540  0.65676299  0.58096247  1  -1.213499  0  -0.323183  -0.223061  0  3.471059  0
N  N299  1  0.89941506  0.34323595  0.91903781  1  -1.211508  0  -0.323128  -0.223044  0  3.470967  0
N  N300  1  0.57109919  0.61104783  0.42821861  1  -1.229663  0  -0.322541  -0.229731  0  3.480213  0
N  N301  1  0.07110573  0.38895508  0.07177469  1  -1.23067  0  -0.322576  -0.229705  0  3.480375  0
N  N302  1  0.42889834  0.38895920  0.57177438  1  -1.230672  0  -0.322589  -0.229706  0  3.480341  0
N  N303  1  0.92890546  0.61104044  0.92822351  1  -1.230205  0  -0.32262  -0.229787  0  3.480432  0
N  N304  1  0.53259301  0.05128415  0.38265150  1  -1.162768  0  -0.297817  -0.27074  0  3.312625  0
N  N305  1  0.03259339  0.94872763  0.11735132  1  -1.162406  0  -0.297894  -0.270823  0  3.31232  0
N  N306  1  0.46741314  0.94872664  0.61735562  1  -1.163045  0  -0.297815  -0.270689  0  3.312065  0
N  N307  1  0.96740630  0.05127300  0.88264113  1  -1.163374  0  -0.297809  -0.270728  0  3.31203  0
N  N308  1  0.60955708  0.90483003  0.46516681  1  -1.13413  0  -0.302243  -0.275557  0  3.324044  0
N  N309  1  0.10955997  0.09517478  0.03483313  1  -1.134262  0  -0.302287  -0.275463  0  3.324175  0
N  N310  1  0.39043973  0.09517845  0.53484089  1  -1.134096  0  -0.3023  -0.27547  0  3.324448  0
N  N311  1  0.89044475  0.90482120  0.96515908  1  -1.133747  0  -0.302324  -0.275458  0  3.324373  0
N  N312  1  0.88327425  0.84854696  0.41848964  1  -1.218507  0  -0.323639  -0.225702  0  3.461259  0
N  N313  1  0.38326321  0.15144663  0.08149403  1  -1.218179  0  -0.323672  -0.225566  0  3.461359  0
N  N314  1  0.11673766  0.15145380  0.58150938  1  -1.218641  0  -0.323705  -0.225737  0  3.461409  0
N  N315  1  0.61673073  0.84854278  0.91848921  1  -1.218084  0  -0.323658  -0.22558  0  3.461486  0
N  N316  1  0.93801653  0.11726668  0.43025948  1  -1.240082  0  -0.32095  -0.235554  0  3.473377  0
N  N317  1  0.43802169  0.88272338  0.06973224  1  -1.240174  0  -0.320898  -0.235374  0  3.473371  0
N  N318  1  0.06196447  0.88273181  0.56974246  1  -1.239836  0  -0.321114  -0.235816  0  3.47333  0
N  N319  1  0.56196003  0.11726633  0.93026600  1  -1.240702  0  -0.320968  -0.235641  0  3.473158  0
N  N320  1  0.95836218  0.55744681  0.38122135  1  -1.155337  0  -0.29701  -0.268453  0  3.312196  0
N  N321  1  0.45836348  0.44254427  0.11877696  1  -1.155477  0  -0.297119  -0.268551  0  3.312421  0
N  N322  1  0.04164182  0.44255347  0.61878226  1  -1.155525  0  -0.296918  -0.268428  0  3.31239  0
N  N323  1  0.54163908  0.55744543  0.88122034  1  -1.154941  0  -0.296927  -0.268411  0  3.312263  0
N  N324  1  0.89356691  0.41002674  0.46598503  1  -1.166686  0  -0.300516  -0.275834  0  3.334409  0
N  N325  1  0.39356551  0.58996996  0.03401589  1  -1.166418  0  -0.300397  -0.275798  0  3.333837  0
N  N326  1  0.10643349  0.58997588  0.53401941  1  -1.166359  0  -0.300559  -0.275987  0  3.33436  0
N  N327  1  0.60642914  0.41002392  0.96598720  1  -1.16711  0  -0.300596  -0.275974  0  3.334401  0
O  O328  1  0.73380390  0.48960633  0.35657608  1  -1.169193  0  -0.343203  -0.572813  0  2.216787  0
O  O329  1  0.23381287  0.51042058  0.14342757  1  -1.169399  0  -0.343209  -0.572768  0  2.216649  0
O  O330  1  0.26619435  0.51039799  0.64342677  1  -1.169214  0  -0.343192  -0.572801  0  2.216813  0
O  O331  1  0.76619185  0.48959130  0.85657598  1  -1.169314  0  -0.343185  -0.572814  0  2.21679  0
O  O332  1  0.59376538  0.45512199  0.30666537  1  -1.175229  0  -0.342801  -0.576486  0  2.175274  0
O  O333  1  0.09376371  0.54487554  0.19333632  1  -1.175275  0  -0.342747  -0.576513  0  2.175117  0
O  O334  1  0.40622927  0.54488645  0.69333998  1  -1.175144  0  -0.342878  -0.576528  0  2.175295  0
O  O335  1  0.90622951  0.45512007  0.80666657  1  -1.175232  0  -0.342861  -0.576592  0  2.175095  0
O  O336  1  0.93648246  0.54233534  0.06712577  1  -1.205654  0  -0.341769  -0.599789  0  2.355549  0
O  O337  1  0.43648041  0.45766828  0.43287460  1  -1.205506  0  -0.341712  -0.599745  0  2.355626  0
O  O338  1  0.06351075  0.45765259  0.93287032  1  -1.206111  0  -0.341777  -0.599723  0  2.355553  0
O  O339  1  0.56351208  0.54235416  0.56713433  1  -1.205742  0  -0.34169  -0.59969  0  2.355362  0
O  O340  1  0.80864563  0.48266951  0.01502019  1  -1.160581  0  -0.32387  -0.552274  0  2.33755  0
O  O341  1  0.30864462  0.51733538  0.48498105  1  -1.160717  0  -0.32391  -0.552241  0  2.337477  0
O  O342  1  0.19134471  0.51731968  0.98498077  1  -1.160466  0  -0.323878  -0.552187  0  2.337548  0
O  O343  1  0.69134428  0.48268231  0.51502246  1  -1.160281  0  -0.323817  -0.552091  0  2.337622  0
O  O344  1  0.76542477  0.00774379  0.36064194  1  -1.164376  0  -0.341188  -0.571129  0  2.22518  0
O  O345  1  0.26539740  0.99225052  0.13935087  1  -1.164305  0  -0.341291  -0.571277  0  2.225282  0
O  O346  1  0.23459289  0.99225217  0.63934933  1  -1.163762  0  -0.341232  -0.571243  0  2.225445  0
O  O347  1  0.73460085  0.00774514  0.86065389  1  -1.163532  0  -0.341334  -0.571286  0  2.225172  0
O  O348  1  0.90042101  0.96182054  0.30907548  1  -1.175321  0  -0.340833  -0.576041  0  2.186902  0
O  O349  1  0.40042031  0.03812283  0.19090544  1  -1.179353  0  -0.340804  -0.576019  0  2.186364  0
O  O350  1  0.09958587  0.03816267  0.69091661  1  -1.175194  0  -0.34081  -0.576062  0  2.186629  0
O  O351  1  0.59958657  0.96184595  0.80909094  1  -1.175241  0  -0.340899  -0.576076  0  2.186559  0
O  O352  1  0.55745423  0.04856748  0.06947067  1  -1.20345  0  -0.341136  -0.595814  0  2.354588  0
O  O353  1  0.05746950  0.95144306  0.43054538  1  -1.203802  0  -0.341069  -0.595886  0  2.354687  0
O  O354  1  0.44253180  0.95140536  0.93052541  1  -1.203838  0  -0.341026  -0.595621  0  2.354284  0
O  O355  1  0.94253163  0.04859297  0.56947501  1  -1.203892  0  -0.341012  -0.595544  0  2.354298  0
O  O356  1  0.68817185  0.99256772  0.01827899  1  -1.162765  0  -0.322635  -0.552659  0  2.345822  0
O  O357  1  0.18819633  0.00743081  0.48172423  1  -1.16241  0  -0.322662  -0.552658  0  2.345874  0
O  O358  1  0.31182065  0.00742484  0.98171642  1  -1.162416  0  -0.322651  -0.552721  0  2.345982  0
O  O359  1  0.81182780  0.99257531  0.51828123  1  -1.162353  0  -0.322591  -0.552661  0  2.346015  0
