# generated using pymatgen
data_CoH14C11N4
_symmetry_space_group_name_H-M   'P 1'
_cell_length_a   9.15524533
_cell_length_b   9.15516129
_cell_length_c   13.44870000
_cell_angle_alpha   90.00000000
_cell_angle_beta   90.00000000
_cell_angle_gamma   90.00000000
_symmetry_Int_Tables_number   1
_chemical_formula_structural   CoH14C11N4
_chemical_formula_sum   'Co4 H56 C44 N16'
_cell_volume   1127.23974252
_cell_formula_units_Z   4
loop_
 _symmetry_equiv_pos_site_id
 _symmetry_equiv_pos_as_xyz
  1  'x, y, z'
loop_
 _atom_site_type_symbol
 _atom_site_label
 _atom_site_symmetry_multiplicity
 _atom_site_fract_x
 _atom_site_fract_y
 _atom_site_fract_z
 _atom_site_occupancy
 _atom_site_pbe_bader_charge
 _atom_site_pbe_bader_spin_density
 _atom_site_pbe_cm5_charge
 _atom_site_pbe_ddec_charge
 _atom_site_pbe_ddec_spin_density
 _atom_site_pbe_ddec_sum_bond_order
 _atom_site_pbe_magmom
Co  Co0  1  0.00000000  0.91331542  0.00000000  1  1.102148  2.485274  0.707389  0.602537  2.727914  2.771875  2.412
Co  Co1  1  0.00000000  0.08668444  0.50000000  1  1.102518  2.485236  0.707437  0.602632  2.727909  2.771727  2.412
Co  Co2  1  0.08668036  0.00000109  0.25000037  1  1.101781  2.485313  0.707503  0.60268  2.727903  2.771678  2.412
Co  Co3  1  0.91332124  0.00000000  0.74999888  1  1.102139  2.485276  0.707509  0.602631  2.727896  2.771662  2.412
H  H4  1  0.67098038  0.46164779  0.19017080  1  0.029499  0.001337  0.089358  0.07708  0.000497  1.016106  0.001
H  H5  1  0.32901904  0.53835207  0.69016931  1  0.029663  0.001337  0.089354  0.077082  0.000497  1.016064  0.001
H  H6  1  0.32901685  0.46164888  0.80982995  1  0.029692  0.001337  0.089378  0.077109  0.000497  1.016071  0.001
H  H7  1  0.53834931  0.32901332  0.05983106  1  0.029753  0.001337  0.089378  0.077112  0.000497  1.016068  0.001
H  H8  1  0.53834822  0.67098436  0.44016819  1  0.029729  0.001338  0.089391  0.077137  0.000497  1.016025  0.001
H  H9  1  0.46165011  0.32901441  0.94016745  1  0.029584  0.001338  0.089386  0.077135  0.000497  1.016026  0.001
H  H10  1  0.46164902  0.67098326  0.55983181  1  0.029556  0.001338  0.089376  0.077102  0.000497  1.01604  0.001
H  H11  1  0.67097929  0.53835097  0.30982995  1  0.029517  0.001338  0.089349  0.077078  0.000497  1.016104  0.001
H  H12  1  0.72663482  0.72608879  0.98037654  1  0.041546  0.001365  0.097478  0.140808  0.000421  1.004189  0.0
H  H13  1  0.27336460  0.27391107  0.48037729  1  0.041477  0.001366  0.097471  0.140781  0.000422  1.004144  0.0
H  H14  1  0.27336351  0.72608879  0.01962346  1  0.041474  0.001366  0.097479  0.140803  0.000422  1.004195  0.0
H  H15  1  0.27391074  0.27335947  0.26962234  1  0.041544  0.001365  0.097491  0.140804  0.000422  1.004202  0.0
H  H16  1  0.27390855  0.72663712  0.23037840  1  0.04151  0.001365  0.097511  0.140807  0.000422  1.004163  0.0
H  H17  1  0.72609196  0.27335837  0.73037617  1  0.041609  0.001365  0.097508  0.140835  0.000421  1.004184  0.0
H  H18  1  0.72609087  0.72664149  0.76962383  1  0.041551  0.001364  0.097502  0.140822  0.000421  1.004177  0.0
H  H19  1  0.72663591  0.27391107  0.51962420  1  0.041485  0.001364  0.097456  0.140759  0.000422  1.004158  0.0
H  H20  1  0.84719521  0.57592650  0.97015399  1  0.04801  0.001501  0.094345  0.133242  0.000474  1.013702  0.001
H  H21  1  0.15280639  0.42407664  0.47015325  1  0.047987  0.001502  0.094355  0.133262  0.000475  1.013685  0.001
H  H22  1  0.15280421  0.57592541  0.02984601  1  0.047992  0.001502  0.094337  0.133222  0.000475  1.013718  0.001
H  H23  1  0.42407274  0.15280561  0.27984415  1  0.04801  0.001501  0.094346  0.133249  0.000474  1.013696  0.001
H  H24  1  0.42407056  0.84719316  0.22015511  1  0.048053  0.001501  0.094322  0.133214  0.000475  1.013696  0.001
H  H25  1  0.57592668  0.15280670  0.72015362  1  0.048012  0.001501  0.094348  0.133229  0.000474  1.01371  0.001
H  H26  1  0.57592668  0.84719425  0.77984638  1  0.048004  0.001501  0.094343  0.133215  0.000474  1.01371  0.001
H  H27  1  0.84719412  0.42407664  0.52984749  1  0.047977  0.001502  0.094339  0.13322  0.000475  1.013696  0.001
H  H28  1  0.68126301  0.55656147  0.03741328  1  0.042198  0.000762  0.089514  0.125391  0.000235  1.020941  0.0
H  H29  1  0.31873968  0.44343948  0.53741328  1  0.042173  0.000762  0.089512  0.125379  0.000235  1.02089  0.0
H  H30  1  0.31873750  0.55656147  0.96258597  1  0.042201  0.000762  0.089506  0.125381  0.000235  1.020955  0.0
H  H31  1  0.44342995  0.31873715  0.21258635  1  0.042249  0.000762  0.089538  0.125417  0.000235  1.020922  0.0
H  H32  1  0.44343104  0.68126271  0.28741440  1  0.042237  0.000762  0.089538  0.125378  0.000235  1.020971  0.0
H  H33  1  0.55657274  0.31873824  0.78741291  1  0.042282  0.000762  0.089513  0.125373  0.000235  1.021023  0.0
H  H34  1  0.55657056  0.68126162  0.71258783  1  0.042248  0.000761  0.089531  0.125403  0.000235  1.020939  0.0
H  H35  1  0.68125864  0.44343948  0.46258746  1  0.042175  0.000762  0.089511  0.125381  0.000235  1.020859  0.0
H  H36  1  0.05735182  0.62909869  0.38853718  1  0.0459  0.001596  0.093646  0.132771  0.00051  0.994295  0.001
H  H37  1  0.94264760  0.37090007  0.88853644  1  0.045906  0.001596  0.093653  0.132777  0.00051  0.994311  0.001
H  H38  1  0.94264869  0.62909979  0.61146356  1  0.045918  0.001596  0.093645  0.132758  0.00051  0.994305  0.001
H  H39  1  0.37089885  0.94265079  0.86146245  1  0.045963  0.001595  0.093664  0.132792  0.00051  0.994318  0.001
H  H40  1  0.37090104  0.05735016  0.63853755  1  0.045947  0.001596  0.093646  0.132768  0.00051  0.994295  0.001
H  H41  1  0.62910056  0.94265297  0.13853607  1  0.045939  0.001596  0.093667  0.132793  0.00051  0.994318  0.001
H  H42  1  0.62910056  0.05734907  0.36146393  1  0.045923  0.001595  0.093661  0.132783  0.00051  0.994319  0.001
H  H43  1  0.05735401  0.37090117  0.11146505  1  0.045894  0.001596  0.09364  0.132778  0.00051  0.994289  0.001
H  H44  1  0.98232758  0.80330425  0.41215136  1  0.067765  0.003022  0.092203  0.113407  0.001943  1.082503  0.0
H  H45  1  0.01767293  0.19669451  0.91215062  1  0.067413  0.003021  0.092208  0.113402  0.001943  1.082488  0.0
H  H46  1  0.01767293  0.80330535  0.58784790  1  0.067393  0.003022  0.092202  0.113383  0.001943  1.082506  0.0
H  H47  1  0.19670145  0.01767200  0.83784678  1  0.067767  0.003014  0.092223  0.113393  0.001942  1.082509  0.0
H  H48  1  0.19670254  0.98232786  0.66215322  1  0.068144  0.003015  0.092204  0.113405  0.001942  1.082548  0.0
H  H49  1  0.80329906  0.01767309  0.16215248  1  0.067762  0.003014  0.092221  0.113424  0.001942  1.082535  0.0
H  H50  1  0.80329906  0.98232677  0.33784827  1  0.06809  0.003015  0.092224  0.11343  0.001942  1.082497  0.0
H  H51  1  0.98232867  0.19669451  0.08785013  1  0.067783  0.003022  0.092222  0.113429  0.001942  1.082455  0.0
H  H52  1  0.86883417  0.64679035  0.41597627  1  0.045427  0.000926  0.093582  0.134045  0.000269  1.010898  0.001
H  H53  1  0.13116743  0.35320951  0.91597627  1  0.045415  0.000926  0.093588  0.134053  0.000269  1.01089  0.001
H  H54  1  0.13116743  0.64679035  0.58402373  1  0.045424  0.000926  0.093582  0.134032  0.00027  1.010894  0.001
H  H55  1  0.35320845  0.13116645  0.83402782  1  0.045455  0.000926  0.093609  0.13406  0.000269  1.010895  0.001
H  H56  1  0.35320954  0.86883341  0.66597292  1  0.045448  0.000926  0.09361  0.134068  0.000269  1.010879  0.001
H  H57  1  0.64679206  0.13116863  0.16597069  1  0.045434  0.000926  0.093584  0.134059  0.000269  1.010876  0.001
H  H58  1  0.64679206  0.86883232  0.33402782  1  0.045425  0.000926  0.093594  0.13406  0.000269  1.010874  0.001
H  H59  1  0.86883308  0.35321060  0.08402373  1  0.045438  0.000926  0.093591  0.134015  0.000269  1.01092  0.001
C  C60  1  0.74401065  0.50000211  0.24999963  1  -0.004667  0.003304  -0.148936  -0.150001  0.001846  4.049783  0.002
C  C61  1  0.25598768  0.50000102  0.74999963  1  -0.004748  0.003304  -0.148963  -0.150031  0.001846  4.049718  0.002
C  C62  1  0.50000080  0.25597583  0.99999926  1  -0.005252  0.003306  -0.148941  -0.149939  0.001847  4.049595  0.002
C  C63  1  0.50000189  0.74402075  0.50000149  1  -0.005046  0.003305  -0.148988  -0.150011  0.001847  4.049651  0.002
C  C64  1  0.83353965  0.62552694  0.21176024  1  -0.08675  0.018928  -0.044301  -0.125486  0.009781  3.977287  0.011
C  C65  1  0.16645758  0.37447948  0.71175950  1  -0.086829  0.01893  -0.044204  -0.12537  0.009781  3.977209  0.011
C  C66  1  0.16645977  0.62552694  0.78823976  1  -0.086664  0.018928  -0.044287  -0.125446  0.009781  3.977228  0.011
C  C67  1  0.37447495  0.16644928  0.03824087  1  -0.086277  0.018935  -0.044252  -0.125548  0.009784  3.977051  0.011
C  C68  1  0.37447167  0.83354512  0.46176062  1  -0.08649  0.018935  -0.044256  -0.125467  0.009784  3.976969  0.011
C  C69  1  0.62552884  0.16645256  0.96175839  1  -0.086317  0.018935  -0.044354  -0.125668  0.009784  3.977123  0.011
C  C70  1  0.62552447  0.83354839  0.53824161  1  -0.08635  0.018934  -0.044317  -0.12557  0.009784  3.977075  0.011
C  C71  1  0.83353965  0.37447948  0.28824050  1  -0.086786  0.018931  -0.044229  -0.125378  0.009781  3.977176  0.011
C  C72  1  0.84530340  0.67989518  0.11427499  1  0.43895  0.024802  0.083956  0.19343  0.014276  4.01368  0.018
C  C73  1  0.15469383  0.32010687  0.61427499  1  0.439093  0.024801  0.083882  0.193223  0.014276  4.013794  0.018
C  C74  1  0.15469383  0.67989518  0.88572427  1  0.439021  0.024803  0.083946  0.193383  0.014277  4.013725  0.018
C  C75  1  0.32010393  0.15469088  0.13572985  1  0.438853  0.024796  0.083896  0.193348  0.014272  4.013883  0.018
C  C76  1  0.32010065  0.84530897  0.36427164  1  0.438831  0.024798  0.083895  0.19328  0.014273  4.013799  0.018
C  C77  1  0.67989877  0.15468979  0.86427015  1  0.438782  0.024798  0.083956  0.193338  0.014273  4.013789  0.018
C  C78  1  0.67989549  0.84530679  0.63572985  1  0.438796  0.024795  0.083908  0.193225  0.014272  4.01389  0.018
C  C79  1  0.84530558  0.32010577  0.38572576  1  0.439078  0.024802  0.083897  0.193239  0.014277  4.013796  0.018
C  C80  1  0.77127808  0.63186107  0.02089867  1  -0.038834  0.002024  -0.235753  -0.425882  0.001267  3.978133  0.001
C  C81  1  0.22872134  0.36814097  0.52089867  1  -0.038834  0.002026  -0.235772  -0.425836  0.001269  3.978046  0.001
C  C82  1  0.22872134  0.63186107  0.97910207  1  -0.038846  0.002025  -0.235739  -0.425833  0.001268  3.978158  0.001
C  C83  1  0.36813869  0.22872235  0.22910244  1  -0.038874  0.002025  -0.23579  -0.42586  0.001268  3.978189  0.001
C  C84  1  0.36813650  0.77127532  0.27089830  1  -0.038864  0.002025  -0.235764  -0.425743  0.001268  3.978087  0.001
C  C85  1  0.63186510  0.22872235  0.77089607  1  -0.038969  0.002025  -0.235774  -0.4258  0.001268  3.978158  0.001
C  C86  1  0.63186182  0.77127642  0.72910318  1  -0.038937  0.002024  -0.23577  -0.425777  0.001267  3.978108  0.001
C  C87  1  0.77127917  0.36813988  0.47910207  1  -0.038826  0.002026  -0.235738  -0.425772  0.001268  3.977985  0.001
C  C88  1  0.92694621  0.71332550  0.26896131  1  0.454393  0.02325  0.084516  0.200536  0.013696  4.004989  0.018
C  C89  1  0.07305211  0.28667654  0.76896131  1  0.454328  0.023251  0.084509  0.200551  0.013697  4.005041  0.018
C  C90  1  0.07305430  0.71332768  0.73103869  1  0.454377  0.023251  0.084509  0.200491  0.013697  4.004988  0.018
C  C91  1  0.28667282  0.07304295  0.98103237  1  0.453966  0.023247  0.084492  0.200552  0.013693  4.005013  0.018
C  C92  1  0.28667173  0.92695582  0.51896689  1  0.454116  0.023247  0.084506  0.200546  0.013693  4.004941  0.018
C  C93  1  0.71332878  0.07304514  0.01896615  1  0.454116  0.023248  0.084521  0.200598  0.013694  4.004968  0.018
C  C94  1  0.71332660  0.92695363  0.48103311  1  0.454278  0.023244  0.084528  0.200629  0.013692  4.00481  0.018
C  C95  1  0.92694621  0.28667545  0.23103943  1  0.454352  0.023251  0.084529  0.200533  0.013697  4.005003  0.018
C  C96  1  0.96033254  0.69805979  0.37671299  1  -0.051534  0.003965  -0.237589  -0.411425  0.002217  3.955006  0.002
C  C97  1  0.03966688  0.30194007  0.87671076  1  -0.051506  0.003965  -0.237592  -0.411438  0.002217  3.955054  0.002
C  C98  1  0.03966797  0.69806089  0.62328775  1  -0.051513  0.003965  -0.237585  -0.411377  0.002217  3.955019  0.002
C  C99  1  0.30194166  0.03966397  0.87328441  1  -0.051606  0.003964  -0.23758  -0.411344  0.002217  3.955299  0.002
C  C100  1  0.30194276  0.96033480  0.62671485  1  -0.051729  0.003964  -0.237585  -0.4114  0.002217  3.955258  0.002
C  C101  1  0.69805885  0.03966615  0.12671411  1  -0.05166  0.003965  -0.237593  -0.41145  0.002217  3.955224  0.002
C  C102  1  0.69805776  0.96033371  0.37328589  1  -0.051617  0.003964  -0.237595  -0.411447  0.002217  3.955219  0.002
C  C103  1  0.96033363  0.30194007  0.12328998  1  -0.051504  0.003965  -0.237609  -0.411398  0.002217  3.955057  0.002
N  N104  1  0.93991474  0.79372714  0.11418650  1  -0.798724  0.090621  -0.291471  -0.249133  0.047034  3.627782  0.061
N  N105  1  0.06008577  0.20627381  0.61418576  1  -0.79884  0.090625  -0.291501  -0.249125  0.047036  3.627945  0.061
N  N106  1  0.06008250  0.79372823  0.88581350  1  -0.798748  0.090622  -0.291513  -0.249175  0.047035  3.627867  0.061
N  N107  1  0.20627082  0.06008523  0.13581387  1  -0.798649  0.090624  -0.291562  -0.249304  0.04704  3.627992  0.061
N  N108  1  0.20626864  0.93991681  0.36418539  1  -0.798681  0.090621  -0.291559  -0.24919  0.047037  3.627915  0.061
N  N109  1  0.79372969  0.06008305  0.86418464  1  -0.79864  0.090623  -0.291545  -0.249144  0.047037  3.627833  0.061
N  N110  1  0.79372859  0.93991353  0.63581387  1  -0.79864  0.090623  -0.291527  -0.249102  0.047038  3.627885  0.061
N  N111  1  0.93991364  0.20627272  0.38581499  1  -0.798866  0.090625  -0.291539  -0.249154  0.047036  3.627927  0.061
N  N112  1  0.98893909  0.81634826  0.20955111  1  -0.786601  0.081839  -0.288724  -0.265073  0.042731  3.602288  0.052
N  N113  1  0.01106360  0.18365160  0.70955037  1  -0.786574  0.081842  -0.288739  -0.265086  0.042731  3.602371  0.052
N  N114  1  0.01106033  0.81634935  0.79044889  1  -0.786635  0.081842  -0.288679  -0.264995  0.042731  3.602256  0.052
N  N115  1  0.18365100  0.01106152  0.04044703  1  -0.786461  0.081844  -0.288692  -0.265007  0.042733  3.602161  0.052
N  N116  1  0.18365100  0.98894052  0.45955148  1  -0.7864  0.081847  -0.288692  -0.265084  0.042736  3.60229  0.052
N  N117  1  0.81634951  0.01106152  0.95955074  1  -0.786448  0.081847  -0.288716  -0.265047  0.042736  3.602405  0.052
N  N118  1  0.81634732  0.98893615  0.54044778  1  -0.786581  0.081847  -0.288692  -0.265108  0.042734  3.60227  0.052
N  N119  1  0.98893691  0.18365160  0.29045038  1  -0.78657  0.081842  -0.288709  -0.26505  0.042731  3.60228  0.052
