# generated using pymatgen
data_ZnH22C12(NO2)4
_symmetry_space_group_name_H-M   'P 1'
_cell_length_a   7.89006428
_cell_length_b   8.51796525
_cell_length_c   8.51805407
_cell_angle_alpha   95.85425296
_cell_angle_beta   112.79542164
_cell_angle_gamma   112.79507974
_symmetry_Int_Tables_number   1
_chemical_formula_structural   ZnH22C12(NO2)4
_chemical_formula_sum   'Zn1 H22 C12 N4 O8'
_cell_volume   464.64280225
_cell_formula_units_Z   1
loop_
 _symmetry_equiv_pos_site_id
 _symmetry_equiv_pos_as_xyz
  1  'x, y, z'
loop_
 _atom_site_type_symbol
 _atom_site_label
 _atom_site_symmetry_multiplicity
 _atom_site_fract_x
 _atom_site_fract_y
 _atom_site_fract_z
 _atom_site_occupancy
 _atom_site_hle17_bader_spin_density
 _atom_site_hle17_ddec_charge
 _atom_site_hle17_ddec_spin_density
 _atom_site_hle17_ddec_sum_bond_order
 _atom_site_hle17_magmom
 _atom_site_hse06_10hf_bader_spin_density
 _atom_site_hse06_10hf_ddec_charge
 _atom_site_hse06_10hf_ddec_spin_density
 _atom_site_hse06_10hf_ddec_sum_bond_order
 _atom_site_hse06_10hf_magmom
 _atom_site_hse06_bader_spin_density
 _atom_site_hse06_ddec_charge
 _atom_site_hse06_ddec_spin_density
 _atom_site_hse06_ddec_sum_bond_order
 _atom_site_hse06_magmom
 _atom_site_pbe_bader_spin_density
 _atom_site_pbe_cm5_charge
 _atom_site_pbe_ddec_charge
 _atom_site_pbe_ddec_spin_density
 _atom_site_pbe_ddec_sum_bond_order
 _atom_site_pbe_magmom
Zn  Zn0  1  0.50000028  0.34787831  0.65212552  1  0  1.04711  0  1.799  0  0  0.875326  0  2.247464  0  0  0.920346  0  2.195421  0  0  0.668928  0.843878  0  2.282986  0
H  H1  1  0.02879539  0.31280022  0.47891603  1  0  0.377145  0  0.889833  0  0  0.353434  0  0.962612  0  0  0.363382  0  0.951061  0  0  0.299971  0.34638  0  0.970785  0
H  H2  1  0.97120271  0.52108091  0.68719163  1  0  0.377121  0  0.889918  0  0  0.353446  0  0.96265  0  0  0.363396  0  0.951093  0  0  0.299983  0.346389  0  0.970828  0
H  H3  1  0.42411205  0.07366705  0.43037255  1  0  0.299411  0  0.904427  0  0  0.29143  0  0.956306  0  0  0.297642  0  0.951615  0  0  0.296984  0.286974  0  0.959775  0
H  H4  1  0.57589261  0.56963345  0.92633314  1  0  0.299425  0  0.904493  0  0  0.291443  0  0.956382  0  0  0.297658  0  0.951684  0  0  0.296983  0.286985  0  0.959852  0
H  H5  1  0.67023842  0.21378310  0.50018432  1  0  0.307371  0  0.929545  0  0  0.296724  0  0.983875  0  0  0.303351  0  0.979083  0  0  0.291945  0.291991  0  0.987318  0
H  H6  1  0.32976713  0.49981871  0.78622027  1  0  0.307377  0  0.929511  0  0  0.296745  0  0.983827  0  0  0.303373  0  0.979036  0  0  0.291951  0.292007  0  0.987273  0
H  H7  1  0.83851432  0.99793125  0.94672584  1  0  0.301173  0  0.958307  0  0  0.27763  0  1.032696  0  0  0.286598  0  1.02576  0  0  0.298399  0.271318  0  1.037555  0
H  H8  1  0.16149019  0.05327858  0.00207323  1  0  0.301135  0  0.958334  0  0  0.277598  0  1.032733  0  0  0.286568  0  1.025794  0  0  0.298393  0.271285  0  1.037591  0
H  H9  1  0.73420600  0.01639939  0.64232385  1  0  0.086581  0  0.924401  0  0  0.100968  0  0.985619  0  0  0.102819  0  0.984719  0  0  0.110394  0.099605  0  0.986346  0
H  H10  1  0.26580372  0.35768212  0.98360361  1  0  0.086589  0  0.924392  0  0  0.100969  0  0.98563  0  0  0.102827  0  0.984736  0  0  0.110409  0.099607  0  0.98636  0
H  H11  1  0.49627724  0.94128391  0.65167939  1  0  0.103223  0  0.90127  0  0  0.121337  0  0.953512  0  0  0.123619  0  0.952034  0  0  0.121424  0.119615  0  0.954767  0
H  H12  1  0.50373519  0.34832938  0.05872327  1  0  0.103221  0  0.901348  0  0  0.121382  0  0.953532  0  0  0.123673  0  0.952059  0  0  0.121482  0.119662  0  0.954785  0
H  H13  1  0.95266847  0.35005098  0.17947314  1  0  0.098284  0  0.914388  0  0  0.105083  0  0.973377  0  0  0.108859  0  0.969768  0  0  0.125163  0.102306  0  0.976135  0
H  H14  1  0.04732368  0.82052866  0.64995400  1  0  0.098348  0  0.91434  0  0  0.105158  0  0.97334  0  0  0.108934  0  0.969731  0  0  0.125149  0.102379  0  0.976103  0
H  H15  1  0.64509252  0.11184758  0.17350881  1  0  0.030615  0  0.899683  0  0  0.044698  0  0.958437  0  0  0.044265  0  0.958977  0  0  0.103439  0.044933  0  0.958175  0
H  H16  1  0.35490278  0.82648894  0.88815249  1  0  0.030624  0  0.89968  0  0  0.044717  0  0.958461  0  0  0.044278  0  0.958991  0  0  0.103453  0.044953  0  0.958198  0
H  H17  1  0.94029441  0.96377576  0.37025171  1  0  0.122453  0  0.956916  0  0  0.141568  0  1.019033  0  0  0.143579  0  1.018509  0  0  0.090733  0.140058  0  1.01951  0
H  H18  1  0.05969582  0.62973495  0.03621100  1  0  0.122539  0  0.956862  0  0  0.141684  0  1.018924  0  0  0.143697  0  1.018397  0  0  0.090756  0.140171  0  1.019406  0
H  H19  1  0.73117133  0.85613910  0.14875416  1  0  0.111306  0  0.958706  0  0  0.132677  0  1.02065  0  0  0.13454  0  1.020073  0  0  0.089084  0.131263  0  1.021174  0
H  H20  1  0.26881741  0.85123030  0.14385148  1  0  0.1113  0  0.958747  0  0  0.132649  0  1.020721  0  0  0.13451  0  1.020152  0  0  0.089071  0.131234  0  1.021246  0
H  H21  1  0.67952285  0.88780753  0.33198376  1  0  0.107258  0  0.953762  0  0  0.129803  0  1.012945  0  0  0.131115  0  1.013137  0  0  0.088537  0.128825  0  1.012852  0
H  H22  1  0.32046639  0.66800086  0.11218263  1  0  0.107251  0  0.953795  0  0  0.129776  0  1.012997  0  0  0.131089  0  1.013189  0  0  0.088534  0.128799  0  1.012902  0
C  C23  1  0.74253065  0.17940044  0.85926162  1  0  0.560681  0  3.771987  0  0  0.514727  0  4.068191  0  0  0.543391  0  4.06891  0  0  0.241316  0.495363  0  4.067079  0
C  C24  1  0.25747166  0.14074169  0.82060069  1  0  0.560753  0  3.772308  0  0  0.514833  0  4.06847  0  0  0.543501  0  4.069192  0  0  0.241357  0.495468  0  4.067359  0
C  C25  1  0.63038302  0.06085625  0.66647111  1  0  -0.050999  0  3.65555  0  0  -0.110496  0  3.920852  0  0  -0.10996  0  3.928089  0  0  -0.064353  -0.11091  0  3.91591  0
C  C26  1  0.36962855  0.33353522  0.93915064  1  0  -0.051044  0  3.655683  0  0  -0.110587  0  3.92099  0  0  -0.110083  0  3.92827  0  0  -0.064435  -0.111002  0  3.916047  0
C  C27  1  0.93931752  0.21592446  0.17162204  1  0  -0.04678  0  3.635353  0  0  -0.07268  0  3.88285  0  0  -0.073898  0  3.893699  0  0  0.004787  -0.071929  0  3.875607  0
C  C28  1  0.06068079  0.82838130  0.78408028  1  0  -0.046795  0  3.635267  0  0  -0.072744  0  3.882916  0  0  -0.07397  0  3.893755  0  0  0.004823  -0.071994  0  3.875675  0
C  C29  1  0.80110230  0.12843773  0.25959271  1  0  0.270875  0  3.601943  0  0  0.249047  0  3.86667  0  0  0.255809  0  3.877571  0  0  0.000295  0.244387  0  3.859208  0
C  C30  1  0.19889258  0.74040490  0.87156104  1  0  0.270866  0  3.601891  0  0  0.248958  0  3.866768  0  0  0.255765  0  3.877595  0  0  0.000276  0.244298  0  3.859306  0
C  C31  1  0.15689980  0.23546878  0.28092609  1  0  0.657611  0  3.852346  0  0  0.605689  0  4.158249  0  0  0.63828  0  4.151649  0  0  0.213859  0.583588  0  4.161999  0
C  C32  1  0.84310026  0.71907557  0.76452906  1  0  0.657522  0  3.85237  0  0  0.605624  0  4.15829  0  0  0.63821  0  4.151695  0  0  0.213818  0.583515  0  4.162042  0
C  C33  1  0.78742690  0.94820827  0.27861028  1  0  -0.372589  0  3.679554  0  0  -0.454479  0  3.918807  0  0  -0.458136  0  3.927817  0  0  -0.255859  -0.451718  0  3.912677  0
C  C34  1  0.21256490  0.72137777  0.05178167  1  0  -0.372623  0  3.679558  0  0  -0.454472  0  3.918813  0  0  -0.458142  0  3.927812  0  0  -0.255841  -0.45171  0  3.912684  0
N  N35  1  0.56079243  0.15601731  0.54227501  1  0  -0.622638  0  3.158278  0  0  -0.571474  0  3.415384  0  0  -0.589276  0  3.410571  0  0  -0.629236  -0.558993  0  3.418493  0
N  N36  1  0.43921456  0.45772927  0.84398792  1  0  -0.622605  0  3.158236  0  0  -0.571477  0  3.415394  0  0  -0.589279  0  3.410586  0  0  -0.629245  -0.558999  0  3.418539  0
N  N37  1  0.84284257  0.11985938  0.98509905  1  0  -0.444989  0  3.361675  0  0  -0.3973  0  3.620669  0  0  -0.41926  0  3.630791  0  0  -0.421742  -0.382289  0  3.613446  0
N  N38  1  0.15716533  0.01490638  0.88014788  1  0  -0.445027  0  3.361778  0  0  -0.397322  0  3.620718  0  0  -0.419287  0  3.630842  0  0  -0.421741  -0.382306  0  3.613492  0
O  O39  1  0.73663587  0.32303178  0.89533785  1  0  -0.578494  0  2.023254  0  0  -0.519198  0  2.261899  0  0  -0.543579  0  2.254806  0  0  -0.295502  -0.502365  0  2.266324  0
O  O40  1  0.26337189  0.10466115  0.67697877  1  0  -0.578509  0  2.023466  0  0  -0.519215  0  2.262098  0  0  -0.543593  0  2.254999  0  0  -0.29552  -0.502382  0  2.266524  0
O  O41  1  0.87551084  0.25067562  0.42783532  1  0  -0.579433  0  2.023909  0  0  -0.531794  0  2.236317  0  0  -0.54756  0  2.224236  0  0  -0.406998  -0.520559  0  2.244539  0
O  O42  1  0.12448582  0.57216484  0.74931869  1  0  -0.579426  0  2.023974  0  0  -0.531796  0  2.236389  0  0  -0.547575  0  2.224292  0  0  -0.407027  -0.520557  0  2.24461  0
O  O43  1  0.25057915  0.34229699  0.43963623  1  0  -0.651744  0  2.060444  0  0  -0.583799  0  2.318109  0  0  -0.611394  0  2.303365  0  0  -0.322097  -0.56459  0  2.327635  0
O  O44  1  0.74941558  0.56037037  0.65770338  1  0  -0.651683  0  2.060695  0  0  -0.583794  0  2.3184  0  0  -0.611387  0  2.303656  0  0  -0.322086  -0.564568  0  2.327914  0
O  O45  1  0.22582697  0.14813387  0.21952914  1  0  -0.609874  0  1.968626  0  0  -0.561248  0  2.195018  0  0  -0.584343  0  2.186336  0  0  -0.315008  -0.545186  0  2.200452  0
O  O46  1  0.77418034  0.78047532  0.85187815  1  0  -0.609915  0  1.968465  0  0  -0.561245  0  2.194803  0  0  -0.584351  0  2.186143  0  0  -0.315008  -0.54518  0  2.200241  0
