# generated using pymatgen
data_CuH30(C4O)4
_symmetry_space_group_name_H-M   'P 1'
_cell_length_a   5.24647908
_cell_length_b   12.31287419
_cell_length_c   13.83766328
_cell_angle_alpha   73.05642128
_cell_angle_beta   89.44016233
_cell_angle_gamma   82.74474706
_symmetry_Int_Tables_number   1
_chemical_formula_structural   CuH30(C4O)4
_chemical_formula_sum   'Cu2 H60 C32 O8'
_cell_volume   847.90939037
_cell_formula_units_Z   2
loop_
 _symmetry_equiv_pos_site_id
 _symmetry_equiv_pos_as_xyz
  1  'x, y, z'
loop_
 _atom_site_type_symbol
 _atom_site_label
 _atom_site_symmetry_multiplicity
 _atom_site_fract_x
 _atom_site_fract_y
 _atom_site_fract_z
 _atom_site_occupancy
 _atom_site_hle17_ddec_charge
 _atom_site_hle17_ddec_spin_density
 _atom_site_hle17_ddec_sum_bond_order
 _atom_site_hle17_magmom
 _atom_site_hse06_10hf_ddec_charge
 _atom_site_hse06_10hf_ddec_spin_density
 _atom_site_hse06_10hf_ddec_sum_bond_order
 _atom_site_hse06_10hf_magmom
 _atom_site_hse06_ddec_charge
 _atom_site_hse06_ddec_spin_density
 _atom_site_hse06_ddec_sum_bond_order
 _atom_site_hse06_magmom
 _atom_site_pbe_cm5_charge
 _atom_site_pbe_ddec_charge
 _atom_site_pbe_ddec_spin_density
 _atom_site_pbe_ddec_sum_bond_order
 _atom_site_pbe_magmom
Cu  Cu0  1  0.68899178  0.55571048  0.47758048  1  0.90087  -0.666936  1.808782  -0.496  0.901047  -0.771684  2.204585  -0.626  1.012502  -0.838379  2.099483  -0.717  0.685651  0.83601  -0.726558  2.266015  -0.57
Cu  Cu1  1  0.31102080  0.44427245  0.52242528  1  0.900885  -0.666956  1.808756  -0.496  0.901034  -0.771734  2.204564  -0.626  1.012432  -0.838436  2.099608  -0.717  0.685692  0.836024  -0.726591  2.265972  -0.57
H  H2  1  0.29471775  0.59434302  0.78378455  1  0.096415  0.000469  0.944472  0.0  0.111918  -1.7e-05  1.006769  0.0  0.113895  7.3e-05  1.005879  0.0  0.101011  0.110388  -9e-05  1.007572  0.0
H  H3  1  0.70527057  0.40567432  0.21619329  1  0.096399  0.00047  0.944562  0.0  0.111982  -1.7e-05  1.00678  0.0  0.113959  7.3e-05  1.00589  0.0  0.101038  0.110414  -9.1e-05  1.007604  0.0
H  H4  1  0.49126190  0.46419008  0.83354687  1  0.103954  0.000155  0.942201  0.0  0.120245  -0.000235  1.001369  0.0  0.121751  -9.8e-05  1.001706  0.0  0.104876  0.119042  -0.000341  1.001332  0.0
H  H5  1  0.50870059  0.53581635  0.16644938  1  0.103919  0.000155  0.942382  0.0  0.120286  -0.000235  1.00148  0.0  0.121793  -9.8e-05  1.001814  0.0  0.104864  0.119064  -0.000342  1.001456  0.0
H  H6  1  0.67952826  0.69952473  0.74719603  1  0.065473  7.8e-05  0.946267  0.0  0.085173  -7e-06  1.007002  0.0  0.08534  -3e-06  1.008087  0.0  0.090471  0.084899  -1.6e-05  1.006369  0.0
H  H7  1  0.32050437  0.30046191  0.25280090  1  0.065431  7.5e-05  0.946286  0.0  0.085039  -7e-06  1.007225  0.0  0.085206  -2e-06  1.008313  0.0  0.090424  0.084791  -1.7e-05  1.00655  0.0
H  H8  1  0.88492416  0.56947866  0.78729989  1  0.065266  4e-05  0.947301  0.0  0.083616  -5.3e-05  1.009689  0.0  0.084579  -3.1e-05  1.009355  0.0  0.089514  0.082855  -7.8e-05  1.009992  0.0
H  H9  1  0.11504537  0.43051557  0.21270343  1  0.065278  3.8e-05  0.947229  0.0  0.08365  -5.3e-05  1.009639  0.0  0.084616  -3.1e-05  1.009303  0.0  0.089494  0.082886  -7.8e-05  1.009945  0.0
H  H10  1  0.49601512  0.66025018  0.92193918  1  0.049733  4.4e-05  0.962424  0.0  0.067409  -6e-06  1.031188  0.0  0.068046  -2e-06  1.031262  0.0  0.083263  0.066855  -9e-06  1.031227  0.0
H  H11  1  0.50396782  0.33975121  0.07805455  1  0.04976  4.3e-05  0.962436  0.0  0.06743  -6e-06  1.031176  0.0  0.068052  -2e-06  1.03125  0.0  0.083266  0.066875  -9e-06  1.031217  0.0
H  H12  1  0.70580728  0.53133618  0.96134357  1  0.057062  4.6e-05  0.945538  0.0  0.07816  -7e-06  1.00714  0.0  0.078188  -2e-06  1.008825  0.0  0.086655  0.078076  -1.1e-05  1.006031  0.0
H  H13  1  0.29418101  0.46865216  0.03865742  1  0.057094  4.5e-05  0.945642  0.0  0.07816  -7e-06  1.007231  0.0  0.078184  -2e-06  1.008909  0.0  0.086647  0.078076  -1.1e-05  1.006128  0.0
H  H14  1  0.08407528  0.64191237  0.92398370  1  0.046231  2.4e-05  0.963668  0.0  0.065158  -6e-06  1.032563  0.0  0.065921  -2e-06  1.032395  0.0  0.081001  0.064544  -1.1e-05  1.032766  0.0
H  H15  1  0.91590052  0.35808679  0.07602211  1  0.046358  2.5e-05  0.963666  0.0  0.065258  -6e-06  1.032548  0.0  0.06603  -2e-06  1.032389  0.0  0.081043  0.064637  -1.1e-05  1.032753  0.0
H  H16  1  0.87465734  0.77125109  0.88712660  1  0.058574  2.5e-05  0.94865  0.0  0.080528  4e-06  1.008916  0.0  0.080439  3e-06  1.010671  0.0  0.087243  0.08048  5e-06  1.007768  0.0
H  H17  1  0.12531395  0.22875065  0.11287864  1  0.058597  2.6e-05  0.948633  0.0  0.080546  4e-06  1.008881  0.0  0.080467  4e-06  1.010642  0.0  0.087179  0.080496  5e-06  1.007733  0.0
H  H18  1  0.69261927  0.72781826  0.06020253  1  0.057996  1e-05  0.936801  0.0  0.080801  0.0  0.991299  0.0  0.081014  -0.0  0.992403  0.0  0.087535  0.080572  0.0  0.990594  0.0
H  H19  1  0.30735651  0.27215967  0.93980516  1  0.058038  7e-06  0.936837  0.0  0.080852  0.0  0.99131  0.0  0.081069  -0.0  0.992414  0.0  0.087523  0.080621  1e-06  0.990607  0.0
H  H20  1  0.88319852  0.59349908  0.09554785  1  0.054485  -1.7e-05  0.952786  0.0  0.07633  -3.7e-05  1.013423  0.0  0.07652  -2.3e-05  1.014711  0.0  0.086191  0.076126  -4.9e-05  1.012606  0.0
H  H21  1  0.11680331  0.40650252  0.90445736  1  0.054551  -2e-05  0.952698  0.0  0.076394  -3.6e-05  1.013321  0.0  0.076585  -2.3e-05  1.014613  0.0  0.086197  0.076211  -4.9e-05  1.012477  0.0
H  H22  1  0.28147265  0.68963813  0.06904163  1  0.039612  2.3e-05  0.968224  0.0  0.057813  7e-06  1.036048  0.0  0.058349  5e-06  1.036262  0.0  0.07981  0.057389  8e-06  1.03593  0.0
H  H23  1  0.71850429  0.31037825  0.93095742  1  0.03955  2.2e-05  0.968188  0.0  0.057757  7e-06  1.036093  0.0  0.058294  5e-06  1.036308  0.0  0.079737  0.057334  8e-06  1.035978  0.0
H  H24  1  0.09308712  0.82431669  0.03941274  1  0.050262  -4e-06  0.933702  0.0  0.072897  -5e-06  0.988115  0.0  0.073181  -1e-06  0.98913  0.0  0.084766  0.072575  -7e-06  0.98752  0.0
H  H25  1  0.90686325  0.17567073  0.96059360  1  0.050221  -4e-06  0.933366  0.0  0.072901  -5e-06  0.987834  0.0  0.073184  -1e-06  0.988857  0.0  0.084788  0.072577  -7e-06  0.987241  0.0
H  H26  1  0.25272656  0.74685874  0.22558192  1  0.089324  5.3e-05  0.974849  0.0  0.109551  4.1e-05  1.038621  0.0  0.110742  3.9e-05  1.038992  0.0  0.080444  0.108616  4e-05  1.03844  0.0
H  H27  1  0.74720585  0.25316749  0.77440995  1  0.089386  5.7e-05  0.974523  0.0  0.109586  4.1e-05  1.038324  0.0  0.110799  3.9e-05  1.03867  0.0  0.080463  0.108634  4e-05  1.038155  0.0
H  H28  1  0.91245598  0.77876902  0.21182453  1  0.090401  1.2e-05  0.949987  0.0  0.11582  1.9e-05  1.006197  0.0  0.116533  1.4e-05  1.00732  0.0  0.083963  0.115219  2.3e-05  1.005489  0.0
H  H29  1  0.08746491  0.22122896  0.78817588  1  0.090463  1.6e-05  0.949879  0.0  0.115928  1.9e-05  1.006005  0.0  0.116648  1.4e-05  1.007119  0.0  0.083992  0.115325  2.3e-05  1.005301  0.0
H  H30  1  0.05748889  0.63547852  0.24133943  1  0.105201  -3e-06  0.957935  0.0  0.127135  -3e-06  1.018471  0.0  0.128705  1.7e-05  1.018661  0.0  0.08477  0.125948  -2.8e-05  1.018421  0.0
H  H31  1  0.94251721  0.36452153  0.75866250  1  0.105176  1e-06  0.957977  0.0  0.127034  -3e-06  1.018584  0.0  0.128601  1.8e-05  1.018781  0.0  0.084747  0.125851  -2.7e-05  1.018518  0.0
H  H32  1  0.16187071  0.20559480  0.59425174  1  0.114879  -0.00046  0.94212  -0.001  0.125341  -0.000553  1.007474  -0.001  0.127457  -0.000252  1.006265  -0.001  0.103169  0.12366  -0.000809  1.008694  -0.001
H  H33  1  0.83812858  0.79439517  0.40574958  1  0.114821  -0.000462  0.942172  -0.001  0.12529  -0.000553  1.007481  -0.001  0.127405  -0.000252  1.006265  -0.001  0.10319  0.123616  -0.00081  1.008699  -0.001
H  H34  1  0.89596355  0.12446349  0.61731115  1  0.103579  -0.000533  0.931244  -0.001  0.120686  -0.000678  0.987252  -0.001  0.122585  -0.000401  0.987236  -0.001  0.101176  0.11941  -0.00093  0.987245  -0.001
H  H35  1  0.10408052  0.87551530  0.38270778  1  0.103639  -0.000536  0.931321  -0.001  0.120699  -0.000678  0.987354  -0.001  0.122587  -0.000402  0.987355  -0.001  0.101212  0.119428  -0.00093  0.987343  -0.001
H  H36  1  0.04494869  0.26212441  0.40533253  1  0.078775  -8.2e-05  0.936295  0.0  0.097169  -7.5e-05  0.99646  0.0  0.098347  -2.6e-05  0.99666  0.0  0.093152  0.096253  -0.000134  0.996418  0.0
H  H37  1  0.95504245  0.73786008  0.59467799  1  0.078841  -8.1e-05  0.936488  0.0  0.097144  -7.6e-05  0.996724  0.0  0.098353  -2.6e-05  0.996891  0.0  0.09317  0.096236  -0.000134  0.996664  0.0
H  H38  1  0.17308511  0.11859852  0.46117373  1  0.059425  -0.000827  0.953978  -0.001  0.078297  -0.000512  1.017763  -0.001  0.07884  -0.000312  1.018366  0.0  0.089013  0.077864  -0.000686  1.017393  -0.001
H  H39  1  0.82692313  0.88137913  0.53883685  1  0.059343  -0.000824  0.954169  -0.001  0.078235  -0.000512  1.017921  -0.001  0.078779  -0.000312  1.018526  0.0  0.089  0.077785  -0.000686  1.017575  -0.001
H  H40  1  0.73339550  0.05889184  0.47687850  1  0.052584  -1.9e-05  0.952329  0.0  0.073661  -2.2e-05  1.013432  0.0  0.074184  -1.2e-05  1.014073  0.0  0.083978  0.073167  -3.1e-05  1.013124  0.0
H  H41  1  0.26663808  0.94106946  0.52313570  1  0.052586  -2.1e-05  0.952482  0.0  0.073673  -2.2e-05  1.013551  0.0  0.074216  -1.2e-05  1.014169  0.0  0.084038  0.073184  -3.2e-05  1.013229  0.0
H  H42  1  0.59531051  0.20124682  0.42098884  1  0.069739  -5e-06  0.946391  0.0  0.089081  -1.5e-05  1.006251  0.0  0.089732  9e-06  1.007399  0.0  0.087763  0.088561  -4.4e-05  1.005515  0.0
H  H43  1  0.40469929  0.79871749  0.57903558  1  0.069849  -6e-06  0.946384  0.0  0.089203  -1.5e-05  1.006234  0.0  0.089858  9e-06  1.007382  0.0  0.087747  0.088683  -4.4e-05  1.005496  0.0
H  H44  1  0.98908777  0.07169433  0.31518161  1  0.048344  -1.9e-05  0.959233  0.0  0.067323  -2.8e-05  1.025939  0.0  0.067767  -1.4e-05  1.026452  0.0  0.083143  0.066911  -4.3e-05  1.025656  0.0
H  H45  1  0.01090465  0.92832133  0.68481323  1  0.048324  -1.7e-05  0.959265  0.0  0.067248  -2.9e-05  1.026029  0.0  0.067696  -1.4e-05  1.026533  0.0  0.083095  0.066834  -4.3e-05  1.025748  0.0
H  H46  1  0.80997671  0.20604503  0.26029553  1  0.053677  7e-06  0.949009  0.0  0.076107  1e-06  1.009555  0.0  0.076194  3e-06  1.011139  0.0  0.085307  0.076015  -1e-06  1.008466  0.0
H  H47  1  0.18997475  0.79397369  0.73971028  1  0.05349  9e-06  0.949066  0.0  0.075963  1e-06  1.009587  0.0  0.076051  3e-06  1.011168  0.0  0.085206  0.075875  -1e-06  1.008502  0.0
H  H48  1  0.58998275  0.97773461  0.34172192  1  0.05846  -4.5e-05  0.940378  0.0  0.080183  -5.6e-05  0.999621  0.0  0.080464  -3.5e-05  1.000552  0.0  0.086424  0.079848  -7.6e-05  0.999094  0.0
H  H49  1  0.41004229  0.02225945  0.65826179  1  0.058509  -4.4e-05  0.940609  0.0  0.080296  -5.6e-05  0.999736  0.0  0.080586  -3.5e-05  1.000674  0.0  0.086498  0.079959  -7.6e-05  0.999205  0.0
H  H50  1  0.40064914  0.11108533  0.29344635  1  0.049674  -5e-06  0.961342  0.0  0.068534  -9e-06  1.027691  0.0  0.069113  -5e-06  1.028106  0.0  0.082938  0.06806  -1.3e-05  1.02745  0.0
H  H51  1  0.59934459  0.88889666  0.70656329  1  0.049721  -4e-06  0.961349  0.0  0.068528  -9e-06  1.027734  0.0  0.069108  -5e-06  1.028153  0.0  0.082953  0.068059  -1.3e-05  1.027479  0.0
H  H52  1  0.60305321  0.13731483  0.12534370  1  0.052165  2e-06  0.945195  0.0  0.073251  0.0  1.005524  0.0  0.073414  1e-06  1.006906  0.0  0.085219  0.073079  -0.0  1.004618  0.0
H  H53  1  0.39692025  0.86272853  0.87465725  1  0.052172  -0.0  0.945367  0.0  0.073202  0.0  1.005752  0.0  0.073362  1e-06  1.00714  0.0  0.085221  0.07303  -0.0  1.004848  0.0
H  H54  1  0.80449355  0.00682854  0.17279646  1  0.048429  3e-06  0.950135  0.0  0.069974  -1e-06  1.008515  0.0  0.070234  -0.0  1.009329  0.0  0.08431  0.069722  -0.0  1.007982  0.0
H  H55  1  0.19552626  0.99322764  0.82717908  1  0.048363  -0.0  0.949889  0.0  0.069996  -1e-06  1.008238  0.0  0.070268  -0.0  1.009038  0.0  0.084351  0.069739  -0.0  1.007706  0.0
H  H56  1  0.42288052  0.97983975  0.07703004  1  0.089104  -3e-06  0.965257  0.0  0.111032  -2e-06  1.025387  0.0  0.11235  -0.0  1.025585  0.0  0.083009  0.110033  -2e-06  1.025291  0.0
H  H57  1  0.57717524  0.02021815  0.92292334  1  0.089145  -3e-06  0.96486  0.0  0.111041  -2e-06  1.025033  0.0  0.112359  -1e-06  1.025233  0.0  0.083065  0.110049  -2e-06  1.024926  0.0
H  H58  1  0.42065439  0.89963335  0.20631659  1  0.091666  -2.2e-05  0.969577  0.0  0.113414  -2.6e-05  1.031051  0.0  0.114721  -1.6e-05  1.031199  0.0  0.084389  0.112376  -3.4e-05  1.031043  0.0
H  H59  1  0.57946049  0.10038209  0.79363535  1  0.091566  -2.2e-05  0.969732  0.0  0.113147  -2.6e-05  1.03139  0.0  0.114467  -1.6e-05  1.031534  0.0  0.084314  0.11211  -3.4e-05  1.031376  0.0
H  H60  1  0.21275731  0.02957211  0.16051204  1  0.081389  1e-06  0.982077  0.0  0.100558  0.0  1.051659  0.0  0.101939  1e-06  1.051658  0.0  0.08029  0.09955  1e-06  1.051634  0.0
H  H61  1  0.78727880  0.97043042  0.83947047  1  0.081464  1e-06  0.982189  0.0  0.100695  0.0  1.051649  0.0  0.102089  1e-06  1.051634  0.0  0.080353  0.099661  1e-06  1.051648  0.0
C  C62  1  0.49360494  0.52972609  0.67455543  1  0.689857  0.01504  3.801446  0.014  0.656112  0.00332  4.102002  0.004  0.696622  0.004431  4.098289  0.004  0.218854  0.628487  0.002356  4.105215  0.004
C  C63  1  0.50637552  0.47026273  0.32545415  1  0.689845  0.015035  3.800296  0.014  0.656042  0.003323  4.101017  0.004  0.696546  0.004433  4.097304  0.004  0.218847  0.628418  0.002359  4.104231  0.004
C  C64  1  0.48625120  0.54887648  0.77770598  1  -0.253943  -0.016594  3.676978  -0.018  -0.292365  -0.01038  3.92266  -0.012  -0.299417  -0.007337  3.930855  -0.009  -0.159178  -0.287606  -0.012488  3.917154  -0.013
C  C65  1  0.51376627  0.45113794  0.22229487  1  -0.253857  -0.016589  3.676811  -0.018  -0.292349  -0.010379  3.922522  -0.012  -0.299415  -0.007337  3.930748  -0.009  -0.159147  -0.287506  -0.012487  3.916936  -0.013
C  C66  1  0.69713567  0.61284289  0.80059149  1  -0.085627  -0.002277  3.702367  -0.002  -0.127527  -0.001774  3.960623  -0.002  -0.127271  -0.001101  3.974462  -0.001  -0.168801  -0.127418  -0.002316  3.950981  -0.002
C  C67  1  0.30286170  0.38716071  0.19942558  1  -0.085299  -0.00227  3.701895  -0.002  -0.127324  -0.001774  3.960343  -0.002  -0.127074  -0.0011  3.974167  -0.001  -0.168614  -0.127228  -0.002316  3.950668  -0.002
C  C68  1  0.68721070  0.61903255  0.90904150  1  -0.109593  -0.001013  3.70284  -0.001  -0.151319  -0.000554  3.96919  -0.001  -0.152564  -0.000299  3.984547  0.0  -0.169084  -0.15026  -0.000792  3.958464  -0.001
C  C69  1  0.31278748  0.38096121  0.09096909  1  -0.110024  -0.001009  3.703141  -0.001  -0.15161  -0.000554  3.969354  -0.001  -0.152802  -0.0003  3.984685  0.0  -0.169231  -0.150572  -0.000791  3.958651  -0.001
C  C70  1  0.89267227  0.68266237  0.93728134  1  -0.108361  -0.000512  3.709777  -0.001  -0.153382  -0.000274  3.977827  0.0  -0.15427  -0.000146  3.992989  0.0  -0.17001  -0.152564  -0.000397  3.967261  0.0
C  C71  1  0.10729857  0.31734094  0.06272645  1  -0.108385  -0.000517  3.709811  -0.001  -0.153353  -0.000274  3.977728  0.0  -0.154299  -0.000146  3.992944  0.0  -0.1699  -0.152523  -0.000397  3.967158  0.0
C  C72  1  0.87950998  0.68257413  0.04749741  1  -0.110651  -0.000208  3.69858  0.0  -0.147469  -0.000125  3.955399  0.0  -0.148661  -6.4e-05  3.970768  0.0  -0.16804  -0.146463  -0.000193  3.944636  0.0
C  C73  1  0.12049110  0.31742303  0.95251241  1  -0.110782  -0.000196  3.698493  0.0  -0.147554  -0.000125  3.955311  0.0  -0.148738  -6.4e-05  3.970699  0.0  -0.168041  -0.14656  -0.000193  3.944545  0.0
C  C74  1  0.09599377  0.73393595  0.08420929  1  -0.062354  -0.000142  3.727506  0.0  -0.096727  -6e-05  3.989164  0.0  -0.097163  -2.3e-05  4.004775  0.0  -0.169521  -0.096227  -0.000103  3.978138  0.0
C  C75  1  0.90396925  0.26606774  0.91580927  1  -0.062104  -0.000139  3.726937  0.0  -0.096692  -6.1e-05  3.988861  0.0  -0.097134  -2.2e-05  4.004475  0.0  -0.169478  -0.096199  -0.000103  3.977848  0.0
C  C76  1  0.08011192  0.72338321  0.19676421  1  -0.288801  0.000104  3.701614  0.0  -0.361015  9.3e-05  3.944132  0.0  -0.363955  0.000132  3.955955  0.0  -0.252422  -0.358714  4.8e-05  3.935963  0.0
C  C77  1  0.91985589  0.27662412  0.80324847  1  -0.289054  8.1e-05  3.70116  0.0  -0.361121  9.4e-05  3.943711  0.0  -0.364079  0.00013  3.955515  0.0  -0.252506  -0.358802  5e-05  3.935549  0.0
C  C78  1  0.79552855  0.30598175  0.55770349  1  0.711395  0.013607  3.779162  0.013  0.681273  0.002961  4.07169  0.004  0.722482  0.004336  4.06592  0.004  0.225859  0.653066  0.001778  4.075675  0.004
C  C79  1  0.20445234  0.69400573  0.44229843  1  0.710539  0.013591  3.780793  0.013  0.681033  0.002952  4.072435  0.004  0.722208  0.004328  4.066712  0.004  0.225746  0.652823  0.00177  4.076418  0.004
C  C80  1  0.97361469  0.19754759  0.56508202  1  -0.265872  -0.016139  3.643608  -0.018  -0.306657  -0.01057  3.891808  -0.012  -0.314854  -0.007375  3.900435  -0.009  -0.162099  -0.301224  -0.012921  3.885961  -0.014
C  C81  1  0.02638810  0.80243655  0.43491698  1  -0.265523  -0.016126  3.643883  -0.018  -0.306356  -0.010571  3.891783  -0.012  -0.314526  -0.007375  3.900395  -0.009  -0.162029  -0.300923  -0.012922  3.88593  -0.014
C  C82  1  0.00220203  0.18127500  0.45880579  1  -0.079891  0.000377  3.649037  0.0  -0.120416  -0.000181  3.907423  0.0  -0.120541  4.7e-05  3.921143  0.0  -0.160998  -0.120115  -0.000379  3.897835  0.0
C  C83  1  0.99779957  0.81870604  0.54120549  1  -0.079905  0.000361  3.649049  0.0  -0.120428  -0.000181  3.907441  0.0  -0.120588  4.7e-05  3.921179  0.0  -0.161006  -0.120119  -0.00038  3.897861  0.0
C  C84  1  0.76869971  0.14029228  0.42187940  1  -0.112737  -5e-06  3.686338  0.0  -0.151536  -2.6e-05  3.945624  0.0  -0.152793  2.9e-05  3.960619  0.0  -0.170957  -0.150469  -9.9e-05  3.935072  0.0
C  C85  1  0.23133227  0.85967494  0.57813492  1  -0.112952  8e-06  3.685834  0.0  -0.151768  -2.7e-05  3.945102  0.0  -0.15305  3.1e-05  3.960119  0.0  -0.171019  -0.1507  -9.9e-05  3.934559  0.0
C  C86  1  0.80164351  0.12268340  0.31733978  1  -0.105119  -4.8e-05  3.706314  0.0  -0.147781  -6.7e-05  3.971851  0.0  -0.148783  -3.3e-05  3.987287  0.0  -0.168276  -0.146902  -9.7e-05  3.961045  0.0
C  C87  1  0.19835344  0.87732930  0.68266367  1  -0.104764  -6.2e-05  3.705922  0.0  -0.147426  -6.5e-05  3.971405  0.0  -0.148426  -3.4e-05  3.986853  0.0  -0.168138  -0.146551  -9.7e-05  3.960603  0.0
C  C88  1  0.58969203  0.06343230  0.28713848  1  -0.112875  -3.3e-05  3.698928  0.0  -0.152983  -4.9e-05  3.96134  0.0  -0.154071  -2.4e-05  3.976574  0.0  -0.168766  -0.15205  -7.6e-05  3.950722  0.0
C  C89  1  0.41032700  0.93657679  0.71284982  1  -0.113233  -3.4e-05  3.699241  0.0  -0.153326  -4.9e-05  3.961644  0.0  -0.15444  -2.4e-05  3.976903  0.0  -0.168907  -0.152387  -7.6e-05  3.951027  0.0
C  C90  1  0.61295339  0.05154116  0.18032104  1  -0.064124  -1.5e-05  3.721915  0.0  -0.09795  -1e-06  3.982243  0.0  -0.098594  0.0  3.998151  0.0  -0.169454  -0.097368  -6e-06  3.971143  0.0
C  C91  1  0.38706396  0.94848861  0.81965900  1  -0.063679  -5e-06  3.72146  0.0  -0.097566  -1e-06  3.981778  0.0  -0.098208  -0.0  3.9977  0.0  -0.169284  -0.096986  -6e-06  3.97068  0.0
C  C92  1  0.40676694  0.98683631  0.15428434  1  -0.288947  7e-06  3.734054  0.0  -0.362529  -5e-06  3.979335  0.0  -0.365303  -3e-06  3.990547  0.0  -0.247755  -0.360319  -1.4e-05  3.971581  0.0
C  C93  1  0.59329607  0.01318739  0.84567671  1  -0.289142  6e-06  3.733831  0.0  -0.362601  -6e-06  3.979173  0.0  -0.365409  -3e-06  3.990367  0.0  -0.247979  -0.360374  -1.4e-05  3.971434  0.0
O  O94  1  0.32678495  0.47098999  0.65579627  1  -0.570463  -0.085718  2.048293  -0.118  -0.553738  -0.053639  2.327156  -0.081  -0.600289  -0.039065  2.318505  -0.065  -0.316495  -0.524746  -0.062702  2.33307  -0.089
O  O95  1  0.67328715  0.52901939  0.34421644  1  -0.570646  -0.085825  2.04622  -0.118  -0.553947  -0.053681  2.325212  -0.081  -0.600533  -0.039096  2.316559  -0.065  -0.316647  -0.524924  -0.062751  2.331117  -0.089
O  O96  1  0.66354500  0.57378433  0.61446423  1  -0.567822  -0.083154  2.08241  -0.115  -0.545014  -0.05278  2.363971  -0.08  -0.591448  -0.038742  2.356708  -0.065  -0.308149  -0.516172  -0.061447  2.369156  -0.088
O  O97  1  0.33651235  0.42621704  0.38552283  1  -0.567643  -0.083029  2.08331  -0.114  -0.544755  -0.052744  2.364851  -0.08  -0.591144  -0.038719  2.357595  -0.065  -0.308054  -0.51595  -0.061391  2.37006  -0.088
O  O98  1  0.55610697  0.30009170  0.56968716  1  -0.576762  -0.088056  2.041079  -0.121  -0.552199  -0.057342  2.310927  -0.087  -0.595914  -0.042606  2.300017  -0.071  -0.306967  -0.524817  -0.066572  2.318191  -0.095
O  O99  1  0.44381018  0.69989170  0.43031798  1  -0.576184  -0.087994  2.042131  -0.121  -0.551844  -0.057321  2.311685  -0.087  -0.595537  -0.042589  2.300752  -0.071  -0.306743  -0.524474  -0.066548  2.318978  -0.095
O  O100  1  0.89688390  0.39954735  0.53319467  1  -0.62014  -0.067216  2.155968  -0.095  -0.594999  -0.04455  2.452319  -0.069  -0.646235  -0.032673  2.440435  -0.056  -0.318188  -0.562254  -0.053634  2.459625  -0.078
O  O101  1  0.10315305  0.60041551  0.46682206  1  -0.620061  -0.067291  2.156069  -0.095  -0.595241  -0.044575  2.452266  -0.069  -0.646486  -0.032687  2.440404  -0.056  -0.318376  -0.562495  -0.053667  2.45962  -0.078
