# generated using pymatgen
data_CuH6C3SIN2
_symmetry_space_group_name_H-M   'P 1'
_cell_length_a   9.49308606
_cell_length_b   10.52127046
_cell_length_c   12.55087425
_cell_angle_alpha   107.30755616
_cell_angle_beta   99.50784429
_cell_angle_gamma   114.09810598
_symmetry_Int_Tables_number   1
_chemical_formula_structural   CuH6C3SIN2
_chemical_formula_sum   'Cu6 H36 C18 S6 I6 N12'
_cell_volume   1031.72130865
_cell_formula_units_Z   6
loop_
 _symmetry_equiv_pos_site_id
 _symmetry_equiv_pos_as_xyz
  1  'x, y, z'
loop_
 _atom_site_type_symbol
 _atom_site_label
 _atom_site_symmetry_multiplicity
 _atom_site_fract_x
 _atom_site_fract_y
 _atom_site_fract_z
 _atom_site_occupancy
 _atom_site_hle17_bader_spin_density
 _atom_site_hle17_ddec_charge
 _atom_site_hle17_ddec_spin_density
 _atom_site_hle17_ddec_sum_bond_order
 _atom_site_hle17_magmom
 _atom_site_hse06_10hf_bader_spin_density
 _atom_site_hse06_10hf_ddec_charge
 _atom_site_hse06_10hf_ddec_spin_density
 _atom_site_hse06_10hf_ddec_sum_bond_order
 _atom_site_hse06_10hf_magmom
 _atom_site_hse06_bader_spin_density
 _atom_site_hse06_ddec_charge
 _atom_site_hse06_ddec_spin_density
 _atom_site_hse06_ddec_sum_bond_order
 _atom_site_hse06_magmom
 _atom_site_pbe_bader_spin_density
 _atom_site_pbe_cm5_charge
 _atom_site_pbe_ddec_charge
 _atom_site_pbe_ddec_spin_density
 _atom_site_pbe_ddec_sum_bond_order
 _atom_site_pbe_magmom
Cu  Cu0  1  0.35106868  0.86221303  0.38631237  1  0  0.298015  0  2.24156  0  0  0.248244  0  2.723525  0  0  0.24694  0  2.681939  0  0  0.272569  0.251889  0  2.749016  0
Cu  Cu1  1  0.64893744  0.13778989  0.61368935  1  0  0.29808  0  2.241461  0  0  0.248343  0  2.723412  0  0  0.247055  0  2.681842  0  0  0.272598  0.251963  0  2.74888  0
Cu  Cu2  1  0.24030039  0.99488949  0.69229436  1  0  0.251963  0  2.338008  0  0  0.202123  0  2.81472  0  0  0.20619  0  2.766839  0  0  0.222857  0.201017  0  2.845783  0
Cu  Cu3  1  0.75970413  0.00511229  0.30769971  1  0  0.251961  0  2.337941  0  0  0.202119  0  2.814658  0  0  0.206201  0  2.766718  0  0  0.222844  0.201008  0  2.845733  0
Cu  Cu4  1  0.05159012  0.05817022  0.40971793  1  0  0.239415  0  2.324357  0  0  0.188241  0  2.812312  0  0  0.190097  0  2.764988  0  0  0.260715  0.188798  0  2.842522  0
Cu  Cu5  1  0.94841424  0.94182927  0.59028351  1  0  0.239323  0  2.324502  0  0  0.188141  0  2.812449  0  0  0.190006  0  2.765135  0  0  0.260688  0.18871  0  2.842619  0
H  H6  1  0.44474264  0.67079235  0.47167965  1  0  0.282249  0  0.945612  0  0  0.261889  0  1.020732  0  0  0.270387  0  1.01388  0  0  0.278584  0.255616  0  1.026082  0
H  H7  1  0.55524971  0.32920252  0.52832150  1  0  0.282219  0  0.945611  0  0  0.261845  0  1.020741  0  0  0.270344  0  1.013888  0  0  0.278569  0.255579  0  1.026086  0
H  H8  1  0.47747526  0.89962446  0.80731837  1  0  0.293089  0  0.911481  0  0  0.273109  0  0.983533  0  0  0.28108  0  0.977268  0  0  0.29063  0.267363  0  0.988273  0
H  H9  1  0.52252502  0.10037955  0.19268208  1  0  0.29312  0  0.911456  0  0  0.273155  0  0.983492  0  0  0.281124  0  0.977232  0  0  0.290674  0.267408  0  0.988235  0
H  H10  1  0.30318478  0.29986695  0.85598842  1  0  0.282897  0  0.937276  0  0  0.263154  0  1.008798  0  0  0.271657  0  1.001783  0  0  0.282464  0.256945  0  1.014357  0
H  H11  1  0.69682478  0.70014054  0.14401329  1  0  0.282838  0  0.937302  0  0  0.263119  0  1.008807  0  0  0.27162  0  1.001795  0  0  0.282464  0.256913  0  1.014365  0
H  H12  1  0.09646814  0.35686652  0.57495419  1  0  0.283568  0  0.943531  0  0  0.265136  0  1.013932  0  0  0.273631  0  1.00682  0  0  0.279453  0.258874  0  1.019612  0
H  H13  1  0.90352532  0.64312837  0.42504232  1  0  0.283586  0  0.943524  0  0  0.265183  0  1.013903  0  0  0.273659  0  1.006799  0  0  0.279509  0.258916  0  1.019588  0
H  H14  1  0.93747971  0.93507960  0.13876381  1  0  0.268976  0  0.949914  0  0  0.24722  0  1.031358  0  0  0.256189  0  1.0225  0  0  0.281628  0.240757  0  1.037779  0
H  H15  1  0.06252680  0.06491992  0.86123712  1  0  0.269213  0  0.949882  0  0  0.247432  0  1.03132  0  0  0.256403  0  1.022458  0  0  0.281713  0.240967  0  1.037737  0
H  H16  1  0.23818044  0.75003623  0.13168464  1  0  0.282687  0  0.948686  0  0  0.260638  0  1.026241  0  0  0.269543  0  1.018279  0  0  0.279135  0.254249  0  1.032057  0
H  H17  1  0.76182346  0.24996440  0.86831384  1  0  0.282734  0  0.948645  0  0  0.26069  0  1.026201  0  0  0.269595  0  1.018239  0  0  0.27917  0.254302  0  1.032013  0
H  H18  1  0.62661581  0.61369022  0.61296467  1  0  0.069646  0  0.975512  0  0  0.081938  0  1.04494  0  0  0.083266  0  1.044334  0  0  0.08833  0.081223  0  1.044224  0
H  H19  1  0.37336706  0.38629663  0.38703567  1  0  0.069695  0  0.975532  0  0  0.081959  0  1.04495  0  0  0.083305  0  1.044352  0  0  0.08835  0.081233  0  1.044221  0
H  H20  1  0.41506633  0.50840046  0.59892593  1  0  0.065681  0  0.938821  0  0  0.075822  0  1.0086  0  0  0.076481  0  1.008822  0  0  0.094616  0.075268  0  1.00847  0
H  H21  1  0.58491851  0.49159435  0.40107583  1  0  0.065723  0  0.938758  0  0  0.075819  0  1.00854  0  0  0.076492  0  1.008771  0  0  0.094621  0.075257  0  1.008403  0
H  H22  1  0.50940845  0.66176175  0.80737321  1  0  0.072433  0  0.939595  0  0  0.087254  0  1.001453  0  0  0.087964  0  1.001778  0  0  0.097855  0.086434  0  1.001962  0
H  H23  1  0.49058088  0.33823763  0.19263026  1  0  0.072423  0  0.939713  0  0  0.087312  0  1.00145  0  0  0.087978  0  1.001823  0  0  0.097859  0.086488  0  1.00196  0
H  H24  1  0.68889105  0.80263022  0.80011913  1  0  0.068253  0  0.932448  0  0  0.079194  0  1.002882  0  0  0.079954  0  1.003076  0  0  0.096528  0.078753  0  1.002115  0
H  H25  1  0.31110326  0.19736013  0.19987875  1  0  0.068252  0  0.932372  0  0  0.079197  0  1.002786  0  0  0.079961  0  1.002962  0  0  0.0965  0.078759  0  1.002018  0
H  H26  1  0.34688522  0.57768966  0.92687484  1  0  0.063561  0  0.966655  0  0  0.071916  0  1.039936  0  0  0.074131  0  1.038208  0  0  0.084756  0.069948  0  1.041997  0
H  H27  1  0.65311577  0.42231777  0.07312337  1  0  0.063633  0  0.966582  0  0  0.071952  0  1.0399  0  0  0.074167  0  1.038168  0  0  0.084775  0.069985  0  1.041961  0
H  H28  1  0.14987515  0.45405994  0.92451098  1  0  0.070852  0  0.926895  0  0  0.085606  0  0.988324  0  0  0.086332  0  0.988667  0  0  0.100522  0.084839  0  0.988568  0
H  H29  1  0.85012445  0.54594066  0.07548853  1  0  0.070811  0  0.926951  0  0  0.08557  0  0.988356  0  0  0.086297  0  0.988697  0  0  0.100513  0.084805  0  0.988598  0
H  H30  1  0.01868288  0.46719676  0.75152826  1  0  0.063725  0  0.969591  0  0  0.070622  0  1.046993  0  0  0.072683  0  1.045232  0  0  0.086815  0.069034  0  1.047727  0
H  H31  1  0.98131125  0.53280153  0.24847157  1  0  0.063731  0  0.969674  0  0  0.070648  0  1.046998  0  0  0.072705  0  1.045241  0  0  0.086818  0.069061  0  1.04773  0
H  H32  1  0.21266490  0.61221866  0.76585300  1  0  0.073595  0  0.94061  0  0  0.083905  0  1.00767  0  0  0.085294  0  1.007443  0  0  0.097096  0.083007  0  1.007669  0
H  H33  1  0.78733092  0.38778079  0.23414256  1  0  0.07364  0  0.940608  0  0  0.083896  0  1.007689  0  0  0.08528  0  1.007466  0  0  0.097099  0.082999  0  1.007689  0
H  H34  1  0.96697245  0.87148815  0.92464573  1  0  0.071461  0  0.965952  0  0  0.081893  0  1.037177  0  0  0.083043  0  1.036723  0  0  0.09696  0.080947  0  1.037572  0
H  H35  1  0.03303105  0.12851588  0.07535593  1  0  0.071472  0  0.965997  0  0  0.081906  0  1.037193  0  0  0.083052  0  1.03674  0  0  0.09697  0.080956  0  1.037596  0
H  H36  1  0.83845375  0.70960455  0.94710730  1  0  0.06155  0  0.944479  0  0  0.074112  0  1.010964  0  0  0.075336  0  1.010763  0  0  0.087205  0.073013  0  1.011497  0
H  H37  1  0.16155296  0.29039950  0.05289637  1  0  0.061621  0  0.944413  0  0  0.07414  0  1.010922  0  0  0.075359  0  1.010719  0  0  0.087212  0.073038  0  1.011456  0
H  H38  1  0.03231000  0.62917861  0.91766260  1  0  0.064711  0  0.96116  0  0  0.079217  0  1.02686  0  0  0.080227  0  1.026527  0  0  0.094496  0.078296  0  1.027502  0
H  H39  1  0.96769519  0.37082657  0.08233558  1  0  0.064699  0  0.961218  0  0  0.079212  0  1.02695  0  0  0.080221  0  1.02662  0  0  0.09451  0.078282  0  1.027591  0
H  H40  1  0.18800357  0.81667174  0.94530893  1  0  0.064883  0  0.951668  0  0  0.072451  0  1.026228  0  0  0.074107  0  1.025649  0  0  0.084402  0.071231  0  1.026551  0
H  H41  1  0.81200267  0.18333344  0.05469178  1  0  0.064804  0  0.951781  0  0  0.072402  0  1.026362  0  0  0.074057  0  1.025786  0  0  0.08436  0.071178  0  1.026677  0
C  C42  1  0.44531634  0.80708093  0.62901932  1  0  0.454129  0  3.79419  0  0  0.413066  0  4.082186  0  0  0.438976  0  4.088794  0  0  0.240953  0.395833  0  4.077436  0
C  C43  1  0.55468150  0.19291626  0.37097833  1  0  0.454144  0  3.794005  0  0  0.413015  0  4.08211  0  0  0.438927  0  4.088718  0  0  0.240927  0.395786  0  4.07737  0
C  C44  1  0.51926077  0.62270848  0.62634848  1  0  0.02915  0  3.587465  0  0  -0.026066  0  3.839796  0  0  -0.022331  0  3.850075  0  0  -0.061238  -0.027954  0  3.831386  0
C  C45  1  0.48072931  0.37728410  0.37365579  1  0  0.029035  0  3.587723  0  0  -0.026163  0  3.839983  0  0  -0.022504  0  3.850356  0  0  -0.061286  -0.028003  0  3.83152  0
C  C46  1  0.55667312  0.72599515  0.75521843  1  0  0.041639  0  3.574878  0  0  -0.014329  0  3.830079  0  0  -0.010413  0  3.840509  0  0  -0.055423  -0.01645  0  3.821612  0
C  C47  1  0.44331895  0.27400539  0.24478489  1  0  0.04155  0  3.575001  0  0  -0.01439  0  3.830029  0  0  -0.010419  0  3.840476  0  0  -0.055389  -0.016511  0  3.821551  0
C  C48  1  0.20330281  0.29799031  0.69585322  1  0  0.443717  0  3.824577  0  0  0.399041  0  4.11929  0  0  0.42477  0  4.126618  0  0  0.240699  0.382239  0  4.113078  0
C  C49  1  0.79669893  0.70201031  0.30414737  1  0  0.443715  0  3.824542  0  0  0.399052  0  4.119317  0  0  0.424759  0  4.126644  0  0  0.240703  0.382237  0  4.113119  0
C  C50  1  0.22806030  0.47724022  0.86954430  1  0  0.039764  0  3.553647  0  0  -0.013455  0  3.804281  0  0  -0.010032  0  3.81432  0  0  -0.054795  -0.015954  0  3.79835  0
C  C51  1  0.77193795  0.52276605  0.13045486  1  0  0.03973  0  3.553811  0  0  -0.013397  0  3.804283  0  0  -0.009973  0  3.814318  0  0  -0.054788  -0.015892  0  3.79835  0
C  C52  1  0.14693810  0.49655231  0.76177775  1  0  0.032268  0  3.562477  0  0  -0.018757  0  3.809291  0  0  -0.015593  0  3.819735  0  0  -0.054873  -0.02076  0  3.802113  0
C  C53  1  0.85305500  0.50344598  0.23821637  1  0  0.032204  0  3.562665  0  0  -0.018728  0  3.809415  0  0  -0.015578  0  3.819835  0  0  -0.054823  -0.020736  0  3.80224  0
C  C54  1  0.11149637  0.86860600  0.16983339  1  0  0.449205  0  3.806671  0  0  0.407676  0  4.099466  0  0  0.433882  0  4.106239  0  0  0.237923  0.390055  0  4.094337  0
C  C55  1  0.88850692  0.13139349  0.83016791  1  0  0.449207  0  3.806313  0  0  0.407702  0  4.09905  0  0  0.433908  0  4.105821  0  0  0.23796  0.390083  0  4.093908  0
C  C56  1  0.96331077  0.80589626  0.97838300  1  0  0.030069  0  3.585823  0  0  -0.024784  0  3.838432  0  0  -0.021106  0  3.848647  0  0  -0.061697  -0.02706  0  3.831219  0
C  C57  1  0.03669643  0.19410666  0.02161806  1  0  0.029852  0  3.585807  0  0  -0.024934  0  3.838386  0  0  -0.021237  0  3.848577  0  0  -0.061764  -0.027211  0  3.831156  0
C  C58  1  0.09079450  0.75086789  0.97492703  1  0  0.035047  0  3.585022  0  0  -0.018219  0  3.831737  0  0  -0.014985  0  3.842166  0  0  -0.059541  -0.020105  0  3.824529  0
C  C59  1  0.90921436  0.24913618  0.02507533  1  0  0.035276  0  3.584895  0  0  -0.018106  0  3.831739  0  0  -0.014884  0  3.842177  0  0  -0.059493  -0.019957  0  3.824481  0
S  S60  1  0.38565110  0.92029396  0.58235993  1  0  -0.355961  0  2.978192  0  0  -0.339078  0  3.504841  0  0  -0.338607  0  3.462257  0  0  -0.245475  -0.341032  0  3.533301  0
S  S61  1  0.61435300  0.07971121  0.41764050  1  0  -0.355957  0  2.978106  0  0  -0.339056  0  3.504766  0  0  -0.338588  0  3.462188  0  0  -0.24545  -0.341002  0  3.533215  0
S  S62  1  0.21016245  0.14585396  0.60197066  1  0  -0.318274  0  2.904084  0  0  -0.29617  0  3.409849  0  0  -0.297425  0  3.370468  0  0  -0.237575  -0.297224  0  3.4362  0
S  S63  1  0.78984253  0.85414669  0.39802637  1  0  -0.318275  0  2.904008  0  0  -0.29613  0  3.409705  0  0  -0.297388  0  3.370328  0  0  -0.23755  -0.297179  0  3.43605  0
S  S64  1  0.17149521  0.93186152  0.31935755  1  0  -0.336865  0  2.786125  0  0  -0.325573  0  3.287448  0  0  -0.331603  0  3.258693  0  0  -0.233785  -0.322427  0  3.306081  0
S  S65  1  0.82850576  0.06813342  0.68063834  1  0  -0.336879  0  2.786  0  0  -0.325592  0  3.287308  0  0  -0.331636  0  3.258572  0  0  -0.233825  -0.322447  0  3.305901  0
I  I66  1  0.32661087  0.61136552  0.24945925  1  0  -0.521999  0  1.245671  0  0  -0.47329  0  1.603636  0  0  -0.490541  0  1.577572  0  0  -0.250097  -0.460872  0  1.620156  0
I  I67  1  0.67337388  0.38862702  0.75054114  1  0  -0.522016  0  1.245683  0  0  -0.473305  0  1.603606  0  0  -0.49056  0  1.577553  0  0  -0.25011  -0.460898  0  1.620151  0
I  I68  1  0.38666442  0.11493383  0.91989444  1  0  -0.521461  0  1.187478  0  0  -0.468339  0  1.526976  0  0  -0.483873  0  1.499604  0  0  -0.249944  -0.456781  0  1.546336  0
I  I69  1  0.61336019  0.88507377  0.08010204  1  0  -0.521416  0  1.187438  0  0  -0.46833  0  1.526975  0  0  -0.483863  0  1.499595  0  0  -0.249948  -0.456777  0  1.54635  0
I  I70  1  0.97475978  0.73390034  0.64998658  1  0  -0.413819  0  1.450857  0  0  -0.367458  0  1.835043  0  0  -0.382167  0  1.804364  0  0  -0.202297  -0.356824  0  1.854268  0
I  I71  1  0.02523941  0.26610366  0.35001691  1  0  -0.413835  0  1.450812  0  0  -0.367457  0  1.835007  0  0  -0.382164  0  1.804311  0  0  -0.202299  -0.356812  0  1.854232  0
N  N72  1  0.47642951  0.70401749  0.56157616  1  0  -0.386039  0  3.306902  0  0  -0.318409  0  3.539368  0  0  -0.338185  0  3.549261  0  0  -0.412608  -0.305776  0  3.533179  0
N  N73  1  0.52356430  0.29597398  0.43842433  1  0  -0.386008  0  3.306845  0  0  -0.31829  0  3.539205  0  0  -0.338043  0  3.54912  0  0  -0.412586  -0.305683  0  3.533023  0
N  N74  1  0.47381187  0.81388952  0.73973433  1  0  -0.402179  0  3.268349  0  0  -0.339742  0  3.510739  0  0  -0.358805  0  3.519331  0  0  -0.41719  -0.327104  0  3.504955  0
N  N75  1  0.52618404  0.18611219  0.26026419  1  0  -0.402118  0  3.268262  0  0  -0.339759  0  3.51072  0  0  -0.358824  0  3.519304  0  0  -0.417201  -0.327116  0  3.504939  0
N  N76  1  0.24792909  0.34491828  0.81316423  1  0  -0.391197  0  3.31502  0  0  -0.325002  0  3.54871  0  0  -0.344713  0  3.558903  0  0  -0.417105  -0.312066  0  3.542139  0
N  N77  1  0.75207784  0.65509031  0.18683741  1  0  -0.391151  0  3.315063  0  0  -0.325037  0  3.548818  0  0  -0.344752  0  3.559022  0  0  -0.417172  -0.312102  0  3.542255  0
N  N78  1  0.15431273  0.38640346  0.66204382  1  0  -0.389554  0  3.302044  0  0  -0.320559  0  3.530067  0  0  -0.340167  0  3.539945  0  0  -0.414146  -0.308014  0  3.523684  0
N  N79  1  0.84568238  0.61359257  0.33795399  1  0  -0.389521  0  3.301977  0  0  -0.32063  0  3.530048  0  0  -0.340167  0  3.539867  0  0  -0.41421  -0.308071  0  3.523667  0
N  N80  1  0.01291547  0.90072009  0.10481116  1  0  -0.413241  0  3.285965  0  0  -0.351675  0  3.527941  0  0  -0.370608  0  3.535443  0  0  -0.429264  -0.33901  0  3.522857  0
N  N81  1  0.98709222  0.09928170  0.89519048  1  0  -0.413405  0  3.285893  0  0  -0.351769  0  3.527755  0  0  -0.370705  0  3.53524  0  0  -0.429246  -0.339113  0  3.52267  0
N  N82  1  0.15612914  0.78012294  0.09894047  1  0  -0.397616  0  3.312454  0  0  -0.332592  0  3.549823  0  0  -0.351044  0  3.55727  0  0  -0.420136  -0.320243  0  3.545006  0
N  N83  1  0.84387699  0.21987997  0.90106205  1  0  -0.397702  0  3.31236  0  0  -0.332704  0  3.549822  0  0  -0.351152  0  3.557268  0  0  -0.420266  -0.320376  0  3.544993  0
