# generated using pymatgen
data_Cu2H7C9I2N3
_symmetry_space_group_name_H-M   'P 1'
_cell_length_a   7.37044788
_cell_length_b   9.26957554
_cell_length_c   9.76440753
_cell_angle_alpha   92.49867302
_cell_angle_beta   98.35869931
_cell_angle_gamma   114.20579860
_symmetry_Int_Tables_number   1
_chemical_formula_structural   Cu2H7C9I2N3
_chemical_formula_sum   'Cu4 H14 C18 I4 N6'
_cell_volume   598.04668855
_cell_formula_units_Z   2
loop_
 _symmetry_equiv_pos_site_id
 _symmetry_equiv_pos_as_xyz
  1  'x, y, z'
loop_
 _atom_site_type_symbol
 _atom_site_label
 _atom_site_symmetry_multiplicity
 _atom_site_fract_x
 _atom_site_fract_y
 _atom_site_fract_z
 _atom_site_occupancy
 _atom_site_pbe_bader_spin_density
 _atom_site_pbe_cm5_charge
 _atom_site_pbe_ddec_charge
 _atom_site_pbe_ddec_spin_density
 _atom_site_pbe_ddec_sum_bond_order
 _atom_site_pbe_magmom
Cu  Cu0  1  0.90903672  0.69947362  0.19929877  1  0  0.32808  0.185571  0  2.709186  0
Cu  Cu1  1  0.09096611  0.30053346  0.80069998  1  0  0.328089  0.185565  0  2.709189  0
Cu  Cu2  1  0.90423801  0.09056970  0.97979246  1  0  0.238303  0.146041  0  2.742916  0
Cu  Cu3  1  0.09575630  0.90942894  0.02020685  1  0  0.238285  0.145978  0  2.742942  0
H  H4  1  0.82190743  0.89049527  0.43646286  1  0  0.108314  0.076932  0  1.012378  0
H  H5  1  0.17809658  0.10950683  0.56354810  1  0  0.108364  0.076979  0  1.012317  0
H  H6  1  0.73711011  0.83999664  0.67303255  1  0  0.083388  0.09721  0  1.083402  0
H  H7  1  0.26289937  0.15999731  0.32697665  1  0  0.083439  0.097243  0  1.083346  0
H  H8  1  0.67622640  0.57166522  0.75294102  1  0  0.096782  0.105366  0  1.007816  0
H  H9  1  0.32377922  0.42832639  0.24706450  1  0  0.096814  0.105372  0  1.007889  0
H  H10  1  0.70302912  0.36770815  0.59307047  1  0  0.086134  0.10394  0  1.079669  0
H  H11  1  0.29697140  0.63228360  0.40692417  1  0  0.086108  0.10394  0  1.079677  0
H  H12  1  0.71421169  0.20352098  0.44743995  1  0  0.09709  0.119694  0  1.044314  0
H  H13  1  0.28578154  0.79648355  0.55255951  1  0  0.097116  0.119727  0  1.044342  0
H  H14  1  0.76697910  0.03613998  0.26147007  1  0  0.104617  0.08155  0  1.02598  0
H  H15  1  0.23300872  0.96386209  0.73852962  1  0  0.10463  0.081548  0  1.025949  0
H  H16  1  0.87912033  0.39658146  0.00692725  1  0  0.114394  0.057472  0  1.042013  0
H  H17  1  0.12087813  0.60341724  0.99307259  1  0  0.114336  0.057352  0  1.041979  0
C  C18  1  0.79399381  0.77564434  0.47437985  1  0  0.039996  0.085634  0  3.946765  0
C  C19  1  0.20600801  0.22435888  0.52563191  1  0  0.039989  0.0857  0  3.946528  0
C  C20  1  0.74678684  0.74673650  0.60636150  1  0  -0.086586  -0.117157  0  3.959749  0
C  C21  1  0.25321729  0.25325747  0.39364292  1  0  -0.086716  -0.117392  0  3.959484  0
C  C22  1  0.71296085  0.59778859  0.64993933  1  0  -0.076446  -0.025635  0  3.947246  0
C  C23  1  0.28704357  0.40220554  0.35005797  1  0  -0.076365  -0.025483  0  3.947041  0
C  C24  1  0.72734720  0.48418189  0.56018037  1  0  -0.082763  -0.141182  0  3.93325  0
C  C25  1  0.27265457  0.51582045  0.43981801  1  0  -0.082787  -0.141254  0  3.933146  0
C  C26  1  0.77412527  0.52142342  0.42850379  1  0  0.107935  0.150258  0  3.970278  0
C  C27  1  0.22587445  0.47857769  0.57149531  1  0  0.108025  0.150375  0  3.970188  0
C  C28  1  0.78855036  0.40657202  0.32687911  1  0  0.122932  0.197048  0  3.935024  0
C  C29  1  0.21144579  0.59343019  0.67312061  1  0  0.122939  0.19704  0  3.935057  0
C  C30  1  0.75608425  0.25094782  0.35075001  1  0  -0.079529  -0.181808  0  3.905862  0
C  C31  1  0.24391409  0.74905815  0.64924198  1  0  -0.079553  -0.181885  0  3.90569  0
C  C32  1  0.78454305  0.15716659  0.24873897  1  0  0.050763  0.132887  0  3.904176  0
C  C33  1  0.21544850  0.84283201  0.75125999  1  0  0.050762  0.132899  0  3.904  0
C  C34  1  0.85097480  0.35808897  0.10866385  1  0  0.167048  0.233009  0  3.936452  0
C  C35  1  0.14902369  0.64191464  0.89132804  1  0  0.167119  0.233035  0  3.936558  0
I  I36  1  0.70121804  0.78491841  0.01320583  1  0  -0.16472  -0.253037  0  2.263131  0
I  I37  1  0.29877498  0.21508026  0.98679127  1  0  -0.164726  -0.253034  0  2.263144  0
I  I38  1  0.29426991  0.87345567  0.25742753  1  0  -0.205744  -0.361428  0  1.950825  0
I  I39  1  0.70573335  0.12653855  0.74256450  1  0  -0.205745  -0.361456  0  1.950816  0
N  N40  1  0.80836399  0.66662784  0.38650684  1  0  -0.347629  -0.221288  0  3.590161  0
N  N41  1  0.19163773  0.33337447  0.61349257  1  0  -0.347712  -0.221364  0  3.590309  0
N  N42  1  0.83647505  0.45945539  0.20300935  1  0  -0.345947  -0.258857  0  3.563689  0
N  N43  1  0.16352270  0.54054696  0.79698546  1  0  -0.345986  -0.258832  0  3.564109  0
N  N44  1  0.83429961  0.21073593  0.12710488  1  0  -0.3564  -0.212175  0  3.601957  0
N  N45  1  0.16569389  0.78926386  0.87289541  1  0  -0.356436  -0.212097  0  3.601852  0
