# generated using pymatgen
data_CuH8C6(N5O6)2
_symmetry_space_group_name_H-M   'P 1'
_cell_length_a   5.14644461
_cell_length_b   10.68040219
_cell_length_c   14.56717823
_cell_angle_alpha   90.00088701
_cell_angle_beta   89.99810758
_cell_angle_gamma   91.00504844
_symmetry_Int_Tables_number   1
_chemical_formula_structural   CuH8C6(N5O6)2
_chemical_formula_sum   'Cu2 H16 C12 N20 O24'
_cell_volume   800.57776477
_cell_formula_units_Z   2
loop_
 _symmetry_equiv_pos_site_id
 _symmetry_equiv_pos_as_xyz
  1  'x, y, z'
loop_
 _atom_site_type_symbol
 _atom_site_label
 _atom_site_symmetry_multiplicity
 _atom_site_fract_x
 _atom_site_fract_y
 _atom_site_fract_z
 _atom_site_occupancy
 _atom_site_hle17_ddec_charge
 _atom_site_hle17_ddec_spin_density
 _atom_site_hle17_ddec_sum_bond_order
 _atom_site_hle17_magmom
 _atom_site_hse06_10hf_ddec_charge
 _atom_site_hse06_10hf_ddec_spin_density
 _atom_site_hse06_10hf_ddec_sum_bond_order
 _atom_site_hse06_10hf_magmom
 _atom_site_hse06_ddec_charge
 _atom_site_hse06_ddec_spin_density
 _atom_site_hse06_ddec_sum_bond_order
 _atom_site_hse06_magmom
 _atom_site_pbe_cm5_charge
 _atom_site_pbe_ddec_charge
 _atom_site_pbe_ddec_spin_density
 _atom_site_pbe_ddec_sum_bond_order
 _atom_site_pbe_magmom
Cu  Cu0  1  0.49998614  0.99999610  0.50001251  1  1.110096  -0.738147  1.592192  -0.582  1.107117  -0.824295  1.977082  -0.698  1.180918  -0.872539  1.919971  -0.769  0.722609  1.054819  -0.787243  2.020425  -0.648
Cu  Cu1  1  0.50006231  0.50000576  0.99999211  1  1.110024  -0.738149  1.592159  -0.582  1.107069  -0.824295  1.977015  -0.698  1.180868  -0.872534  1.919919  -0.769  0.722608  1.054838  -0.787239  2.02025  -0.648
H  H2  1  0.52372028  0.77099947  0.48361263  1  0.394617  0.001002  0.922316  0.002  0.349035  8e-05  1.022254  0.0  0.361644  0.000224  1.004591  0.0  0.287819  0.340019  -4.7e-05  1.034849  0.0
H  H3  1  0.47626241  0.72900732  0.98357987  1  0.394878  0.001004  0.921999  0.002  0.349259  8e-05  1.022002  0.0  0.361855  0.000224  1.004357  0.0  0.287867  0.340245  -4.6e-05  1.034597  0.0
H  H4  1  0.47616057  0.22900593  0.51642913  1  0.394875  0.001003  0.922006  0.002  0.349193  8e-05  1.022111  0.0  0.361795  0.000223  1.004457  0.0  0.287837  0.340173  -4.6e-05  1.034713  0.0
H  H5  1  0.52380524  0.27100066  0.01641522  1  0.394788  0.001003  0.922004  0.002  0.349181  8e-05  1.022065  0.0  0.361785  0.000223  1.004407  0.0  0.287841  0.340163  -4.7e-05  1.034665  0.0
H  H6  1  0.22440723  0.91493447  0.63198015  1  0.457072  0.000313  0.772847  0.0  0.444467  -0.000586  0.817952  -0.001  0.453112  -0.000377  0.809725  -0.001  0.3399  0.437963  -0.000769  0.824315  -0.001
H  H7  1  0.77558338  0.58509043  0.13195124  1  0.45713  0.000315  0.772832  0.0  0.444544  -0.000585  0.817894  -0.001  0.453192  -0.000376  0.809657  -0.001  0.339888  0.438041  -0.000768  0.824261  -0.001
H  H8  1  0.77546109  0.08506076  0.36804446  1  0.457166  0.000315  0.772443  0.0  0.444536  -0.000584  0.817616  -0.001  0.453184  -0.000376  0.809384  -0.001  0.339931  0.43803  -0.000768  0.823989  -0.001
H  H9  1  0.22454681  0.41492153  0.86803766  1  0.457118  0.000315  0.772617  0.0  0.44451  -0.000584  0.817762  -0.001  0.453155  -0.000376  0.809543  -0.001  0.339964  0.438008  -0.000768  0.824118  -0.001
H  H10  1  0.10820051  0.05097751  0.60392440  1  0.429834  0.000218  0.874815  0.0  0.398067  -0.000505  0.941123  -0.001  0.411058  -0.000345  0.922343  0.0  0.295114  0.38871  -0.000636  0.954605  -0.001
H  H11  1  0.89182626  0.44903859  0.10391266  1  0.429665  0.000216  0.87503  0.0  0.398007  -0.000506  0.94119  -0.001  0.410997  -0.000346  0.922414  0.0  0.295086  0.388649  -0.000637  0.954674  -0.001
H  H12  1  0.89170867  0.94901819  0.39608716  1  0.429717  0.000218  0.874964  0.0  0.398061  -0.000505  0.941119  -0.001  0.41104  -0.000345  0.922352  0.0  0.295068  0.388702  -0.000636  0.954603  -0.001
H  H13  1  0.10830313  0.55096401  0.89607762  1  0.429748  0.000217  0.874885  0.0  0.398112  -0.000505  0.94101  -0.001  0.411071  -0.000345  0.922263  0.0  0.295104  0.388773  -0.000636  0.954476  -0.001
H  H14  1  0.78829993  0.81452235  0.52844926  1  0.434264  0.001056  0.815115  0.001  0.410852  -0.000128  0.881582  -0.001  0.420994  -1e-05  0.870571  0.0  0.317421  0.403413  -0.000239  0.889639  -0.001
H  H15  1  0.21179393  0.68548319  0.02852989  1  0.434654  0.001058  0.814487  0.001  0.411186  -0.000127  0.881075  -0.001  0.421332  -9e-06  0.870069  0.0  0.317587  0.403747  -0.000239  0.889124  -0.001
H  H16  1  0.21179047  0.18547881  0.47138656  1  0.434795  0.001055  0.814222  0.001  0.411323  -0.000128  0.880767  -0.001  0.421476  -1e-05  0.869749  0.0  0.317602  0.403859  -0.00024  0.88885  -0.001
H  H17  1  0.78828434  0.31451248  0.97147137  1  0.434536  0.001058  0.814642  0.001  0.411104  -0.000127  0.881134  -0.001  0.421245  -9e-06  0.870131  0.0  0.317549  0.403664  -0.000239  0.88918  -0.001
C  C18  1  0.61319598  0.50425725  0.36909108  1  -0.014907  -9.1e-05  3.748438  0.0  -0.024267  -0.000109  4.028692  0.0  -0.02755  -9e-05  4.041919  0.0  0.11272  -0.022047  -0.000161  4.019864  0.0
C  C19  1  0.38698965  0.99581400  0.86912365  1  -0.015224  -9.8e-05  3.747661  0.0  -0.024546  -0.000109  4.027991  0.0  -0.027827  -8.9e-05  4.041134  0.0  0.112573  -0.022336  -0.000161  4.019215  0.0
C  C20  1  0.38707055  0.49589561  0.63080515  1  -0.015442  -9.2e-05  3.748174  0.0  -0.024727  -0.000112  4.028126  0.0  -0.027957  -9.4e-05  4.041336  0.0  0.11256  -0.022535  -0.000161  4.019316  0.0
C  C21  1  0.61310431  0.00418338  0.13085771  1  -0.015541  -8.6e-05  3.747823  0.0  -0.024785  -0.000109  4.028188  0.0  -0.02808  -9e-05  4.041328  0.0  0.112515  -0.022581  -0.000161  4.019405  0.0
C  C22  1  0.40945089  0.59158483  0.34746488  1  0.28747  0.000377  3.81036  0.0  0.258677  5.6e-05  4.099765  0.0  0.271018  7.2e-05  4.113314  0.0  0.214702  0.250462  1.4e-05  4.09063  0.0
C  C23  1  0.59055196  0.90841096  0.84742986  1  0.28746  0.000366  3.810596  0.0  0.258737  5.5e-05  4.100132  0.0  0.271068  7e-05  4.113633  0.0  0.214677  0.250516  1.5e-05  4.091024  0.0
C  C24  1  0.59041831  0.40842069  0.65257002  1  0.288311  0.00036  3.810458  0.0  0.259055  5.6e-05  4.100563  0.0  0.271412  7.6e-05  4.114038  0.0  0.214813  0.250827  1.5e-05  4.091457  0.0
C  C25  1  0.40952737  0.09157439  0.15254669  1  0.287906  0.00036  3.810104  0.0  0.258827  5.5e-05  4.10005  0.0  0.271153  6.8e-05  4.113578  0.0  0.214756  0.250601  1.4e-05  4.090933  0.0
C  C26  1  0.81498798  0.50675156  0.43893619  1  0.361699  0.000305  3.804133  0.0  0.316896  7.6e-05  4.108542  0.0  0.338995  0.000123  4.112304  0.0  0.234809  0.30173  3.8e-05  4.106054  0.0
C  C27  1  0.18493912  0.99322823  0.93888417  1  0.362583  0.000354  3.80269  0.0  0.31754  7.5e-05  4.107446  0.0  0.339826  0.000123  4.111064  0.0  0.23494  0.302272  4e-05  4.105016  0.0
C  C28  1  0.18483123  0.49323766  0.56111793  1  0.361781  0.000334  3.804023  0.0  0.317798  8.1e-05  4.107287  0.0  0.339865  0.000129  4.111203  0.0  0.23507  0.302592  4.1e-05  4.104823  0.0
C  C29  1  0.81510091  0.00675194  0.06108346  1  0.362879  0.000333  3.80203  0.0  0.317887  7.8e-05  4.106507  0.0  0.340208  0.000124  4.110066  0.0  0.235098  0.302615  4e-05  4.10411  0.0
N  N30  1  0.16034672  0.76578934  0.37469758  1  0.63883  0.000496  3.991541  0.001  0.649527  0.000243  4.310949  0.0  0.674406  0.000169  4.321252  0.0  0.114492  0.632703  0.000332  4.303496  0.0
N  N31  1  0.83963528  0.73420285  0.87466206  1  0.638705  0.000444  3.991886  0.0  0.649485  0.00024  4.311253  0.0  0.674354  0.000168  4.32157  0.0  0.114374  0.632663  0.000332  4.303786  0.0
N  N32  1  0.83953825  0.23421882  0.62533869  1  0.638744  0.000498  3.990555  0.001  0.649379  0.000242  4.31  0.0  0.674259  0.000169  4.320312  0.0  0.114333  0.632555  0.000332  4.302563  0.0
N  N33  1  0.16044251  0.26578721  0.12532410  1  0.638909  0.000495  3.990034  0.001  0.64974  0.000241  4.309371  0.0  0.674603  0.000164  4.319683  0.0  0.114558  0.632917  0.000332  4.301922  0.0
N  N34  1  0.83033651  0.60071940  0.49409871  1  -0.224366  -0.002237  2.780507  -0.003  -0.218805  -0.00166  3.071178  -0.002  -0.225025  -0.001061  3.076107  -0.001  -0.211728  -0.21463  -0.002385  3.068137  -0.003
N  N35  1  0.17002151  0.89941843  0.99419671  1  -0.224723  -0.002258  2.781305  -0.003  -0.21911  -0.001664  3.071932  -0.002  -0.225366  -0.001062  3.076817  -0.001  -0.211735  -0.214946  -0.002387  3.068907  -0.003
N  N36  1  0.17026907  0.39955803  0.50567807  1  -0.224364  -0.002264  2.781137  -0.003  -0.219258  -0.001661  3.071782  -0.002  -0.225535  -0.00106  3.076684  -0.001  -0.211947  -0.215052  -0.002387  3.068764  -0.003
N  N37  1  0.83010851  0.10059166  0.00579632  1  -0.224847  -0.002248  2.780583  -0.003  -0.219051  -0.001664  3.07109  -0.002  -0.225308  -0.001061  3.075942  -0.001  -0.211736  -0.214896  -0.002387  3.068078  -0.003
N  N38  1  0.36876937  0.69973699  0.39606707  1  -0.399564  -0.000391  2.921637  -0.001  -0.376474  0.000105  3.200797  0.0  -0.394497  0.000191  3.20832  0.0  -0.221762  -0.364183  -3e-05  3.195617  0.0
N  N39  1  0.63113769  0.80022484  0.89599817  1  -0.399662  -0.00039  2.922356  -0.001  -0.376767  0.00011  3.201771  0.0  -0.394729  0.000192  3.20925  0.0  -0.22188  -0.364491  -2.9e-05  3.196607  0.0
N  N40  1  0.63097573  0.30020340  0.60403167  1  -0.399592  -0.000377  2.921953  -0.001  -0.376395  0.000103  3.201422  0.0  -0.394374  0.000184  3.208897  0.0  -0.22159  -0.364116  -3e-05  3.196258  0.0
N  N41  1  0.36892409  0.19975978  0.10397975  1  -0.399512  -0.000387  2.921458  -0.001  -0.376463  0.000106  3.200877  0.0  -0.39444  0.000187  3.208387  0.0  -0.221703  -0.364177  -3.1e-05  3.195703  0.0
N  N42  1  0.59205450  0.40590257  0.31487316  1  -0.062859  -1.4e-05  2.731394  0.0  -0.083966  -0.000171  3.015521  0.0  -0.07294  -6.6e-05  3.017062  0.0  -0.174542  -0.091478  -0.000302  3.014567  0.0
N  N43  1  0.40822149  0.09419127  0.81493443  1  -0.06273  -6.5e-05  2.730558  0.0  -0.08375  -0.000168  3.014795  0.0  -0.072657  -6.1e-05  3.016352  0.0  -0.174498  -0.091292  -0.000302  3.013849  0.0
N  N44  1  0.40833560  0.59428638  0.68498256  1  -0.062631  4e-06  2.730552  0.0  -0.083703  -0.000176  3.014823  0.0  -0.072619  -6.9e-05  3.016375  0.0  -0.174479  -0.091205  -0.000302  3.013873  0.0
N  N45  1  0.59188210  0.90580506  0.18504967  1  -0.062762  -6.3e-05  2.730778  0.0  -0.083733  -0.000169  3.01505  0.0  -0.072621  -6.2e-05  3.016594  0.0  -0.174439  -0.091263  -0.000303  3.014102  0.0
N  N46  1  0.27079022  0.54313988  0.27833742  1  -0.196865  -0.00092  2.640743  -0.001  -0.212942  -0.000301  2.928814  0.0  -0.213717  -0.000193  2.93427  0.0  -0.205346  -0.212986  -0.000393  2.925378  0.0
N  N47  1  0.72918179  0.95683633  0.77828758  1  -0.196857  -0.000919  2.641108  -0.001  -0.212877  -0.000301  2.929345  0.0  -0.213581  -0.000192  2.934824  0.0  -0.205209  -0.212959  -0.000393  2.925909  0.0
N  N48  1  0.72897038  0.45682283  0.72174142  1  -0.197216  -0.000926  2.64114  -0.001  -0.213222  -0.000299  2.929719  0.0  -0.213941  -0.000191  2.935182  0.0  -0.205316  -0.213266  -0.000393  2.926291  0.0
N  N49  1  0.27089342  0.04314626  0.22168897  1  -0.197273  -0.000912  2.640563  -0.001  -0.213144  -0.000301  2.928951  0.0  -0.213835  -0.000192  2.93442  0.0  -0.205425  -0.213207  -0.000393  2.925513  0.0
O  O50  1  0.60180694  0.82981891  0.53233427  1  -0.783694  -0.070165  1.987836  -0.102  -0.764173  -0.045278  2.238431  -0.07  -0.796353  -0.033586  2.20574  -0.056  -0.571317  -0.741364  -0.053803  2.261381  -0.079
O  O51  1  0.39829514  0.67019697  0.03232929  1  -0.784288  -0.070137  1.986897  -0.102  -0.76467  -0.045258  2.237482  -0.07  -0.796862  -0.033574  2.204794  -0.056  -0.571438  -0.741864  -0.05378  2.260424  -0.079
O  O52  1  0.39829785  0.17019146  0.46766150  1  -0.78444  -0.070105  1.986828  -0.101  -0.764747  -0.045246  2.237516  -0.07  -0.796941  -0.033566  2.204783  -0.056  -0.57139  -0.741909  -0.053763  2.260558  -0.079
O  O53  1  0.60179006  0.32981175  0.96766785  1  -0.784143  -0.070143  1.987326  -0.102  -0.76461  -0.045267  2.238023  -0.07  -0.796793  -0.033582  2.20533  -0.056  -0.571411  -0.7418  -0.053788  2.260968  -0.079
O  O54  1  0.26958276  0.99783309  0.60839561  1  -0.805614  -0.060469  1.949954  -0.087  -0.78334  -0.040944  2.17609  -0.063  -0.813747  -0.030829  2.143278  -0.051  -0.571351  -0.762122  -0.048148  2.199616  -0.07
O  O55  1  0.73044077  0.50218228  0.10837633  1  -0.805506  -0.060477  1.950212  -0.087  -0.783331  -0.040953  2.17613  -0.063  -0.81374  -0.030836  2.143323  -0.051  -0.571291  -0.762109  -0.048158  2.199643  -0.07
O  O56  1  0.73030386  0.00214882  0.39160909  1  -0.805624  -0.060506  1.949742  -0.088  -0.783445  -0.040971  2.175757  -0.063  -0.813848  -0.030848  2.142983  -0.051  -0.571351  -0.762213  -0.04818  2.199274  -0.07
O  O57  1  0.26971117  0.49783412  0.89160090  1  -0.805533  -0.060493  1.949775  -0.087  -0.783401  -0.04096  2.175763  -0.063  -0.813787  -0.03084  2.143044  -0.051  -0.571414  -0.762201  -0.048169  2.199211  -0.07
O  O58  1  0.12657562  0.86222436  0.42800961  1  -0.554389  9.5e-05  1.821492  -0.003  -0.535504  0.001306  2.074361  -0.001  -0.554157  0.001907  2.061076  0.0  -0.208642  -0.521693  0.000389  2.08336  -0.002
O  O59  1  0.87337856  0.63776229  0.92796849  1  -0.554145  0.000127  1.821291  -0.003  -0.535275  0.001295  2.074153  -0.001  -0.553871  0.001901  2.060746  0.0  -0.208542  -0.521491  0.000386  2.083176  -0.002
O  O60  1  0.87328260  0.13776629  0.57204451  1  -0.554025  8.2e-05  1.820906  -0.003  -0.535125  0.001301  2.073977  -0.001  -0.55375  0.001908  2.060583  0.0  -0.208391  -0.521261  0.000383  2.082854  -0.002
O  O61  1  0.12669535  0.36222782  0.07201905  1  -0.554161  9e-05  1.821321  -0.003  -0.535234  0.001299  2.07404  -0.001  -0.553895  0.00191  2.060766  0.0  -0.208538  -0.521423  0.000384  2.08303  -0.002
O  O62  1  0.00580676  0.74067273  0.31216933  1  -0.375705  -0.000189  1.780108  0.0  -0.368569  6.8e-05  2.010854  0.0  -0.379284  0.000158  2.006183  0.0  -0.135494  -0.360841  -3.4e-05  2.013875  0.0
O  O63  1  0.99429609  0.75935552  0.81217090  1  -0.375844  -0.0002  1.780213  0.0  -0.368629  7.8e-05  2.01092  0.0  -0.379318  0.000161  2.006155  0.0  -0.135462  -0.360889  -3.1e-05  2.013918  0.0
O  O64  1  0.99428980  0.25942394  0.68779074  1  -0.376328  -0.000201  1.779899  0.0  -0.368979  7.4e-05  2.010596  0.0  -0.379645  0.000162  2.005758  0.0  -0.135835  -0.361247  -3.1e-05  2.013619  0.0
O  O65  1  0.00580532  0.24063802  0.18782281  1  -0.376141  -0.000197  1.77936  0.0  -0.369018  7.1e-05  2.010065  0.0  -0.379711  0.000156  2.005327  0.0  -0.13573  -0.361286  -3.3e-05  2.013092  0.0
O  O66  1  0.38531046  0.42839422  0.25981550  1  0.020573  -0.000247  2.342752  0.0  0.089605  -1e-06  2.598715  0.0  0.073708  2.6e-05  2.605746  0.0  0.076288  0.100774  -2e-06  2.593445  0.0
O  O67  1  0.61483031  0.07163665  0.75982525  1  0.020879  -0.000202  2.342499  0.0  0.089683  -2e-06  2.598758  0.0  0.073608  2.4e-05  2.605914  0.0  0.07641  0.100913  -1e-06  2.593441  0.0
O  O68  1  0.61476997  0.57167265  0.74015281  1  0.02101  -0.000243  2.342823  0.0  0.089801  2e-06  2.599129  0.0  0.073762  2.9e-05  2.606264  0.0  0.076405  0.100944  -1e-06  2.593887  0.0
O  O69  1  0.38526060  0.92834763  0.24015541  1  0.021156  -0.000218  2.342214  0.0  0.089819  -1e-06  2.598536  0.0  0.073754  2.7e-05  2.605665  0.0  0.076464  0.10102  -2e-06  2.593248  0.0
O  O70  1  0.96672418  0.40358194  0.43752450  1  -0.16184  -5.4e-05  2.230788  0.0  -0.102915  -0.000107  2.466693  0.0  -0.118295  -4.6e-05  2.46798  0.0  -0.05461  -0.092167  -0.000208  2.465857  0.0
O  O71  1  0.03239254  0.09611359  0.93719257  1  -0.161956  -7.3e-05  2.229598  0.0  -0.103203  -0.000103  2.465679  0.0  -0.118883  -4.4e-05  2.467133  0.0  -0.054668  -0.092277  -0.000207  2.464763  0.0
O  O72  1  0.03160823  0.59588145  0.56305546  1  -0.161412  -6.4e-05  2.229455  0.0  -0.102826  -0.000109  2.465097  0.0  -0.118454  -4.7e-05  2.466642  0.0  -0.054425  -0.09196  -0.000207  2.464192  0.0
O  O73  1  0.96752920  0.90382387  0.06273249  1  -0.162143  -6.7e-05  2.229742  0.0  -0.103098  -0.000103  2.465561  0.0  -0.118786  -4.4e-05  2.467006  0.0  -0.05472  -0.092155  -0.000208  2.464609  0.0
