# generated using pymatgen
data_CdCuH9C6N4O3
_symmetry_space_group_name_H-M   'P 1'
_cell_length_a   7.60435000
_cell_length_b   8.56576948
_cell_length_c   9.26930557
_cell_angle_alpha   74.33668774
_cell_angle_beta   76.45688416
_cell_angle_gamma   67.81982657
_symmetry_Int_Tables_number   1
_chemical_formula_structural   CdCuH9C6N4O3
_chemical_formula_sum   'Cd2 Cu2 H18 C12 N8 O6'
_cell_volume   532.37990509
_cell_formula_units_Z   2
loop_
 _symmetry_equiv_pos_site_id
 _symmetry_equiv_pos_as_xyz
  1  'x, y, z'
loop_
 _atom_site_type_symbol
 _atom_site_label
 _atom_site_symmetry_multiplicity
 _atom_site_fract_x
 _atom_site_fract_y
 _atom_site_fract_z
 _atom_site_occupancy
 _atom_site_hle17_bader_spin_density
 _atom_site_hle17_ddec_charge
 _atom_site_hle17_ddec_spin_density
 _atom_site_hle17_ddec_sum_bond_order
 _atom_site_hle17_magmom
 _atom_site_hse06_10hf_bader_spin_density
 _atom_site_hse06_10hf_ddec_charge
 _atom_site_hse06_10hf_ddec_spin_density
 _atom_site_hse06_10hf_ddec_sum_bond_order
 _atom_site_hse06_10hf_magmom
 _atom_site_hse06_bader_spin_density
 _atom_site_hse06_ddec_charge
 _atom_site_hse06_ddec_spin_density
 _atom_site_hse06_ddec_sum_bond_order
 _atom_site_hse06_magmom
 _atom_site_pbe_bader_spin_density
 _atom_site_pbe_cm5_charge
 _atom_site_pbe_ddec_charge
 _atom_site_pbe_ddec_spin_density
 _atom_site_pbe_ddec_sum_bond_order
 _atom_site_pbe_magmom
Cd  Cd0  1  0.30900046  0.25315640  0.14990120  1  0  1.236591  0  1.804298  0  0  1.055686  0  2.277253  0  0  1.104558  0  2.225146  0  0  0.836686  1.021534  0  2.312609  0
Cd  Cd1  1  0.69099574  0.74684208  0.85009617  1  0  1.236507  0  1.804429  0  0  1.055571  0  2.277405  0  0  1.104446  0  2.225298  0  0  0.836675  1.02142  0  2.312758  0
Cu  Cu2  1  0.35310820  0.63344064  0.47811561  1  0  0.177674  0  2.856941  0  0  0.141735  0  3.353172  0  0  0.112127  0  3.324442  0  0  0.381232  0.164777  0  3.369083  0
Cu  Cu3  1  0.64688488  0.36655527  0.52188087  1  0  0.177683  0  2.856944  0  0  0.141754  0  3.35318  0  0  0.112149  0  3.324458  0  0  0.381193  0.164795  0  3.369071  0
H  H4  1  0.15390243  0.32854554  0.58674284  1  0  0.132645  0  0.929297  0  0  0.147556  0  0.986389  0  0  0.147469  0  0.988602  0  0  0.118516  0.147568  0  0.984751  0
H  H5  1  0.84610097  0.67145553  0.41325892  1  0  0.132639  0  0.929305  0  0  0.147535  0  0.986408  0  0  0.14745  0  0.988618  0  0  0.118507  0.147549  0  0.984768  0
H  H6  1  0.93673929  0.31059799  0.70340403  1  0  0.129317  0  0.919985  0  0  0.13896  0  0.986445  0  0  0.141581  0  0.984207  0  0  0.114949  0.137092  0  0.987939  0
H  H7  1  0.06326079  0.68940820  0.29658953  1  0  0.129346  0  0.919982  0  0  0.138964  0  0.986471  0  0  0.141587  0  0.984231  0  0  0.114953  0.137095  0  0.98797  0
H  H8  1  0.08081334  0.06533980  0.57664716  1  0  0.058411  0  0.935585  0  0  0.070893  0  1.004495  0  0  0.070403  0  1.005774  0  0  0.102976  0.071156  0  1.003634  0
H  H9  1  0.91918641  0.93466385  0.42335574  1  0  0.058405  0  0.935577  0  0  0.070873  0  1.004508  0  0  0.070383  0  1.005786  0  0  0.102979  0.071136  0  1.003645  0
H  H10  1  0.30996358  0.01375542  0.63101350  1  0  0.055116  0  0.922448  0  0  0.067024  0  0.988044  0  0  0.067208  0  0.988695  0  0  0.098526  0.066788  0  0.987736  0
H  H11  1  0.69003441  0.98624566  0.36898825  1  0  0.05513  0  0.922458  0  0  0.06704  0  0.988046  0  0  0.067225  0  0.988696  0  0  0.098525  0.066805  0  0.987737  0
H  H12  1  0.06266958  0.87335453  0.78537231  1  0  0.365404  0  0.905932  0  0  0.341933  0  0.977322  0  0  0.34987  0  0.969426  0  0  0.301554  0.336435  0  0.982667  0
H  H13  1  0.93732474  0.12664913  0.21462951  1  0  0.36547  0  0.905892  0  0  0.341991  0  0.977282  0  0  0.349927  0  0.969387  0  0  0.301577  0.336487  0  0.982628  0
H  H14  1  0.20216106  0.56646910  0.91554938  1  0  0.419697  0  0.859884  0  0  0.392641  0  0.928045  0  0  0.400282  0  0.91734  0  0  0.298763  0.387333  0  0.935468  0
H  H15  1  0.79783732  0.43353455  0.08445164  1  0  0.419679  0  0.859891  0  0  0.39262  0  0.928073  0  0  0.400261  0  0.917368  0  0  0.298753  0.387311  0  0.935498  0
H  H16  1  0.30656106  0.62215564  0.01315504  1  0  0.430887  0  0.86714  0  0  0.402958  0  0.924598  0  0  0.413133  0  0.909865  0  0  0.290264  0.395726  0  0.935068  0
H  H17  1  0.69344185  0.37784670  0.98684434  1  0  0.430813  0  0.867209  0  0  0.402911  0  0.924619  0  0  0.413084  0  0.909888  0  0  0.290248  0.395681  0  0.935086  0
H  H18  1  0.65062414  0.14150370  0.92529444  1  0  0.425111  0  0.854779  0  0  0.395955  0  0.926258  0  0  0.404165  0  0.914586  0  0  0.300189  0.390387  0  0.934187  0
H  H19  1  0.34938236  0.85849992  0.07470391  1  0  0.425096  0  0.854803  0  0  0.395938  0  0.926278  0  0  0.404148  0  0.914607  0  0  0.300177  0.39037  0  0.934206  0
H  H20  1  0.73838915  0.11900277  0.07461209  1  0  0.417797  0  0.889202  0  0  0.383337  0  0.958349  0  0  0.394517  0  0.942244  0  0  0.292896  0.375468  0  0.96962  0
H  H21  1  0.26161009  0.88100215  0.92538628  1  0  0.417739  0  0.88928  0  0  0.383309  0  0.958381  0  0  0.394485  0  0.942276  0  0  0.292889  0.37544  0  0.969652  0
C  C22  1  0.42123540  0.42850461  0.38907615  1  0  -0.023622  0  3.593269  0  0  -0.045378  0  3.971213  0  0  -0.015889  0  3.957634  0  0  -0.058369  -0.066565  0  3.98028  0
C  C23  1  0.57877085  0.57148872  0.61092379  1  0  -0.023688  0  3.593133  0  0  -0.045463  0  3.971097  0  0  -0.015973  0  3.957522  0  0  -0.058366  -0.066645  0  3.980154  0
C  C24  1  0.16351750  0.25255226  0.81886127  1  0  0.435908  0  3.629424  0  0  0.412768  0  3.90733  0  0  0.427758  0  3.92248  0  0  0.232458  0.402337  0  3.89744  0
C  C25  1  0.83648276  0.74745013  0.18114618  1  0  0.435854  0  3.629129  0  0  0.412699  0  3.907046  0  0  0.427693  0  3.9222  0  0  0.232395  0.402267  0  3.897154  0
C  C26  1  0.09423731  0.25072868  0.68703530  1  0  -0.224362  0  3.730303  0  0  -0.255908  0  3.965826  0  0  -0.259675  0  3.975395  0  0  -0.133134  -0.253048  0  3.958951  0
C  C27  1  0.90576065  0.74927239  0.31296430  1  0  -0.224381  0  3.730506  0  0  -0.255889  0  3.965977  0  0  -0.259661  0  3.975546  0  0  -0.133129  -0.253033  0  3.959109  0
C  C28  1  0.15368090  0.06544467  0.66578182  1  0  0.159703  0  3.601571  0  0  0.099408  0  3.872599  0  0  0.106226  0  3.879759  0  0  -0.064052  0.094856  0  3.867435  0
C  C29  1  0.84631844  0.93455640  0.33421967  1  0  0.159728  0  3.601628  0  0  0.099452  0  3.872611  0  0  0.10627  0  3.879769  0  0  -0.064023  0.094901  0  3.867441  0
C  C30  1  0.86087479  0.34016600  0.36409574  1  0  0.002336  0  3.425222  0  0  -0.020091  0  3.773196  0  0  0.001779  0  3.770766  0  0  -0.020461  -0.035739  0  3.77445  0
C  C31  1  0.13912822  0.65983250  0.63590676  1  0  0.002267  0  3.425568  0  0  -0.020135  0  3.773499  0  0  0.001731  0  3.771071  0  0  -0.020486  -0.035782  0  3.774763  0
C  C32  1  0.36160339  0.83854194  0.33507414  1  0  0.003296  0  3.435487  0  0  -0.016963  0  3.784825  0  0  0.00478  0  3.783804  0  0  -0.024632  -0.032295  0  3.785007  0
C  C33  1  0.63839028  0.16144884  0.66492785  1  0  0.003262  0  3.435584  0  0  -0.017015  0  3.784947  0  0  0.004726  0  3.783925  0  0  -0.024694  -0.032345  0  3.78512  0
N  N34  1  0.22182665  0.24273450  0.92711031  1  0  -0.476408  0  2.795351  0  0  -0.428505  0  3.065999  0  0  -0.446901  0  3.07324  0  0  -0.330638  -0.41611  0  3.061249  0
N  N35  1  0.77816443  0.75727042  0.07288428  1  0  -0.476398  0  2.794925  0  0  -0.428467  0  3.065538  0  0  -0.446866  0  3.072783  0  0  -0.33059  -0.41607  0  3.060783  0
N  N36  1  0.39648514  0.34648159  0.31691236  1  0  -0.456205  0  2.996434  0  0  -0.37301  0  3.283222  0  0  -0.40054  0  3.288824  0  0  -0.389328  -0.354133  0  3.279343  0
N  N37  1  0.60351890  0.65351047  0.68308942  1  0  -0.456138  0  2.996354  0  0  -0.37292  0  3.283139  0  0  -0.400452  0  3.288743  0  0  -0.389317  -0.354042  0  3.279257  0
N  N38  1  0.35886970  0.96810538  0.24834786  1  0  -0.517531  0  3.080501  0  0  -0.436901  0  3.369393  0  0  -0.46345  0  3.378198  0  0  -0.400958  -0.419015  0  3.363403  0
N  N39  1  0.64112260  0.03188539  0.75165224  1  0  -0.517485  0  3.080635  0  0  -0.436833  0  3.369514  0  0  -0.463384  0  3.378325  0  0  -0.400853  -0.418949  0  3.363522  0
N  N40  1  0.98635560  0.31194485  0.26177561  1  0  -0.521611  0  3.066666  0  0  -0.438027  0  3.338207  0  0  -0.463109  0  3.34702  0  0  -0.394473  -0.421148  0  3.332349  0
N  N41  1  0.01365734  0.68805232  0.73822203  1  0  -0.521495  0  3.066891  0  0  -0.437916  0  3.33841  0  0  -0.462998  0  3.34723  0  0  -0.394427  -0.421035  0  3.332552  0
O  O42  1  0.63293884  0.19313794  0.01268069  1  0  -0.836502  0  1.934474  0  0  -0.768237  0  2.127885  0  0  -0.790093  0  2.095747  0  0  -0.564939  -0.752837  0  2.149876  0
O  O43  1  0.36706088  0.80686569  0.98731684  1  0  -0.836459  0  1.934573  0  0  -0.768188  0  2.127951  0  0  -0.790042  0  2.09584  0  0  -0.564918  -0.752787  0  2.14994  0
O  O44  1  0.24526809  0.53814760  0.01374573  1  0  -0.843208  0  1.887378  0  0  -0.781604  0  2.082854  0  0  -0.802507  0  2.053656  0  0  -0.592023  -0.766725  0  2.102865  0
O  O45  1  0.75473482  0.46185475  0.98625365  1  0  -0.843111  0  1.887475  0  0  -0.78152  0  2.08297  0  0  -0.802419  0  2.053767  0  0  -0.59199  -0.766642  0  2.10298  0
O  O46  1  0.09684957  0.96398581  0.80722873  1  0  -0.550396  0  2.099993  0  0  -0.48623  0  2.312713  0  0  -0.503688  0  2.304037  0  0  -0.396019  -0.473846  0  2.318283  0
O  O47  1  0.90314658  0.03601656  0.19277414  1  0  -0.550508  0  2.099996  0  0  -0.486311  0  2.312695  0  0  -0.503774  0  2.304032  0  0  -0.396065  -0.473925  0  2.318293  0
