# generated using pymatgen
data_NiH11C13(NO3)2
_symmetry_space_group_name_H-M   'P 1'
_cell_length_a   8.07714209
_cell_length_b   9.93089444
_cell_length_c   10.80522476
_cell_angle_alpha   113.31599726
_cell_angle_beta   103.44451483
_cell_angle_gamma   98.14411960
_symmetry_Int_Tables_number   1
_chemical_formula_structural   NiH11C13(NO3)2
_chemical_formula_sum   'Ni2 H22 C26 N4 O12'
_cell_volume   747.16328819
_cell_formula_units_Z   2
loop_
 _symmetry_equiv_pos_site_id
 _symmetry_equiv_pos_as_xyz
  1  'x, y, z'
loop_
 _atom_site_type_symbol
 _atom_site_label
 _atom_site_symmetry_multiplicity
 _atom_site_fract_x
 _atom_site_fract_y
 _atom_site_fract_z
 _atom_site_occupancy
 _atom_site_hle17_bader_spin_density
 _atom_site_hle17_ddec_charge
 _atom_site_hle17_ddec_spin_density
 _atom_site_hle17_ddec_sum_bond_order
 _atom_site_hle17_magmom
 _atom_site_hse06_10hf_bader_spin_density
 _atom_site_hse06_10hf_ddec_charge
 _atom_site_hse06_10hf_ddec_spin_density
 _atom_site_hse06_10hf_ddec_sum_bond_order
 _atom_site_hse06_10hf_magmom
 _atom_site_hse06_bader_spin_density
 _atom_site_hse06_ddec_charge
 _atom_site_hse06_ddec_spin_density
 _atom_site_hse06_ddec_sum_bond_order
 _atom_site_hse06_magmom
 _atom_site_pbe_bader_spin_density
 _atom_site_pbe_cm5_charge
 _atom_site_pbe_ddec_charge
 _atom_site_pbe_ddec_spin_density
 _atom_site_pbe_ddec_sum_bond_order
 _atom_site_pbe_magmom
Ni  Ni0  1  0.19620310  0.12761977  0.86330972  1  0  0.642377  0  2.247593  0  0  0.602761  0  2.738147  0  0  0.689151  0  2.647145  0  0  0.582186  0.557564  0  2.793582  0
Ni  Ni1  1  0.80380121  0.87237223  0.13668024  1  0  0.6422  0  2.247511  0  0  0.602608  0  2.73817  0  0  0.688925  0  2.647155  0  0  0.582112  0.557341  0  2.793765  0
H  H2  1  0.64625794  0.95013353  0.42066571  1  0  0.127158  0  0.942873  0  0  0.133908  0  1.003411  0  0  0.137248  0  1.002294  0  0  0.118135  0.131282  0  1.004438  0
H  H3  1  0.35371729  0.04987850  0.57934589  1  0  0.127218  0  0.942901  0  0  0.133961  0  1.003417  0  0  0.137295  0  1.002306  0  0  0.118159  0.131336  0  1.004445  0
H  H4  1  0.40525368  0.75629304  0.41894369  1  0  0.108615  0  0.945392  0  0  0.118357  0  1.003673  0  0  0.121048  0  1.002378  0  0  0.111846  0.116341  0  1.004715  0
H  H5  1  0.59472906  0.24371440  0.58105089  1  0  0.108671  0  0.945453  0  0  0.118425  0  1.003713  0  0  0.121113  0  1.002415  0  0  0.111847  0.116409  0  1.004754  0
H  H6  1  0.45336826  0.69869689  0.62920443  1  0  0.139871  0  0.916638  0  0  0.151081  0  0.966287  0  0  0.154772  0  0.964166  0  0  0.123785  0.148166  0  0.968514  0
H  H7  1  0.54661717  0.30129565  0.37077865  1  0  0.139993  0  0.916503  0  0  0.15119  0  0.966155  0  0  0.154883  0  0.964027  0  0  0.123875  0.148274  0  0.968383  0
H  H8  1  0.53480165  0.08858286  0.97017431  1  0  0.102824  0  0.951096  0  0  0.109184  0  1.016477  0  0  0.111956  0  1.012791  0  0  0.125237  0.107041  0  1.019235  0
H  H9  1  0.46520946  0.91141808  0.02982387  1  0  0.102803  0  0.951098  0  0  0.109187  0  1.016467  0  0  0.111939  0  1.012808  0  0  0.125223  0.107044  0  1.01923  0
H  H10  1  0.84333148  0.19932261  0.99630677  1  0  0.134373  0  0.952681  0  0  0.141034  0  1.014451  0  0  0.145137  0  1.01348  0  0  0.113477  0.138037  0  1.015376  0
H  H11  1  0.15667513  0.80068763  0.00369311  1  0  0.134381  0  0.952723  0  0  0.141104  0  1.014432  0  0  0.145211  0  1.013449  0  0  0.113457  0.1381  0  1.015349  0
H  H12  1  0.03829515  0.34722656  0.92395936  1  0  0.074406  0  0.975855  0  0  0.0766  0  1.066497  0  0  0.080789  0  1.059702  0  0  0.087722  0.072785  0  1.071903  0
H  H13  1  0.96170939  0.65279637  0.07604205  1  0  0.074386  0  0.975747  0  0  0.076606  0  1.066448  0  0  0.080798  0  1.059649  0  0  0.087769  0.072789  0  1.071873  0
H  H14  1  0.95732702  0.45965372  0.84145448  1  0  0.100109  0  0.910831  0  0  0.119953  0  0.960177  0  0  0.121836  0  0.959836  0  0  0.101626  0.118607  0  0.960297  0
H  H15  1  0.04267196  0.54036810  0.15855572  1  0  0.100074  0  0.910844  0  0  0.119975  0  0.960159  0  0  0.12186  0  0.959824  0  0  0.101631  0.118628  0  0.960284  0
H  H16  1  0.65195951  0.49844893  0.83118047  1  0  0.12255  0  0.95647  0  0  0.131995  0  1.015494  0  0  0.135015  0  1.015294  0  0  0.110146  0.129732  0  1.015976  0
H  H17  1  0.34803824  0.50156587  0.16884358  1  0  0.122647  0  0.956298  0  0  0.132059  0  1.01536  0  0  0.135088  0  1.015146  0  0  0.110125  0.129765  0  1.015873  0
H  H18  1  0.34647829  0.37340478  0.80848762  1  0  0.100247  0  0.927493  0  0  0.111754  0  0.980669  0  0  0.114021  0  0.978502  0  0  0.126613  0.109891  0  0.98263  0
H  H19  1  0.65352613  0.62660309  0.19152395  1  0  0.10028  0  0.927452  0  0  0.11176  0  0.980653  0  0  0.114027  0  0.978485  0  0  0.126589  0.109856  0  0.982669  0
H  H20  1  0.10471871  0.75373183  0.73581304  1  0  0.407621  0  0.859187  0  0  0.386344  0  0.921336  0  0  0.395679  0  0.907456  0  0  0.293426  0.379852  0  0.931017  0
H  H21  1  0.89529041  0.24626336  0.26419007  1  0  0.407706  0  0.859145  0  0  0.386415  0  0.921258  0  0  0.395749  0  0.90738  0  0  0.293468  0.379924  0  0.930938  0
H  H22  1  0.15444960  0.79356255  0.62124639  1  0  0.417504  0  0.881347  0  0  0.389883  0  0.941092  0  0  0.399931  0  0.925823  0  0  0.281427  0.382764  0  0.951928  0
H  H23  1  0.84555748  0.20640755  0.37874154  1  0  0.41765  0  0.881112  0  0  0.390041  0  0.940842  0  0  0.40009  0  0.925572  0  0  0.281544  0.382922  0  0.951678  0
C  C24  1  0.94955161  0.11498589  0.62137198  1  0  0.613784  0  3.911475  0  0  0.571305  0  4.211296  0  0  0.609614  0  4.201595  0  0  0.214145  0.544497  0  4.218042  0
C  C25  1  0.05044589  0.88501646  0.37863354  1  0  0.613719  0  3.91163  0  0  0.57133  0  4.211287  0  0  0.609633  0  4.201594  0  0  0.214198  0.544523  0  4.218072  0
C  C26  1  0.81552682  0.99345424  0.62121134  1  0  -0.000129  0  3.626909  0  0  -0.007162  0  3.877328  0  0  -0.004601  0  3.890437  0  0  0.107866  -0.010227  0  3.870264  0
C  C27  1  0.18447786  0.00654677  0.37879590  1  0  -5e-06  0  3.626893  0  0  -0.007093  0  3.877313  0  0  -0.00452  0  3.890401  0  0  0.107767  -0.010169  0  3.870286  0
C  C28  1  0.65969843  0.91838550  0.50713017  1  0  -0.081653  0  3.722796  0  0  -0.107828  0  3.983933  0  0  -0.110336  0  4.000417  0  0  -0.068248  -0.106202  0  3.973298  0
C  C29  1  0.34028718  0.08161943  0.49287696  1  0  -0.081637  0  3.722513  0  0  -0.107769  0  3.983612  0  0  -0.110272  0  4.00009  0  0  -0.068137  -0.106146  0  3.972998  0
C  C30  1  0.52845682  0.81112481  0.50652035  1  0  -0.016092  0  3.71016  0  0  -0.040685  0  3.97277  0  0  -0.035406  0  3.986501  0  0  -0.068838  -0.044303  0  3.964039  0
C  C31  1  0.47153906  0.18888000  0.49347468  1  0  -0.016195  0  3.710108  0  0  -0.040822  0  3.972699  0  0  -0.035534  0  3.986416  0  0  -0.068899  -0.044435  0  3.963972  0
C  C32  1  0.55509281  0.77719150  0.62195948  1  0  -0.078751  0  3.682415  0  0  -0.099162  0  3.928412  0  0  -0.102108  0  3.943079  0  0  -0.061111  -0.098411  0  3.920207  0
C  C33  1  0.44489598  0.22280765  0.37804238  1  0  -0.079038  0  3.682426  0  0  -0.099402  0  3.928419  0  0  -0.102348  0  3.943078  0  0  -0.061258  -0.098651  0  3.920228  0
C  C34  1  0.71291855  0.84756358  0.73215655  1  0  0.041481  0  3.611182  0  0  0.034519  0  3.860132  0  0  0.039759  0  3.869816  0  0  0.123517  0.030774  0  3.854092  0
C  C35  1  0.28706993  0.15242307  0.26783230  1  0  0.041545  0  3.611058  0  0  0.034514  0  3.860088  0  0  0.039755  0  3.869771  0  0  0.123401  0.03076  0  3.854062  0
C  C36  1  0.56549443  0.17911930  0.94029202  1  0  0.131982  0  3.652287  0  0  0.1014  0  3.901698  0  0  0.112856  0  3.918901  0  0  0.049061  0.093687  0  3.89104  0
C  C37  1  0.43451651  0.82088504  0.05971201  1  0  0.132013  0  3.652271  0  0  0.101397  0  3.90172  0  0  0.112865  0  3.918928  0  0  0.049087  0.093681  0  3.891073  0
C  C38  1  0.73749371  0.24183761  0.95440660  1  0  -0.169254  0  3.677019  0  0  -0.187085  0  3.920455  0  0  -0.196984  0  3.941299  0  0  -0.084432  -0.180654  0  3.906786  0
C  C39  1  0.26250654  0.75817275  0.04559589  1  0  -0.169305  0  3.676752  0  0  -0.187166  0  3.920159  0  0  -0.197065  0  3.940998  0  0  -0.084359  -0.180721  0  3.906494  0
C  C40  1  0.77322787  0.35728027  0.91338827  1  0  0.164281  0  3.706512  0  0  0.180504  0  3.942655  0  0  0.187493  0  3.964904  0  0  0.016345  0.175475  0  3.927676  0
C  C41  1  0.22677044  0.64272439  0.08661454  1  0  0.164309  0  3.706562  0  0  0.180522  0  3.942778  0  0  0.187515  0  3.965039  0  0  0.016282  0.175496  0  3.927807  0
C  C42  1  0.95764898  0.42824818  0.92827148  1  0  -0.150649  0  3.666114  0  0  -0.189104  0  3.908015  0  0  -0.191804  0  3.919336  0  0  -0.154964  -0.186776  0  3.900468  0
C  C43  1  0.04235807  0.57177113  0.07173923  1  0  -0.150494  0  3.665835  0  0  -0.189172  0  3.907946  0  0  -0.191892  0  3.919294  0  0  -0.155087  -0.186847  0  3.900414  0
C  C44  1  0.63025514  0.40696803  0.86206106  1  0  -0.18182  0  3.712763  0  0  -0.198595  0  3.960596  0  0  -0.209253  0  3.982617  0  0  -0.084942  -0.1918  0  3.946209  0
C  C45  1  0.36974844  0.59304103  0.13794803  1  0  -0.182017  0  3.712819  0  0  -0.198731  0  3.960601  0  0  -0.209395  0  3.982622  0  0  -0.084911  -0.191903  0  3.946228  0
C  C46  1  0.46105216  0.34004517  0.85063321  1  0  0.115024  0  3.697223  0  0  0.085129  0  3.950449  0  0  0.095579  0  3.969439  0  0  0.044436  0.078298  0  3.93849  0
C  C47  1  0.53895259  0.65995589  0.14936850  1  0  0.115071  0  3.697049  0  0  0.085209  0  3.950243  0  0  0.095654  0  3.96923  0  0  0.044465  0.078405  0  3.938299  0
C  C48  1  0.76521165  0.80853466  0.85530635  1  0  0.627358  0  3.92579  0  0  0.579582  0  4.233806  0  0  0.618299  0  4.223207  0  0  0.219743  0.553703  0  4.239739  0
C  C49  1  0.23479775  0.19145723  0.14468171  1  0  0.627702  0  3.925885  0  0  0.579957  0  4.233857  0  0  0.618672  0  4.223253  0  0  0.219947  0.554083  0  4.239777  0
N  N50  1  0.42831264  0.22660712  0.88822492  1  0  -0.255291  0  3.384052  0  0  -0.198993  0  3.678056  0  0  -0.231015  0  3.69454  0  0  -0.341867  -0.180886  0  3.668401  0
N  N51  1  0.57168538  0.77339648  0.11177005  1  0  -0.255262  0  3.383959  0  0  -0.198991  0  3.678002  0  0  -0.230981  0  3.694438  0  0  -0.341889  -0.180848  0  3.66837  0
N  N52  1  0.83892234  0.95401906  0.73071319  1  0  0.214959  0  3.618033  0  0  0.262346  0  3.873275  0  0  0.264606  0  3.897023  0  0  -0.096909  0.259988  0  3.858035  0
N  N53  1  0.16107676  0.04596505  0.26927385  1  0  0.214931  0  3.618192  0  0  0.262293  0  3.873453  0  0  0.26455  0  3.897201  0  0  -0.096829  0.259945  0  3.858227  0
O  O54  1  0.11154088  0.15813532  0.70411996  1  0  -0.550374  0  2.2074  0  0  -0.52113  0  2.514506  0  0  -0.566471  0  2.501653  0  0  -0.301934  -0.491537  0  2.521616  0
O  O55  1  0.88845360  0.84186588  0.29589293  1  0  -0.550322  0  2.207205  0  0  -0.52111  0  2.514265  0  0  -0.566441  0  2.501415  0  0  -0.30184  -0.491499  0  2.521421  0
O  O56  1  0.89961764  0.16866571  0.53709902  1  0  -0.56824  0  1.936873  0  0  -0.528993  0  2.154084  0  0  -0.552636  0  2.143465  0  0  -0.298384  -0.511539  0  2.160509  0
O  O57  1  0.10037564  0.83133556  0.46290998  1  0  -0.568214  0  1.936963  0  0  -0.528996  0  2.15413  0  0  -0.552633  0  2.143504  0  0  -0.298433  -0.511532  0  2.16056  0
O  O58  1  0.97981456  0.01831045  0.84743344  1  0  -0.409979  0  2.024187  0  0  -0.389323  0  2.323914  0  0  -0.428744  0  2.321031  0  0  -0.200295  -0.364558  0  2.325541  0
O  O59  1  0.02019126  0.98164826  0.15254727  1  0  -0.410006  0  2.024496  0  0  -0.389308  0  2.324256  0  0  -0.428705  0  2.321332  0  0  -0.20026  -0.364524  0  2.325906  0
O  O60  1  0.20519159  0.78531771  0.70907283  1  0  -0.832585  0  1.719659  0  0  -0.798184  0  1.858019  0  0  -0.813985  0  1.828196  0  0  -0.607712  -0.786927  0  1.878769  0
O  O61  1  0.79481225  0.21465023  0.29091002  1  0  -0.832802  0  1.719437  0  0  -0.798401  0  1.857729  0  0  -0.814197  0  1.8279  0  0  -0.607841  -0.787144  0  1.878486  0
O  O62  1  0.71835789  0.88774394  0.96250361  1  0  -0.520095  0  2.106817  0  0  -0.48488  0  2.391756  0  0  -0.529136  0  2.38117  0  0  -0.283746  -0.45651  0  2.397942  0
O  O63  1  0.28163299  0.11224607  0.03748784  1  0  -0.520327  0  2.107003  0  0  -0.485129  0  2.391945  0  0  -0.5294  0  2.381371  0  0  -0.283828  -0.456773  0  2.398093  0
O  O64  1  0.84218524  0.70618046  0.84026411  1  0  -0.571571  0  1.908031  0  0  -0.536431  0  2.127289  0  0  -0.562218  0  2.117538  0  0  -0.297332  -0.518062  0  2.132865  0
O  O65  1  0.15785375  0.29381984  0.15973049  1  0  -0.571717  0  1.90822  0  0  -0.536544  0  2.127413  0  0  -0.562333  0  2.117659  0  0  -0.297403  -0.518184  0  2.132998  0
