# generated using pymatgen
data_Zn3H23C49Cl11O12
_symmetry_space_group_name_H-M   'P 1'
_cell_length_a   21.05791595
_cell_length_b   21.14957055
_cell_length_c   21.32167926
_cell_angle_alpha   60.77238947
_cell_angle_beta   61.28242698
_cell_angle_gamma   89.79865156
_symmetry_Int_Tables_number   1
_chemical_formula_structural   Zn3H23C49Cl11O12
_chemical_formula_sum   'Zn6 H46 C98 Cl22 O24'
_cell_volume   6928.43787012
_cell_formula_units_Z   2
loop_
 _symmetry_equiv_pos_site_id
 _symmetry_equiv_pos_as_xyz
  1  'x, y, z'
loop_
 _atom_site_type_symbol
 _atom_site_label
 _atom_site_symmetry_multiplicity
 _atom_site_fract_x
 _atom_site_fract_y
 _atom_site_fract_z
 _atom_site_occupancy
 _atom_site_pbe_bader_charge
 _atom_site_pbe_bader_spin_density
 _atom_site_pbe_cm5_charge
 _atom_site_pbe_ddec_charge
 _atom_site_pbe_ddec_spin_density
 _atom_site_pbe_ddec_sum_bond_order
 _atom_site_pbe_magmom
Zn  Zn0  1  0.42071381  0.00249032  0.08121072  1  1.310902  0  0.729806  0.961809  0  2.110504  0
Zn  Zn1  1  0.54999749  0.54381327  0.50152623  1  1.317238  0  0.734211  0.985261  0  2.079123  0
Zn  Zn2  1  0.46271351  0.45589752  0.49531598  1  1.314248  0  0.734414  0.985688  0  2.079639  0
Zn  Zn3  1  0.00047515  0.57312584  0.92381674  1  1.309913  0  0.733463  0.968901  0  2.093012  0
Zn  Zn4  1  0.53872783  0.00065158  0.95282882  1  1.304871  0  0.731544  0.952946  0  2.133675  0
Zn  Zn5  1  0.00833678  0.45135766  0.04273459  1  1.307118  0  0.733474  0.957324  0  2.111289  0
H  H6  1  0.61107843  0.92286033  0.08912609  1  0.123608  0  0.105594  0.128354  0  1.029861  0
H  H7  1  0.30789302  0.56142215  0.90321378  1  0.056893  0  0.086668  0.132543  0  1.014634  0
H  H8  1  0.24781513  0.49147413  0.01434325  1  0.069726  0  0.089362  0.136591  0  0.994286  0
H  H9  1  0.47757376  0.79923827  0.04454850  1  0.038726  0  0.088378  0.133525  0  1.012936  0
H  H10  1  0.46450034  0.71370725  0.05051050  1  0.029022  0  0.086514  0.131618  0  1.010885  0
H  H11  1  0.52431542  0.80002509  0.94951172  1  0.05098  0  0.089693  0.138581  0  0.996424  0
H  H12  1  0.21142510  0.52178353  0.94842780  1  0.031782  0  0.089056  0.13587  0  1.023459  0
H  H13  1  0.08534388  0.38740029  0.90169071  1  0.120122  0  0.10503  0.128115  0  1.037503  0
H  H14  1  0.99913471  0.41278925  0.88199332  1  0.015542  0  0.086519  0.122182  0  1.036303  0
H  H15  1  0.98415358  0.40530310  0.81097670  1  0.046114  0  0.089485  0.136595  0  0.999608  0
H  H16  1  0.97364247  0.48485591  0.81864034  1  0.054983  0  0.090925  0.143992  0  0.996051  0
H  H17  1  0.57568755  0.00485948  0.12877430  1  0.017715  0  0.08585  0.124001  0  1.023767  0
H  H18  1  0.57951901  0.03174821  0.19358755  1  0.047466  0  0.08918  0.134793  0  0.99823  0
H  H19  1  0.50576399  0.04223930  0.17465669  1  0.089354  0  0.089776  0.142564  0  1.000079  0
H  H20  1  0.73409038  0.24182795  0.22272685  1  0.043908  0  0.088296  0.136284  0  1.009873  0
H  H21  1  0.82224944  0.30953342  0.16573564  1  0.076779  0  0.091943  0.144164  0  1.020155  0
H  H22  1  0.73920187  0.33815427  0.18397466  1  0.04297  0  0.088782  0.134603  0  0.999207  0
H  H23  1  0.79288948  0.23965060  0.77754374  1  0.049449  0  0.085436  0.131928  0  1.02094  0
H  H24  1  0.72575342  0.15019361  0.83688039  1  0.085511  0  0.0934  0.148892  0  1.021476  0
H  H25  1  0.70259274  0.23486614  0.79218185  1  0.045786  0  0.091192  0.13797  0  0.989446  0
H  H26  1  0.27826052  0.01245554  0.93051923  1  0.041472  0  0.096222  0.131564  0  1.008323  0
H  H27  1  0.35094403  0.97722085  0.94052813  1  0.062283  0  0.09167  0.128151  0  1.038054  0
H  H28  1  0.32289486  0.04589048  0.96502175  1  0.057255  0  0.09358  0.13623  0  1.025677  0
H  H29  1  0.02612192  0.62590217  0.13275265  1  0.037726  0  0.093528  0.128512  0  1.029797  0
H  H30  1  0.01940776  0.54491421  0.12930785  1  0.072373  0  0.095196  0.141567  0  1.02405  0
H  H31  1  0.62545881  0.67076581  0.27285378  1  0.106456  0  0.101339  0.126345  0  1.032075  0
H  H32  1  0.98410417  0.61790628  0.08167831  1  0.031809  0  0.090786  0.124823  0  1.040553  0
H  H33  1  0.29316947  0.99470817  0.83059300  1  0.040766  0  0.096417  0.133672  0  0.98546  0
H  H34  1  0.36898092  0.00230893  0.73760952  1  0.058703  0  0.086418  0.127144  0  1.032105  0
H  H35  1  0.36687386  0.95696110  0.83451880  1  0.065107  0  0.09901  0.142228  0  0.982076  0
H  H36  1  0.34449715  0.38595790  0.72156125  1  0.130002  0  0.101734  0.125648  0  1.032862  0
H  H37  1  0.01935763  0.59966983  0.24705105  1  0.041073  0  0.097903  0.13609  0  0.982996  0
H  H38  1  0.98356835  0.51242917  0.34717252  1  0.071328  0  0.085803  0.126758  0  1.037231  0
H  H39  1  0.02938018  0.51556162  0.25014968  1  0.040316  0  0.101195  0.144579  0  0.97396  0
H  H40  1  0.13631142  0.79892167  0.89018004  1  0.023899  0  0.093828  0.132447  0  1.009238  0
H  H41  1  0.14790734  0.73954522  0.85140432  1  0.044396  0  0.096043  0.144762  0  0.989739  0
H  H42  1  0.06125888  0.71656978  0.94402876  1  0.055666  0  0.093083  0.135061  0  1.007067  0
H  H43  1  0.18437099  0.81781714  0.16277074  1  0.03353  0  0.093777  0.13263  0  1.006809  0
H  H44  1  0.26314813  0.82908791  0.17058152  1  0.060217  0  0.090593  0.138044  0  1.008473  0
H  H45  1  0.25124878  0.90894550  0.09960018  1  0.065289  0  0.095497  0.13928  0  0.998152  0
H  H46  1  0.08640116  0.84169342  0.97246060  1  0.029731  0  0.094717  0.126284  0  0.990751  0
H  H47  1  0.04693141  0.74219648  0.03337699  1  0.049423  0  0.092407  0.128861  0  1.046682  0
H  H48  1  0.04623505  0.78761246  0.08412723  1  0.047044  0  0.093352  0.129103  0  0.997098  0
H  H49  1  0.10693973  0.84308660  0.11937707  1  0.059923  0  0.095869  0.128191  0  0.989224  0
H  H50  1  0.19756265  0.91103403  0.04022515  1  0.039737  0  0.091716  0.125791  0  1.057932  0
H  H51  1  0.13561328  0.89906667  0.01090813  1  0.050757  0  0.092762  0.126296  0  1.005311  0
C  C52  1  0.46723985  0.88840978  0.15364957  1  1.576786  0  0.219716  0.614161  0  4.141075  0
C  C53  1  0.18876914  0.81061427  0.03654843  1  -0.001859  0  -0.013578  0.062591  0  3.928638  0
C  C54  1  0.91438090  0.54700316  0.22100812  1  -0.002924  0  -0.007927  0.079048  0  3.905458  0
C  C55  1  0.39719335  0.07950596  0.76585835  1  0.019004  0  -0.009659  0.07149  0  3.930008  0
C  C56  1  0.91580574  0.52480880  0.29361951  1  0.06218  0  -0.010522  0.070528  0  3.932198  0
C  C57  1  0.44723318  0.13943894  0.67806844  1  0.025393  0  0.008155  0.032316  0  4.02668  0
C  C58  1  0.84619640  0.48782459  0.37495628  1  0.063228  0  0.005998  0.030026  0  4.041417  0
C  C59  1  0.47765821  0.21176791  0.65422137  1  0.168828  0  0.004421  0.0328  0  4.021032  0
C  C60  1  0.15574245  0.77681611  0.01360659  1  -0.061643  0  -0.015212  0.054024  0  3.933952  0
C  C61  1  0.77696876  0.48023922  0.38226913  1  0.130882  0  0.002974  0.025016  0  4.037896  0
C  C62  1  0.45937166  0.22671659  0.71843162  1  0.078503  0  -0.005508  0.020815  0  3.971727  0
C  C63  1  0.77448489  0.51098066  0.30738318  1  0.035986  0  -0.004258  0.021487  0  3.965089  0
C  C64  1  0.42512184  0.16239643  0.80458434  1  0.021866  0  -0.001414  0.020665  0  3.953254  0
C  C65  1  0.84413714  0.53552084  0.22748618  1  0.027564  0  -0.000457  0.019908  0  3.924961  0
C  C66  1  0.43208595  0.17274789  0.86313714  1  0.020917  0  -0.011816  -0.107802  0  3.895088  0
C  C67  1  0.83927982  0.54598654  0.15795113  1  0.025715  0  -0.013374  -0.110116  0  3.88083  0
C  C68  1  0.45369853  0.24491921  0.84327202  1  0.119491  0  0.00831  0.057405  0  4.053428  0
C  C69  1  0.77072975  0.54495741  0.16390267  1  0.093541  0  0.012555  0.065062  0  4.040617  0
C  C70  1  0.46646436  0.30957923  0.76575913  1  0.092506  0  0.01505  0.073002  0  4.018821  0
C  C71  1  0.39064554  0.68760210  0.97490110  1  0.115861  0  0.003872  0.039365  0  4.010815  0
C  C72  1  0.70547525  0.53728869  0.23679864  1  0.130625  0  0.011802  0.065089  0  4.027883  0
C  C73  1  0.59249251  0.08831539  0.98369102  1  1.520438  0  0.229243  0.625258  0  4.084793  0
C  C74  1  0.91155360  0.40811752  0.01229535  1  1.53316  0  0.230802  0.631638  0  4.099491  0
C  C75  1  0.47290657  0.30138195  0.70218948  1  0.037455  0  -0.019321  -0.11925  0  3.902971  0
C  C76  1  0.70627107  0.51823970  0.30855870  1  0.043144  0  -0.015049  -0.104343  0  3.901939  0
C  C77  1  0.34723069  0.63946654  0.97396630  1  0.077853  0  0.004732  0.037842  0  4.009311  0
C  C78  1  0.63672589  0.51339536  0.38270359  1  1.580332  0  0.211581  0.603475  0  4.185933  0
C  C79  1  0.48280877  0.36918228  0.62291309  1  1.565167  0  0.211167  0.601258  0  4.166268  0
C  C80  1  0.48504546  0.60146691  0.38538688  1  1.581891  0  0.220013  0.617841  0  4.147014  0
C  C81  1  0.40608584  0.52606064  0.60710662  1  1.578521  0  0.217888  0.613941  0  4.149888  0
C  C82  1  0.23207582  0.60437730  0.97325641  1  0.029155  0  0.001523  0.133364  0  3.880416  0
C  C83  1  0.40166825  0.78479923  0.00875947  1  0.055439  0  0.003047  0.13858  0  3.875465  0
C  C84  1  0.17164933  0.62789458  0.96657369  1  -0.055751  0  -0.018547  -0.156679  0  3.911768  0
C  C85  1  0.36696728  0.83351210  0.03221331  1  -0.040046  0  -0.020521  -0.161719  0  3.920198  0
C  C86  1  0.15857151  0.69626619  0.95806046  1  0.009243  0  0.00689  0.134922  0  3.883601  0
C  C87  1  0.29030081  0.82910735  0.06065946  1  -0.023044  0  0.00565  0.12819  0  3.896153  0
C  C88  1  0.18838407  0.72699793  0.98790455  1  0.034056  0  -0.010708  -0.046027  0  3.978356  0
C  C89  1  0.25616270  0.79614896  0.03568629  1  0.047166  0  -0.012023  -0.051181  0  3.973336  0
C  C90  1  0.25192026  0.70723828  0.99265685  1  -0.005873  0  -0.000181  0.009656  0  3.937677  0
C  C91  1  0.29068022  0.74830521  0.00784085  1  -0.043331  0  0.000542  0.011997  0  3.935533  0
C  C92  1  0.25043357  0.54106997  0.95985816  1  -0.045735  0  -0.2527  -0.419893  0  3.982248  0
C  C93  1  0.61221668  0.86722456  0.13104295  1  0.04486  0  -0.09577  -0.182886  0  3.940413  0
C  C94  1  0.47118256  0.77439654  0.01258151  1  -0.007652  0  -0.252406  -0.418511  0  3.982932  0
C  C95  1  0.96360763  0.42324370  0.85572952  1  -0.035393  0  -0.249581  -0.419422  0  3.974343  0
C  C96  1  0.56639244  0.04737449  0.14498646  1  -0.041463  0  -0.250107  -0.417991  0  3.977651  0
C  C97  1  0.76949332  0.30012461  0.16887841  1  -0.048263  0  -0.252733  -0.428218  0  3.972591  0
C  C98  1  0.73264097  0.20743750  0.82356674  1  -0.072606  0  -0.254441  -0.432734  0  3.983852  0
C  C99  1  0.14262253  0.38924991  0.86069472  1  0.067229  0  -0.09596  -0.181308  0  3.940552  0
C  C100  1  0.33322865  0.02878479  0.92101517  1  -0.088994  0  -0.244003  -0.410499  0  3.96435  0
C  C101  1  0.98932990  0.58572936  0.13671421  1  -0.059487  0  -0.248894  -0.421485  0  3.979712  0
C  C102  1  0.35493603  0.00467091  0.79274259  1  -0.067969  0  -0.236313  -0.39165  0  3.956098  0
C  C103  1  0.99061067  0.53836479  0.28469748  1  -0.050942  0  -0.236996  -0.395169  0  3.962144  0
C  C104  1  0.12304956  0.73984886  0.90970350  1  -0.018742  0  -0.241138  -0.410629  0  3.958613  0
C  C105  1  0.24464396  0.84820069  0.12594222  1  -0.063927  0  -0.241722  -0.408079  0  3.955007  0
C  C106  1  0.08039790  0.78752598  0.02586287  1  -0.073221  0  -0.240235  -0.405772  0  3.987702  0
C  C107  1  0.15591075  0.86864392  0.05295445  1  -0.104944  0  -0.241787  -0.408745  0  3.991941  0
C  C108  1  0.11314173  0.53138724  0.84129780  1  1.573352  0  0.219293  0.61591  0  4.132597  0
C  C109  1  0.68202075  0.85719514  0.11447659  1  0.075587  0  0.009338  0.097403  0  4.057898  0
C  C110  1  0.15693257  0.32093088  0.87751342  1  0.029965  0  0.008981  0.096045  0  4.062802  0
C  C111  1  0.68646967  0.78452960  0.16561702  1  0.081013  0  0.008218  0.096052  0  4.056852  0
C  C112  1  0.23163262  0.31998372  0.82776186  1  0.105641  0  0.008668  0.09421  0  4.059843  0
C  C113  1  0.62067520  0.72524284  0.23347892  1  0.049936  0  -0.095928  -0.183028  0  3.952889  0
C  C114  1  0.28833784  0.38783374  0.76043268  1  0.054464  0  -0.09493  -0.179626  0  3.946958  0
C  C115  1  0.54821156  0.73448052  0.25258090  1  0.012503  0  0.000311  0.078732  0  3.960462  0
C  C116  1  0.27452503  0.45874816  0.74089040  1  0.048688  0  -0.000716  0.076559  0  3.964379  0
C  C117  1  0.54369015  0.80666167  0.19897606  1  -0.012352  0  0.000855  0.081327  0  3.954309  0
C  C118  1  0.20046961  0.45991587  0.79386539  1  -0.017405  0  0.001425  0.083282  0  3.949479  0
C  C119  1  0.47059450  0.81542878  0.21610693  1  0.039046  0  -0.012234  -0.117497  0  3.894268  0
C  C120  1  0.18736564  0.53169677  0.77723995  1  0.071322  0  -0.013631  -0.12136  0  3.882872  0
C  C121  1  0.41429795  0.89655476  0.01946956  1  1.506057  0  0.219339  0.601464  0  4.12768  0
C  C122  1  0.11362028  0.57752948  0.97585709  1  1.520177  0  0.224367  0.610138  0  4.119452  0
C  C123  1  0.40515255  0.75455791  0.28453013  1  0.076743  0  0.018318  0.073712  0  4.025566  0
C  C124  1  0.27693619  0.64826789  0.97984737  1  0.000306  0  -0.012968  -0.041457  0  3.959028  0
C  C125  1  0.24615701  0.59900967  0.70868954  1  0.092416  0  0.01953  0.077634  0  4.021826  0
C  C126  1  0.40972988  0.68331944  0.33971105  1  0.143395  0  0.01371  0.064461  0  4.039381  0
C  C127  1  0.31908066  0.59750035  0.65335010  1  0.074606  0  0.012233  0.060614  0  4.040393  0
C  C128  1  0.47976526  0.67335615  0.32351891  1  0.041734  0  -0.009571  -0.10532  0  3.90262  0
C  C129  1  0.33311348  0.52895713  0.66962514  1  0.024793  0  -0.007667  -0.100639  0  3.899625  0
C  C130  1  0.36257571  0.74031558  0.99783007  1  0.013498  0  -0.014732  -0.044142  0  3.972135  0
C  C131  1  0.88172219  0.37899806  0.92844526  1  0.090475  0  -0.000122  0.129096  0  3.911088  0
C  C132  1  0.61785839  0.12522996  0.06525046  1  -0.009111  0  0.003221  0.136004  0  3.89564  0
C  C133  1  0.85832411  0.36303720  0.00993722  1  -0.039511  0  -0.014681  -0.142688  0  3.891657  0
C  C134  1  0.64177749  0.13944305  0.98407628  1  0.018085  0  -0.016551  -0.15244  0  3.883529  0
C  C135  1  0.78660212  0.31459819  0.08489953  1  0.020551  0  0.002597  0.133367  0  3.902127  0
C  C136  1  0.70247928  0.20294189  0.90613783  1  0.053025  0  0.00351  0.137479  0  3.897018  0
C  C137  1  0.73554671  0.27908239  0.07773111  1  0.003094  0  -0.010352  -0.034339  0  3.963821  0
C  C138  1  0.73708424  0.25760150  0.90971200  1  0.038969  0  -0.011972  -0.038207  0  3.966024  0
C  C139  1  0.75877566  0.29109124  0.99652568  1  0.019765  0  0.00279  0.018975  0  3.92959  0
C  C140  1  0.71453822  0.24465144  0.99106086  1  -0.039446  0  0.004154  0.022889  0  3.931622  0
C  C141  1  0.82925278  0.34703433  0.92062829  1  0.026047  0  -0.010397  -0.030838  0  3.9778  0
C  C142  1  0.65035021  0.18125679  0.06827712  1  0.043335  0  -0.012436  -0.034131  0  3.976228  0
C  C143  1  0.65798414  0.23198011  0.14760173  1  0.102144  0  0.004336  0.035755  0  4.022789  0
C  C144  1  0.79303090  0.33007452  0.83462711  1  0.073064  0  0.004457  0.035651  0  4.024163  0
C  C145  1  0.43763824  0.10753258  0.93270137  1  1.602525  0  0.225634  0.62406  0  4.141146  0
C  C146  1  0.90253929  0.54242527  0.08593885  1  1.574311  0  0.221971  0.61538  0  4.154802  0
C  C147  1  0.61879704  0.18280095  0.14448574  1  0.067272  0  0.003284  0.031634  0  4.027123  0
C  C148  1  0.83890523  0.37127223  0.83944727  1  0.100506  0  0.002976  0.031854  0  4.026433  0
C  C149  1  0.38823378  0.09092828  0.82843600  1  0.030702  0  -0.009383  0.074761  0  3.911395  0
Cl  Cl150  1  0.32725508  0.61170331  0.42866374  1  -0.164897  0  0.003762  -0.040412  0  1.559605  0
Cl  Cl151  1  0.89822277  0.46088184  0.75002750  1  -0.190412  0  0.002821  -0.060072  0  1.602016  0
Cl  Cl152  1  0.52430667  0.13417236  0.22625098  1  -0.183465  0  0.003552  -0.058921  0  1.608142  0
Cl  Cl153  1  0.47000901  0.25844217  0.90821626  1  -0.163942  0  0.003288  -0.040471  0  1.538494  0
Cl  Cl154  1  0.76047158  0.54787532  0.08723235  1  -0.16825  0  0.004916  -0.039751  0  1.563008  0
Cl  Cl155  1  0.47048733  0.12297996  0.59901168  1  -0.190907  0  -0.006164  -0.067701  0  1.533995  0
Cl  Cl156  1  0.84667490  0.45154553  0.46696359  1  -0.194526  0  -0.00569  -0.067979  0  1.546878  0
Cl  Cl157  1  0.38824703  0.68166554  0.56419556  1  -0.163064  0  0.003331  -0.04144  0  1.551668  0
Cl  Cl158  1  0.54357147  0.28021769  0.54758327  1  -0.162205  0  0.005744  -0.034867  0  1.690348  0
Cl  Cl159  1  0.69508178  0.42755778  0.48311250  1  -0.153582  0  0.013555  -0.022385  0  1.754922  0
Cl  Cl160  1  0.47047676  0.39485957  0.75706778  1  -0.15829  0  0.011959  -0.026503  0  1.611614  0
Cl  Cl161  1  0.62733896  0.55367449  0.23197854  1  -0.169917  0  0.01404  -0.027519  0  1.617989  0
Cl  Cl162  1  0.48289068  0.68507872  0.94155850  1  -0.187562  0  0.007837  -0.058943  0  1.650121  0
Cl  Cl163  1  0.38338531  0.56948658  0.96267159  1  -0.188673  0  0.007719  -0.05844  0  1.648199  0
Cl  Cl164  1  0.31720106  0.76104744  0.30281187  1  -0.157413  0  0.006028  -0.042664  0  1.574816  0
Cl  Cl165  1  0.23558529  0.68588682  0.68999325  1  -0.159002  0  0.004664  -0.040216  0  1.56904  0
Cl  Cl166  1  0.76298920  0.93325732  0.03136229  1  -0.188695  0  -0.016061  -0.075048  0  1.458848  0
Cl  Cl167  1  0.08355500  0.23749668  0.95935962  1  -0.195617  0  -0.017159  -0.077394  0  1.45845  0
Cl  Cl168  1  0.77299507  0.76936629  0.14385839  1  -0.18994  0  -0.013975  -0.069115  0  1.47282  0
Cl  Cl169  1  0.25215074  0.23550777  0.85005369  1  -0.193984  0  -0.005565  -0.05997  0  1.514856  0
Cl  Cl170  1  0.60878654  0.24553857  0.22998619  1  -0.182905  0  0.007587  -0.057504  0  1.611681  0
Cl  Cl171  1  0.79344925  0.37277006  0.74156173  1  -0.188188  0  0.004758  -0.060015  0  1.615543  0
O  O172  1  0.41961162  0.92096854  0.18126130  1  -1.127689  0  -0.311423  -0.523845  0  2.257904  0
O  O173  1  0.46965113  0.55536364  0.59082308  1  -1.121642  0  -0.311434  -0.526346  0  2.247517  0
O  O174  1  0.45545018  0.53764366  0.40271204  1  -1.11916  0  -0.312333  -0.528034  0  2.262035  0
O  O175  1  0.51993303  0.61099474  0.41611372  1  -1.1617  0  -0.303258  -0.555071  0  2.360275  0
O  O176  1  0.39734798  0.49248469  0.57504617  1  -1.157824  0  -0.303287  -0.558392  0  2.357813  0
O  O177  1  0.51328635  0.91301300  0.07511807  1  -1.171291  0  -0.303964  -0.566994  0  2.375332  0
O  O178  1  0.08870020  0.48097129  0.91929459  1  -1.180644  0  -0.30909  -0.5744  0  2.40518  0
O  O179  1  0.07928468  0.57953934  0.81728664  1  -1.127876  0  -0.310363  -0.525218  0  2.243898  0
O  O180  1  0.38447586  0.92186674  0.06680312  1  -1.164649  0  -0.307229  -0.568387  0  2.401615  0
O  O181  1  0.08800866  0.60768157  0.92853580  1  -1.158711  0  -0.304975  -0.560764  0  2.420794  0
O  O182  1  0.48384450  0.92655487  0.95376190  1  -1.131393  0  -0.31376  -0.518086  0  2.264481  0
O  O183  1  0.08772606  0.50630465  0.03751664  1  -1.140462  0  -0.313365  -0.532228  0  2.264061  0
O  O184  1  0.39092490  0.08257282  0.01217465  1  -1.131789  0  -0.311824  -0.528806  0  2.254813  0
O  O185  1  0.92856063  0.59598368  0.00772922  1  -1.131803  0  -0.313617  -0.54088  0  2.280934  0
O  O186  1  0.49304350  0.08375341  0.90337300  1  -1.160836  0  -0.301467  -0.546912  0  2.30646  0
O  O187  1  0.92286503  0.48278923  0.11041778  1  -1.159976  0  -0.303894  -0.544708  0  2.310859  0
O  O188  1  0.52153508  0.07667884  0.03002098  1  -1.170383  0  -0.305467  -0.564824  0  2.354173  0
O  O189  1  0.92262113  0.47951315  0.96984899  1  -1.152227  0  -0.306533  -0.560399  0  2.329136  0
O  O190  1  0.62125026  0.06066087  0.93745306  1  -1.124354  0  -0.306482  -0.520442  0  2.267596  0
O  O191  1  0.94194789  0.37481673  0.05472878  1  -1.133543  0  -0.307356  -0.525682  0  2.239195  0
O  O192  1  0.57430991  0.46720278  0.41702183  1  -1.160163  0  -0.311558  -0.572059  0  2.411561  0
O  O193  1  0.53201109  0.43088295  0.58513117  1  -1.170358  0  -0.312076  -0.575132  0  2.4484  0
O  O194  1  0.64593024  0.55972987  0.40238853  1  -1.12378  0  -0.313178  -0.526147  0  2.27124  0
O  O195  1  0.43797823  0.36066677  0.60076378  1  -1.120778  0  -0.311768  -0.525453  0  2.290202  0
