# generated using pymatgen
data_ZnH12C14(NO2)2
_symmetry_space_group_name_H-M   'P 1'
_cell_length_a   8.89348395
_cell_length_b   15.94272611
_cell_length_c   19.33173810
_cell_angle_alpha   90.00036975
_cell_angle_beta   89.99987614
_cell_angle_gamma   89.99981320
_symmetry_Int_Tables_number   1
_chemical_formula_structural   ZnH12C14(NO2)2
_chemical_formula_sum   'Zn8 H96 C112 N16 O32'
_cell_volume   2740.97713996
_cell_formula_units_Z   8
loop_
 _symmetry_equiv_pos_site_id
 _symmetry_equiv_pos_as_xyz
  1  'x, y, z'
loop_
 _atom_site_type_symbol
 _atom_site_label
 _atom_site_symmetry_multiplicity
 _atom_site_fract_x
 _atom_site_fract_y
 _atom_site_fract_z
 _atom_site_occupancy
 _atom_site_pbe_bader_charge
 _atom_site_pbe_bader_spin_density
 _atom_site_pbe_cm5_charge
 _atom_site_pbe_ddec_charge
 _atom_site_pbe_ddec_spin_density
 _atom_site_pbe_ddec_sum_bond_order
 _atom_site_pbe_magmom
Zn  Zn0  1  0.53579769  0.44347522  0.51415386  1  1.230271  0  0.697412  0.84534  0  2.217256  0
Zn  Zn1  1  0.46420564  0.55652490  0.01415622  1  1.230187  0  0.697405  0.845349  0  2.217278  0
Zn  Zn2  1  0.03579084  0.55652598  0.51415390  1  1.230267  0  0.69738  0.845301  0  2.217323  0
Zn  Zn3  1  0.96420349  0.44347539  0.01415410  1  1.230241  0  0.697391  0.845334  0  2.217226  0
Zn  Zn4  1  0.69977909  0.94264778  0.57507565  1  1.231714  0  0.696748  0.845098  0  2.220894  0
Zn  Zn5  1  0.30021609  0.05735282  0.07507706  1  1.231771  0  0.696802  0.84521  0  2.220837  0
Zn  Zn6  1  0.19978637  0.05735360  0.57507561  1  1.231588  0  0.69681  0.84524  0  2.220775  0
Zn  Zn7  1  0.80021893  0.94264763  0.07507814  1  1.231785  0  0.69676  0.845175  0  2.220791  0
H  H8  1  0.44039843  0.86644079  0.56099097  1  0.44578  0  0.302328  0.299995  0  0.945394  0
H  H9  1  0.55959907  0.13355656  0.06099614  1  0.445733  0  0.302315  0.299936  0  0.945398  0
H  H10  1  0.94040370  0.13356128  0.56099651  1  0.445699  0  0.302359  0.299991  0  0.945339  0
H  H11  1  0.05960167  0.86644297  0.06099422  1  0.445741  0  0.302363  0.299978  0  0.945364  0
H  H12  1  0.46259550  0.94040217  0.50136020  1  0.51465  0  0.290266  0.302307  0  1.004305  0
H  H13  1  0.53740339  0.05959597  0.00136448  1  0.514667  0  0.290324  0.302306  0  1.004313  0
H  H14  1  0.96259558  0.05959877  0.50136483  1  0.514694  0  0.290299  0.302292  0  1.004271  0
H  H15  1  0.03740331  0.94040188  0.00136192  1  0.51466  0  0.290302  0.302301  0  1.004229  0
H  H16  1  0.17179252  0.06631809  0.70594955  1  0.440008  0  0.307625  0.307001  0  0.923648  0
H  H17  1  0.82820994  0.93368226  0.20595304  1  0.439944  0  0.307608  0.306925  0  0.923624  0
H  H18  1  0.67178979  0.93368310  0.70595162  1  0.439921  0  0.307604  0.306929  0  0.923672  0
H  H19  1  0.32820817  0.06631852  0.20595149  1  0.439983  0  0.307626  0.306971  0  0.92365  0
H  H20  1  0.34533190  0.09662947  0.68112094  1  0.49211  0  0.292938  0.304669  0  0.973842  0
H  H21  1  0.65467292  0.90336819  0.18112341  1  0.492167  0  0.29293  0.304621  0  0.973908  0
H  H22  1  0.84532597  0.90336933  0.68111974  1  0.492186  0  0.292907  0.304575  0  0.974  0
H  H23  1  0.15467098  0.09663334  0.18112202  1  0.492156  0  0.292934  0.304643  0  0.973819  0
H  H24  1  0.79951231  0.37002334  0.52389864  1  0.444964  0  0.300767  0.29863  0  0.949353  0
H  H25  1  0.20049210  0.62997686  0.02390114  1  0.445036  0  0.300746  0.298587  0  0.949371  0
H  H26  1  0.29950728  0.62997620  0.52389752  1  0.444949  0  0.300721  0.298568  0  0.949407  0
H  H27  1  0.70048814  0.37002462  0.02389916  1  0.444995  0  0.300716  0.29858  0  0.949396  0
H  H28  1  0.77859327  0.44223458  0.58508424  1  0.519496  0  0.290191  0.300983  0  1.003573  0
H  H29  1  0.22140861  0.55776546  0.08508530  1  0.51956  0  0.29019  0.300968  0  1.003609  0
H  H30  1  0.27858866  0.55776610  0.58508273  1  0.519547  0  0.290186  0.300998  0  1.003578  0
H  H31  1  0.72140647  0.44223520  0.08508473  1  0.519504  0  0.290213  0.301001  0  1.003563  0
H  H32  1  0.39104938  0.40210372  0.40689704  1  0.499553  0  0.294006  0.305663  0  0.973617  0
H  H33  1  0.60894654  0.59789694  0.90689957  1  0.499602  0  0.293993  0.305617  0  0.973637  0
H  H34  1  0.89105534  0.59789788  0.40689731  1  0.499623  0  0.294019  0.305694  0  0.973634  0
H  H35  1  0.10894508  0.40210027  0.90689775  1  0.499608  0  0.293965  0.305549  0  0.973664  0
H  H36  1  0.56517346  0.43277326  0.38385616  1  0.453063  0  0.306936  0.306503  0  0.925085  0
H  H37  1  0.43482257  0.56722723  0.88386026  1  0.45287  0  0.306937  0.306475  0  0.925163  0
H  H38  1  0.06518004  0.56722751  0.38385937  1  0.453275  0  0.306946  0.306542  0  0.92508  0
H  H39  1  0.93482273  0.43277109  0.88385758  1  0.453087  0  0.306922  0.306399  0  0.925227  0
H  H40  1  0.52397245  0.72018334  0.53984552  1  0.099785  0  0.106012  0.119991  0  1.017552  0
H  H41  1  0.47602852  0.27981573  0.03985052  1  0.099677  0  0.106006  0.119965  0  1.017593  0
H  H42  1  0.02396832  0.27981997  0.53984718  1  0.099606  0  0.105964  0.119949  0  1.017578  0
H  H43  1  0.97602702  0.72018349  0.03984886  1  0.099716  0  0.106008  0.120016  0  1.017596  0
H  H44  1  0.68736460  0.66986477  0.33419333  1  0.089546  0  0.103752  0.107219  0  1.011286  0
H  H45  1  0.31263615  0.33012780  0.83419783  1  0.089735  0  0.103772  0.107293  0  1.011212  0
H  H46  1  0.18736468  0.33012723  0.33419474  1  0.089684  0  0.103763  0.107246  0  1.011271  0
H  H47  1  0.81263270  0.66986786  0.83419642  1  0.089684  0  0.10376  0.107252  0  1.011279  0
H  H48  1  0.68632187  0.82297337  0.30875319  1  0.05248  0  0.09899  0.095814  0  1.024503  0
H  H49  1  0.31368461  0.17701963  0.80875791  1  0.052582  0  0.099041  0.0959  0  1.024494  0
H  H50  1  0.18631834  0.17701843  0.30875637  1  0.052541  0  0.099051  0.095905  0  1.024382  0
H  H51  1  0.81367690  0.82297645  0.80875731  1  0.052518  0  0.099018  0.095873  0  1.024493  0
H  H52  1  0.60278381  0.92484157  0.39892491  1  0.116429  0  0.109856  0.126577  0  1.003606  0
H  H53  1  0.39722002  0.07515339  0.89893003  1  0.116364  0  0.1098  0.126559  0  1.003534  0
H  H54  1  0.10278312  0.07515485  0.39893013  1  0.116392  0  0.109826  0.126566  0  1.003552  0
H  H55  1  0.89721509  0.92484262  0.89892895  1  0.11643  0  0.109832  0.12657  0  1.003559  0
H  H56  1  0.35640043  0.23789173  0.61246013  1  0.121858  0  0.107466  0.129021  0  1.032067  0
H  H57  1  0.64360246  0.76210477  0.11246651  1  0.121919  0  0.107463  0.128968  0  1.032107  0
H  H58  1  0.85639644  0.76210338  0.61246438  1  0.121852  0  0.107442  0.128987  0  1.032027  0
H  H59  1  0.14360195  0.23789249  0.11246329  1  0.121853  0  0.107473  0.128991  0  1.032129  0
H  H60  1  0.05593365  0.42467029  0.69456618  1  0.090004  0  0.101683  0.111539  0  1.012378  0
H  H61  1  0.94407786  0.57532872  0.19456608  1  0.089925  0  0.101683  0.111575  0  1.012352  0
H  H62  1  0.55591612  0.57533165  0.69456581  1  0.089995  0  0.101702  0.1116  0  1.012325  0
H  H63  1  0.44407289  0.42467113  0.19456231  1  0.0898  0  0.101689  0.111545  0  1.012355  0
H  H64  1  0.91056292  0.31156612  0.75416898  1  0.086014  0  0.093777  0.090623  0  1.047614  0
H  H65  1  0.08945056  0.68843461  0.25416622  1  0.085867  0  0.093823  0.090696  0  1.047617  0
H  H66  1  0.41054631  0.68844002  0.75416714  1  0.08586  0  0.093803  0.09064  0  1.047694  0
H  H67  1  0.58944468  0.31156824  0.25416599  1  0.085947  0  0.093778  0.090661  0  1.047618  0
H  H68  1  0.99462266  0.16420101  0.74840599  1  0.079769  0  0.104445  0.116372  0  0.99455  0
H  H69  1  0.00538860  0.83579842  0.24840722  1  0.079698  0  0.104419  0.116333  0  0.994482  0
H  H70  1  0.49461306  0.83580305  0.74840650  1  0.079662  0  0.104427  0.116348  0  0.994576  0
H  H71  1  0.50538470  0.16420391  0.24840775  1  0.079769  0  0.104438  0.116325  0  0.99453  0
H  H72  1  0.71889861  0.22209835  0.54450791  1  0.063118  0  0.104384  0.117074  0  1.027441  0
H  H73  1  0.28110233  0.77790138  0.04451113  1  0.063232  0  0.104393  0.117105  0  1.027498  0
H  H74  1  0.21889385  0.77790275  0.54450863  1  0.063132  0  0.104357  0.117062  0  1.027499  0
H  H75  1  0.78109922  0.22210012  0.04450783  1  0.063109  0  0.104358  0.117026  0  1.027503  0
H  H76  1  0.55679647  0.16956625  0.74943304  1  0.076775  0  0.098433  0.094843  0  1.042936  0
H  H77  1  0.44320691  0.83043696  0.24943689  1  0.076639  0  0.098456  0.094852  0  1.042881  0
H  H78  1  0.05679028  0.83043737  0.74943455  1  0.076698  0  0.098441  0.094824  0  1.042922  0
H  H79  1  0.94320636  0.16956521  0.24943176  1  0.076562  0  0.098444  0.094859  0  1.042898  0
H  H80  1  0.55949682  0.32281116  0.77687278  1  0.055072  0  0.099733  0.094267  0  1.026295  0
H  H81  1  0.44051094  0.67719226  0.27687478  1  0.054868  0  0.099706  0.094228  0  1.026367  0
H  H82  1  0.05948814  0.67719267  0.77687140  1  0.054951  0  0.099686  0.094187  0  1.026453  0
H  H83  1  0.94050949  0.32281075  0.27687306  1  0.05507  0  0.099695  0.094203  0  1.026341  0
H  H84  1  0.64472654  0.42514769  0.68757427  1  0.111262  0  0.10875  0.125038  0  1.008919  0
H  H85  1  0.35527937  0.57485504  0.18757735  1  0.111298  0  0.108749  0.125055  0  1.0089  0
H  H86  1  0.14471958  0.57485529  0.68757337  1  0.111343  0  0.108776  0.125137  0  1.008832  0
H  H87  1  0.85527396  0.42514681  0.18757514  1  0.111284  0  0.108742  0.125034  0  1.009002  0
H  H88  1  0.37365376  0.26005928  0.47398272  1  0.122159  0  0.105927  0.124615  0  1.037015  0
H  H89  1  0.62634298  0.73994065  0.97398703  1  0.121897  0  0.105939  0.124595  0  1.037075  0
H  H90  1  0.87365665  0.73994287  0.47398530  1  0.121939  0  0.105926  0.124603  0  1.037067  0
H  H91  1  0.12634122  0.26005643  0.97398393  1  0.122  0  0.105912  0.124612  0  1.037021  0
H  H92  1  0.69640760  0.07762128  0.40379645  1  0.082096  0  0.101946  0.113614  0  1.014282  0
H  H93  1  0.30359958  0.92238124  0.90380000  1  0.08206  0  0.101961  0.11363  0  1.014327  0
H  H94  1  0.19640313  0.92238191  0.40379845  1  0.082034  0  0.101949  0.11363  0  1.014323  0
H  H95  1  0.80359730  0.07761685  0.90379334  1  0.081991  0  0.101917  0.113609  0  1.014245  0
H  H96  1  0.84814207  0.19272045  0.35138804  1  0.070163  0  0.095044  0.090179  0  1.057575  0
H  H97  1  0.15186085  0.80728292  0.85139268  1  0.070125  0  0.095041  0.090221  0  1.057527  0
H  H98  1  0.34814052  0.80728205  0.35139046  1  0.070015  0  0.095032  0.090201  0  1.057524  0
H  H99  1  0.65186015  0.19271630  0.85138767  1  0.070219  0  0.095043  0.090178  0  1.05758  0
H  H100  1  0.75737856  0.33977256  0.35541968  1  0.059157  0  0.102154  0.10832  0  1.010962  0
H  H101  1  0.24261647  0.66022896  0.85542292  1  0.058763  0  0.102118  0.108282  0  1.010965  0
H  H102  1  0.25738460  0.66022951  0.35542286  1  0.058741  0  0.102116  0.108288  0  1.010966  0
H  H103  1  0.74261493  0.33977013  0.85542129  1  0.058729  0  0.102127  0.108291  0  1.010949  0
C  C104  1  0.55697172  0.82891666  0.47449212  1  0.295791  0  0.086137  0.273632  0  3.996398  0
C  C105  1  0.44303064  0.17108077  0.97449667  1  0.295687  0  0.086225  0.273783  0  3.996029  0
C  C106  1  0.05697047  0.17108357  0.47449579  1  0.295431  0  0.086268  0.273854  0  3.996004  0
C  C107  1  0.94302964  0.82891824  0.97449508  1  0.295697  0  0.086203  0.273739  0  3.996239  0
C  C108  1  0.55564512  0.74307631  0.48871876  1  -0.069155  0  -0.090517  -0.198032  0  3.911442  0
C  C109  1  0.44435717  0.25692185  0.98872222  1  -0.069132  0  -0.090533  -0.198121  0  3.911533  0
C  C110  1  0.05564225  0.25692403  0.48871926  1  -0.068737  0  -0.090497  -0.198125  0  3.911494  0
C  C111  1  0.94435667  0.74307727  0.98872171  1  -0.069099  0  -0.090477  -0.19813  0  3.911474  0
C  C112  1  0.60244709  0.68583492  0.43796732  1  0.027785  0  -0.021547  -0.03091  0  4.005453  0
C  C113  1  0.39755656  0.31416159  0.93797114  1  0.027641  0  -0.021474  -0.030692  0  4.00537  0
C  C114  1  0.10244276  0.31416431  0.43796813  1  0.028068  0  -0.021474  -0.030711  0  4.005336  0
C  C115  1  0.89755414  0.68583534  0.93796981  1  0.028057  0  -0.02147  -0.030679  0  4.005256  0
C  C116  1  0.64912852  0.71470924  0.37294943  1  -0.086736  0  -0.091631  -0.124749  0  3.99719  0
C  C117  1  0.35087430  0.28528489  0.87295313  1  -0.086853  0  -0.091779  -0.125103  0  3.99749  0
C  C118  1  0.14912773  0.28528627  0.37295060  1  -0.086909  0  -0.091723  -0.124966  0  3.997485  0
C  C119  1  0.85087059  0.71471162  0.87295196  1  -0.08697  0  -0.0917  -0.124924  0  3.997293  0
C  C120  1  0.64900462  0.80053516  0.35910455  1  -0.022765  0  -0.087991  -0.063191  0  4.023414  0
C  C121  1  0.35100052  0.19945949  0.85910883  1  -0.022978  0  -0.088021  -0.063281  0  4.023738  0
C  C122  1  0.14900095  0.19945899  0.35910837  1  -0.02276  0  -0.087974  -0.063197  0  4.023564  0
C  C123  1  0.85099518  0.80053691  0.85910760  1  -0.022709  0  -0.088029  -0.063305  0  4.023476  0
C  C124  1  0.60380383  0.85769187  0.40942560  1  -0.047446  0  -0.085886  -0.162024  0  3.916736  0
C  C125  1  0.39619995  0.14230443  0.90942953  1  -0.047337  0  -0.085929  -0.162053  0  3.916233  0
C  C126  1  0.10380275  0.14230526  0.40942859  1  -0.047567  0  -0.085998  -0.162168  0  3.916443  0
C  C127  1  0.89619541  0.85769354  0.90942860  1  -0.04749  0  -0.085946  -0.162037  0  3.916331  0
C  C128  1  0.61072191  0.59386199  0.45313384  1  1.558697  0  0.204253  0.572712  0  4.205288  0
C  C129  1  0.38928504  0.40613589  0.95313505  1  1.559085  0  0.204195  0.572586  0  4.205484  0
C  C130  1  0.11071593  0.40613923  0.45313101  1  1.558743  0  0.204224  0.572677  0  4.205171  0
C  C131  1  0.88928427  0.59386242  0.95313426  1  1.5587  0  0.204171  0.572517  0  4.205522  0
C  C132  1  0.18353339  0.19160459  0.68117507  1  0.247626  0  0.074095  0.250349  0  4.041982  0
C  C133  1  0.81647143  0.80839244  0.18117687  1  0.247819  0  0.074095  0.250318  0  4.042193  0
C  C134  1  0.68352801  0.80839513  0.68117544  1  0.247776  0  0.074032  0.250289  0  4.04222  0
C  C135  1  0.31646894  0.19160754  0.18117547  1  0.247726  0  0.074066  0.250255  0  4.042197  0
C  C136  1  0.26171750  0.25415203  0.64550071  1  -0.047402  0  -0.09401  -0.199798  0  3.923923  0
C  C137  1  0.73828861  0.74584535  0.14550535  1  -0.047358  0  -0.094006  -0.199738  0  3.924003  0
C  C138  1  0.76170686  0.74584602  0.64550280  1  -0.047274  0  -0.09396  -0.199737  0  3.92391  0
C  C139  1  0.23828688  0.25415387  0.14550274  1  -0.047293  0  -0.094011  -0.199752  0  3.923969  0
C  C140  1  0.21812128  0.33802670  0.65180096  1  0.029527  0  -0.018344  -0.016933  0  3.996216  0
C  C141  1  0.78188705  0.66197135  0.15180511  1  0.029188  0  -0.018277  -0.016743  0  3.99586  0
C  C142  1  0.71811000  0.66197272  0.65180467  1  0.029319  0  -0.018361  -0.016809  0  3.99594  0
C  C143  1  0.28188483  0.33802784  0.15180087  1  0.02911  0  -0.018247  -0.016756  0  3.995881  0
C  C144  1  0.09195460  0.35942357  0.69149021  1  -0.02881  0  -0.093107  -0.11681  0  3.968729  0
C  C145  1  0.90805804  0.64057417  0.19149153  1  -0.028703  0  -0.093277  -0.117116  0  3.968769  0
C  C146  1  0.59193782  0.64057766  0.69149123  1  -0.029126  0  -0.093273  -0.117156  0  3.968775  0
C  C147  1  0.40805346  0.35942572  0.19148845  1  -0.028631  0  -0.093249  -0.11702  0  3.968812  0
C  C148  1  0.01093359  0.29628839  0.72459678  1  -0.059482  0  -0.094975  -0.062866  0  4.032196  0
C  C149  1  0.98907665  0.70371336  0.22459784  1  -0.059404  0  -0.094947  -0.062823  0  4.032267  0
C  C150  1  0.51092094  0.70371574  0.72459762  1  -0.058987  0  -0.094928  -0.062702  0  4.032173  0
C  C151  1  0.48907243  0.29628978  0.22459545  1  -0.059374  0  -0.094951  -0.062871  0  4.032199  0
C  C152  1  0.05696642  0.21261068  0.72056534  1  -0.075209  0  -0.097788  -0.187809  0  3.963507  0
C  C153  1  0.94304384  0.78738791  0.22056586  1  -0.075323  0  -0.097814  -0.187816  0  3.963631  0
C  C154  1  0.55695779  0.78739209  0.72056456  1  -0.075287  0  -0.097758  -0.187834  0  3.963673  0
C  C155  1  0.44303898  0.21261340  0.22056613  1  -0.075245  0  -0.097788  -0.187736  0  3.963487  0
C  C156  1  0.30835802  0.40441914  0.61592226  1  1.556252  0  0.208992  0.575376  0  4.219591  0
C  C157  1  0.69164035  0.59557613  0.11592874  1  1.556034  0  0.208975  0.575287  0  4.21997  0
C  C158  1  0.80835163  0.59557545  0.61592821  1  1.556498  0  0.208978  0.575319  0  4.219775  0
C  C159  1  0.19164000  0.40442107  0.11592331  1  1.55649  0  0.209002  0.575417  0  4.219626  0
C  C160  1  0.68778436  0.32994970  0.61114941  1  0.309482  0  0.084602  0.273767  0  3.997846  0
C  C161  1  0.31221403  0.67004929  0.11115150  1  0.30987  0  0.08459  0.273666  0  3.997947  0
C  C162  1  0.18777910  0.67005009  0.61114902  1  0.309583  0  0.084575  0.273667  0  3.998004  0
C  C163  1  0.81221480  0.32994953  0.11114878  1  0.309494  0  0.084604  0.2738  0  3.997873  0
C  C164  1  0.68829288  0.24430996  0.59598810  1  -0.021311  0  -0.091617  -0.199411  0  3.909968  0
C  C165  1  0.31170896  0.75569017  0.09599323  1  -0.021424  0  -0.09163  -0.199533  0  3.910128  0
C  C166  1  0.18828825  0.75569160  0.59598817  1  -0.021245  0  -0.091664  -0.199551  0  3.910126  0
C  C167  1  0.81170797  0.24431167  0.09598850  1  -0.021296  0  -0.091655  -0.199478  0  3.910021  0
C  C168  1  0.64048827  0.18681502  0.64637920  1  -0.032451  0  -0.020899  -0.024942  0  4.001063  0
C  C169  1  0.35951221  0.81318739  0.14638304  1  -0.032492  0  -0.020972  -0.024706  0  4.000982  0
C  C170  1  0.14048330  0.81318765  0.64638010  1  -0.03253  0  -0.02093  -0.024756  0  4.001079  0
C  C171  1  0.85951043  0.18681538  0.14637955  1  -0.03248  0  -0.020861  -0.024817  0  4.000955  0
C  C172  1  0.59487374  0.21530228  0.71150898  1  -0.048145  0  -0.09451  -0.125977  0  4.013492  0
C  C173  1  0.40512869  0.78470000  0.21151211  1  -0.048199  0  -0.094527  -0.126066  0  4.013529  0
C  C174  1  0.09486669  0.78470160  0.71150766  1  -0.048162  0  -0.094482  -0.125916  0  4.013323  0
C  C175  1  0.90513012  0.21530194  0.21150825  1  -0.047895  0  -0.094528  -0.125993  0  4.013399  0
C  C176  1  0.59679959  0.30067231  0.72642354  1  0.057329  0  -0.089371  -0.066516  0  4.036014  0
C  C177  1  0.40320278  0.69933072  0.22642621  1  0.057436  0  -0.089299  -0.066464  0  4.036165  0
C  C178  1  0.09679079  0.69933043  0.72642280  1  0.057518  0  -0.089273  -0.066412  0  4.036011  0
C  C179  1  0.90320258  0.30067385  0.22642127  1  0.057369  0  -0.089295  -0.066472  0  4.035984  0
C  C180  1  0.64278601  0.35811018  0.67663508  1  -0.096233  0  -0.087397  -0.161937  0  3.921428  0
C  C181  1  0.35721658  0.64188995  0.17663801  1  -0.096249  0  -0.087402  -0.161929  0  3.921426  0
C  C182  1  0.14277979  0.64189209  0.67663351  1  -0.096184  0  -0.087415  -0.162023  0  3.921593  0
C  C183  1  0.85721718  0.35811243  0.17663544  1  -0.09633  0  -0.087385  -0.16191  0  3.921488  0
C  C184  1  0.62950187  0.09488214  0.63187017  1  1.526155  0  0.20468  0.573815  0  4.203387  0
C  C185  1  0.37049530  0.90511953  0.13187450  1  1.526195  0  0.204662  0.573656  0  4.20348  0
C  C186  1  0.12950649  0.90511981  0.63186950  1  1.526075  0  0.204636  0.573665  0  4.203288  0
C  C187  1  0.87049405  0.09488185  0.13187000  1  1.526183  0  0.204661  0.573728  0  4.203197  0
C  C188  1  0.55569828  0.30879520  0.41181556  1  0.256983  0  0.076592  0.258934  0  4.039266  0
C  C189  1  0.44429987  0.69120487  0.91181979  1  0.257721  0  0.076594  0.25884  0  4.039412  0
C  C190  1  0.05570189  0.69120705  0.41181839  1  0.257276  0  0.076542  0.258829  0  4.039398  0
C  C191  1  0.94429963  0.30879365  0.91181748  1  0.257258  0  0.076626  0.258929  0  4.039418  0
C  C192  1  0.47431521  0.24526173  0.44447933  1  0.013309  0  -0.092921  -0.195973  0  3.920471  0
C  C193  1  0.52568391  0.75473797  0.94448382  1  0.012755  0  -0.092854  -0.195798  0  3.920438  0
C  C194  1  0.97431689  0.75473938  0.44448251  1  0.013185  0  -0.092802  -0.195727  0  3.920397  0
C  C195  1  0.02568111  0.24525969  0.94448116  1  0.013309  0  -0.092894  -0.195908  0  3.92044  0
C  C196  1  0.52339184  0.16217487  0.44017838  1  -0.049385  0  -0.017563  -0.01504  0  3.999879  0
C  C197  1  0.47661068  0.83782668  0.94018389  1  -0.049068  0  -0.017709  -0.015179  0  3.999974  0
C  C198  1  0.02339348  0.83782641  0.44018252  1  -0.049009  0  -0.017672  -0.015202  0  4.000012  0
C  C199  1  0.97660904  0.16217013  0.94017872  1  -0.049444  0  -0.017617  -0.015158  0  4.000102  0
C  C200  1  0.65698866  0.14233673  0.40550730  1  -0.008566  0  -0.095107  -0.122943  0  3.970969  0
C  C201  1  0.34301513  0.85766455  0.90551098  1  -0.008824  0  -0.095082  -0.122991  0  3.971058  0
C  C202  1  0.15698682  0.85766592  0.40550999  1  -0.008866  0  -0.095094  -0.123043  0  3.971031  0
C  C203  1  0.84301473  0.14233411  0.90550622  1  -0.008495  0  -0.095053  -0.122947  0  3.970937  0
C  C204  1  0.74167751  0.20680606  0.37636623  1  -0.064069  0  -0.095523  -0.068239  0  4.04499  0
C  C205  1  0.25832080  0.79319624  0.87636965  1  -0.063995  0  -0.095483  -0.068232  0  4.044921  0
C  C206  1  0.24168054  0.79319495  0.37636857  1  -0.063909  0  -0.095475  -0.068176  0  4.044818  0
C  C207  1  0.75832002  0.20680235  0.87636575  1  -0.064188  0  -0.095541  -0.068239  0  4.04485  0
C  C208  1  0.69156417  0.28968906  0.37911946  1  -0.023631  0  -0.102344  -0.20019  0  3.999563  0
C  C209  1  0.30843300  0.71031390  0.87912342  1  -0.023148  0  -0.102364  -0.200177  0  3.999561  0
C  C210  1  0.19156880  0.71031394  0.37912188  1  -0.023205  0  -0.102325  -0.20013  0  3.999617  0
C  C211  1  0.80843062  0.28968588  0.87912152  1  -0.023179  0  -0.102305  -0.200113  0  3.999429  0
C  C212  1  0.43198908  0.09498081  0.47414053  1  1.559889  0  0.209391  0.575454  0  4.225186  0
C  C213  1  0.56801553  0.90502226  0.97414320  1  1.559767  0  0.209416  0.57552  0  4.225341  0
C  C214  1  0.93198876  0.90502814  0.47414142  1  1.559873  0  0.20942  0.575467  0  4.225443  0
C  C215  1  0.06801135  0.09497681  0.97413870  1  1.559894  0  0.209525  0.575677  0  4.225076  0
N  N216  1  0.51589416  0.88972644  0.52588189  1  -1.212758  0  -0.599672  -0.602806  0  3.390218  0
N  N217  1  0.48410574  0.11027126  0.02588598  1  -1.212819  0  -0.599728  -0.602742  0  3.390292  0
N  N218  1  0.01589552  0.11027426  0.52588627  1  -1.212747  0  -0.599769  -0.602856  0  3.390234  0
N  N219  1  0.98410664  0.88972846  0.02588471  1  -1.212802  0  -0.599781  -0.60279  0  3.390205  0
N  N220  1  0.23061419  0.10588455  0.67427011  1  -1.188615  0  -0.601889  -0.600801  0  3.412318  0
N  N221  1  0.76939066  0.89411368  0.17427242  1  -1.188606  0  -0.601844  -0.600653  0  3.412316  0
N  N222  1  0.73060832  0.89411440  0.67426990  1  -1.188674  0  -0.601788  -0.600573  0  3.412447  0
N  N223  1  0.26938866  0.10588634  0.17427159  1  -1.188644  0  -0.601836  -0.600681  0  3.412361  0
N  N224  1  0.72525442  0.39197839  0.56014431  1  -1.219207  0  -0.601265  -0.604704  0  3.392275  0
N  N225  1  0.27474870  0.60802209  0.06014766  1  -1.21935  0  -0.6012  -0.604571  0  3.392506  0
N  N226  1  0.22525065  0.60802283  0.56014411  1  -1.219408  0  -0.601214  -0.60464  0  3.392481  0
N  N227  1  0.77474685  0.39197954  0.06014527  1  -1.21922  0  -0.601239  -0.604695  0  3.39237  0
N  N228  1  0.50520488  0.39385224  0.41563233  1  -1.235209  0  -0.602984  -0.596884  0  3.415174  0
N  N229  1  0.49479213  0.60614787  0.91563503  1  -1.235291  0  -0.603025  -0.596857  0  3.415329  0
N  N230  1  0.00520673  0.60614951  0.41563316  1  -1.235644  0  -0.60308  -0.597062  0  3.415264  0
N  N231  1  0.99478915  0.39384934  0.91563368  1  -1.235445  0  -0.602981  -0.59671  0  3.415433  0
O  O232  1  0.52444411  0.56629734  0.50241339  1  -1.168386  0  -0.325878  -0.553362  0  2.317984  0
O  O233  1  0.47555590  0.43370206  0.00241767  1  -1.168433  0  -0.325858  -0.553331  0  2.317896  0
O  O234  1  0.02444359  0.43370254  0.50241588  1  -1.168396  0  -0.325875  -0.553326  0  2.317742  0
O  O235  1  0.97555530  0.56629875  0.00241673  1  -1.168471  0  -0.32586  -0.553326  0  2.317924  0
O  O236  1  0.69793092  0.54793551  0.41845340  1  -1.188187  0  -0.32598  -0.569619  0  2.138844  0
O  O237  1  0.30208406  0.45206148  0.91845184  1  -1.188058  0  -0.325926  -0.569514  0  2.139092  0
O  O238  1  0.19790781  0.45206340  0.41844564  1  -1.188191  0  -0.325978  -0.569619  0  2.138935  0
O  O239  1  0.80208019  0.54793672  0.91845132  1  -1.188116  0  -0.325914  -0.56949  0  2.139025  0
O  O240  1  0.37303366  0.38106276  0.55918335  1  -1.176725  0  -0.328465  -0.559306  0  2.379625  0
O  O241  1  0.62696834  0.61893583  0.05918691  1  -1.176673  0  -0.328448  -0.559357  0  2.379593  0
O  O242  1  0.87302938  0.61893504  0.55918632  1  -1.176678  0  -0.328432  -0.559315  0  2.379466  0
O  O243  1  0.12696588  0.38106230  0.05918394  1  -1.176682  0  -0.328438  -0.559357  0  2.379631  0
O  O244  1  0.31742619  0.47663461  0.64167130  1  -1.194801  0  -0.319833  -0.561018  0  2.191295  0
O  O245  1  0.68257206  0.52336901  0.14167481  1  -1.194451  0  -0.319763  -0.560835  0  2.191739  0
O  O246  1  0.81742246  0.52336895  0.64167686  1  -1.194964  0  -0.319762  -0.560874  0  2.191596  0
O  O247  1  0.18257354  0.47663279  0.14167080  1  -1.194843  0  -0.319861  -0.561012  0  2.191427  0
O  O248  1  0.71535256  0.06568674  0.58312948  1  -1.168102  0  -0.325367  -0.551086  0  2.315574  0
O  O249  1  0.28464034  0.93431392  0.08313405  1  -1.16817  0  -0.325368  -0.551086  0  2.315593  0
O  O250  1  0.21536151  0.93431279  0.58313206  1  -1.168141  0  -0.325339  -0.551059  0  2.315538  0
O  O251  1  0.78463251  0.06568598  0.08313094  1  -1.168198  0  -0.325351  -0.551073  0  2.315374  0
O  O252  1  0.54098768  0.04998915  0.66687471  1  -1.183709  0  -0.327476  -0.571369  0  2.139134  0
O  O253  1  0.45901046  0.95001341  0.16687763  1  -1.183729  0  -0.327443  -0.571315  0  2.13915  0
O  O254  1  0.04098529  0.95001574  0.66687428  1  -1.183681  0  -0.32745  -0.571323  0  2.138919  0
O  O255  1  0.95900610  0.04998808  0.16687341  1  -1.183662  0  -0.327461  -0.571327  0  2.139147  0
O  O256  1  0.36514782  0.11770556  0.53044493  1  -1.184068  0  -0.327828  -0.55947  0  2.391814  0
O  O257  1  0.63485544  0.88229406  0.03044783  1  -1.183753  0  -0.327818  -0.559529  0  2.391779  0
O  O258  1  0.86514651  0.88229579  0.53044931  1  -1.183656  0  -0.327913  -0.559613  0  2.391526  0
O  O259  1  0.13485450  0.11770257  0.03044603  1  -1.18419  0  -0.327841  -0.559546  0  2.391753  0
O  O260  1  0.42499209  0.02314607  0.44750384  1  -1.18543  0  -0.320627  -0.560692  0  2.193093  0
O  O261  1  0.57501152  0.97685114  0.94750844  1  -1.185607  0  -0.320573  -0.560568  0  2.193319  0
O  O262  1  0.92499248  0.97685014  0.44751028  1  -1.185689  0  -0.3205  -0.560388  0  2.193704  0
O  O263  1  0.07501337  0.02314394  0.94750251  1  -1.185331  0  -0.320714  -0.560779  0  2.193077  0
