# generated using pymatgen
data_MnH14C20(N2Cl)2
_symmetry_space_group_name_H-M   'P 1'
_cell_length_a   10.41659000
_cell_length_b   10.63259423
_cell_length_c   18.09349282
_cell_angle_alpha   103.93093786
_cell_angle_beta   90.00099265
_cell_angle_gamma   90.00791767
_symmetry_Int_Tables_number   1
_chemical_formula_structural   MnH14C20(N2Cl)2
_chemical_formula_sum   'Mn4 H56 C80 N16 Cl8'
_cell_volume   1945.00857677
_cell_formula_units_Z   4
loop_
 _symmetry_equiv_pos_site_id
 _symmetry_equiv_pos_as_xyz
  1  'x, y, z'
loop_
 _atom_site_type_symbol
 _atom_site_label
 _atom_site_symmetry_multiplicity
 _atom_site_fract_x
 _atom_site_fract_y
 _atom_site_fract_z
 _atom_site_occupancy
 _atom_site_pbe_bader_charge
 _atom_site_pbe_bader_spin_density
 _atom_site_pbe_cm5_charge
 _atom_site_pbe_ddec_charge
 _atom_site_pbe_ddec_spin_density
 _atom_site_pbe_ddec_sum_bond_order
 _atom_site_pbe_magmom
Mn  Mn0  1  0.75315055  0.14224466  0.87529214  1  1.381536  4.469135  0.499004  0.64933  4.614409  2.677173  4.369
Mn  Mn1  1  0.25312665  0.35771212  0.62466378  1  1.381477  4.46919  0.499306  0.649542  4.614212  2.676416  4.369
Mn  Mn2  1  0.24683148  0.85777112  0.12470970  1  1.381072  -4.469131  0.498911  0.649388  -4.61429  2.677438  -4.369
Mn  Mn3  1  0.74687839  0.64220935  0.37531294  1  1.381365  -4.469337  0.499122  0.649471  -4.614382  2.676406  -4.37
H  H4  1  0.87160137  0.59242511  0.20992531  1  0.135754  -0.000695  0.103888  0.087932  -7.5e-05  1.045745  0.0
H  H5  1  0.37154428  0.90761636  0.29015485  1  0.137076  -0.000693  0.103899  0.08818  -7.3e-05  1.045455  0.0
H  H6  1  0.12842386  0.40757259  0.79007047  1  0.136504  0.000694  0.103917  0.087962  7.4e-05  1.045707  0.0
H  H7  1  0.62840416  0.09241459  0.70988941  1  0.13638  0.000694  0.10388  0.088022  7.4e-05  1.04568  0.0
H  H8  1  0.61757327  0.86862625  0.32570974  1  0.138926  -0.001083  0.102946  0.085661  -0.000532  1.049871  0.0
H  H9  1  0.11756348  0.63133006  0.17430356  1  0.139116  -0.001086  0.102868  0.085491  -0.000534  1.050138  0.0
H  H10  1  0.38243372  0.13138128  0.67428192  1  0.138805  0.001086  0.102887  0.085584  0.000535  1.050024  0.0
H  H11  1  0.88244831  0.36867782  0.82569645  1  0.138704  0.001085  0.102885  0.085584  0.000533  1.049996  0.0
H  H12  1  0.88104387  0.69153279  0.09958914  1  0.124128  -0.000889  0.100244  0.121346  -0.000356  1.038971  0.0
H  H13  1  0.38100141  0.80844293  0.40046474  1  0.128462  -0.000886  0.100385  0.121378  -0.000355  1.038778  0.0
H  H14  1  0.11899863  0.30846500  0.90041330  1  0.129088  0.000886  0.100442  0.121517  0.000356  1.038861  0.0
H  H15  1  0.61893357  0.19155320  0.59956363  1  0.128134  0.000886  0.100284  0.121415  0.000355  1.038885  0.0
H  H16  1  0.60701613  0.97710043  0.21941344  1  0.133585  -0.001229  0.095537  0.116207  -0.00073  1.055951  0.0
H  H17  1  0.10702732  0.52279118  0.28056780  1  0.132864  -0.001227  0.095657  0.116209  -0.000728  1.056242  0.0
H  H18  1  0.39300717  0.02289815  0.78057575  1  0.133543  0.001228  0.09553  0.116273  0.000729  1.055845  0.0
H  H19  1  0.89301037  0.47715371  0.71941269  1  0.132739  0.001227  0.095621  0.116283  0.000728  1.056209  0.0
H  H20  1  0.57779881  0.03003656  0.12396687  1  0.146634  0.000151  0.097596  0.119357  0.000253  1.071432  0.0
H  H21  1  0.07769222  0.46991921  0.37604676  1  0.1466  0.000154  0.097636  0.119455  0.000256  1.071105  0.0
H  H22  1  0.42223314  0.96996869  0.87602847  1  0.146778  -0.000151  0.097655  0.119374  -0.000254  1.071204  0.0
H  H23  1  0.92229268  0.53006244  0.62395589  1  0.1467  -0.000152  0.097615  0.119378  -0.000255  1.07132  0.0
H  H24  1  0.91239320  0.80897702  0.02795098  1  0.123862  0.000341  0.103494  0.122361  0.000391  1.050194  0.0
H  H25  1  0.41236167  0.69102547  0.47204034  1  0.124508  0.000343  0.103566  0.12247  0.000392  1.050403  0.0
H  H26  1  0.08763682  0.19103078  0.97203627  1  0.124475  -0.000341  0.103501  0.122345  -0.000391  1.050319  0.0
H  H27  1  0.58762994  0.30894425  0.52795902  1  0.124059  -0.000341  0.103504  0.12234  -0.000391  1.050255  0.0
H  H28  1  0.46574452  0.18758559  0.12081731  1  0.113787  -1.7e-05  0.09474  0.115272  8.2e-05  1.06436  0.0
H  H29  1  0.96565209  0.31244817  0.37919264  1  0.113794  -1.7e-05  0.094844  0.115372  8.3e-05  1.06428  0.0
H  H30  1  0.53433159  0.81244815  0.87919613  1  0.113897  1.7e-05  0.09488  0.115512  -8.2e-05  1.063985  0.0
H  H31  1  0.03439138  0.68757830  0.62081682  1  0.113957  1.6e-05  0.094798  0.1153  -8.3e-05  1.064204  0.0
H  H32  1  0.03400170  0.76531643  0.93595513  1  0.13477  0.000134  0.09703  0.121459  0.000265  1.044545  0.0
H  H33  1  0.53404157  0.73466717  0.56403843  1  0.134614  0.000134  0.097014  0.12152  0.000265  1.044617  0.0
H  H34  1  0.96594864  0.23468585  0.06403328  1  0.134156  -0.000135  0.097098  0.121615  -0.000266  1.044506  0.0
H  H35  1  0.46584252  0.26529406  0.43595518  1  0.134729  -0.000135  0.096974  0.12151  -0.000266  1.044556  0.0
H  H36  1  0.32260337  0.36393547  0.10047167  1  0.089799  -0.000117  0.110145  0.107062  -1.9e-05  0.981683  0.0
H  H37  1  0.82247496  0.13606096  0.39956305  1  0.089199  -0.000116  0.110077  0.106902  -1.8e-05  0.98197  0.0
H  H38  1  0.67744970  0.63608818  0.89955640  1  0.090008  0.000117  0.110096  0.107084  1.9e-05  0.981773  0.0
H  H39  1  0.17757427  0.86396017  0.60041818  1  0.089021  0.000117  0.110052  0.106778  1.8e-05  0.982029  0.0
H  H40  1  0.17692931  0.73082181  0.82270707  1  0.127013  0.000601  0.103426  0.112259  0.000243  0.994351  0.0
H  H41  1  0.67690328  0.76919711  0.67727873  1  0.127044  0.000603  0.10353  0.112361  0.000245  0.994852  0.0
H  H42  1  0.82305559  0.26917933  0.17728013  1  0.127096  -0.000601  0.103445  0.11231  -0.000243  0.994552  0.0
H  H43  1  0.32303553  0.23077122  0.32269942  1  0.126229  -0.000603  0.10346  0.112325  -0.000244  0.994483  0.0
H  H44  1  0.34799598  0.44545120  0.98230701  1  0.088479  0.000413  0.109224  0.118895  0.000298  1.000613  0.0
H  H45  1  0.84790664  0.05458051  0.51772215  1  0.087409  0.000413  0.109315  0.118974  0.000298  1.000389  0.0
H  H46  1  0.65203886  0.55459904  0.01772067  1  0.087982  -0.000413  0.109297  0.118935  -0.000298  1.000627  0.0
H  H47  1  0.15203317  0.94548994  0.48228848  1  0.087762  -0.000413  0.109268  0.118975  -0.000299  1.00048  0.0
H  H48  1  0.14856128  0.86899022  0.72972604  1  0.092839  0.000858  0.105952  0.108145  0.000441  1.009055  0.0
H  H49  1  0.64863279  0.63096420  0.77024018  1  0.092671  0.000859  0.105912  0.108097  0.000441  1.008942  0.0
H  H50  1  0.85141595  0.13103820  0.27027138  1  0.092701  -0.000859  0.105932  0.107982  -0.000441  1.009067  0.0
H  H51  1  0.35131274  0.36901404  0.22975273  1  0.09243  -0.000858  0.105998  0.108094  -0.000441  1.009286  0.0
H  H52  1  0.52145475  0.34741637  0.88936373  1  0.067746  0.002903  0.117146  0.082543  0.001973  0.977524  0.001
H  H53  1  0.02142035  0.15264214  0.61065625  1  0.067552  0.00291  0.117287  0.082684  0.001979  0.977185  0.001
H  H54  1  0.47856569  0.65262563  0.11065377  1  0.067508  -0.002903  0.117248  0.082769  -0.001973  0.977505  -0.001
H  H55  1  0.97852521  0.84738531  0.38937161  1  0.067524  -0.002905  0.117242  0.082577  -0.001975  0.977713  -0.001
H  H56  1  0.97737105  0.04052083  0.75516014  1  0.056748  0.002821  0.114631  0.079516  0.001775  0.990718  0.001
H  H57  1  0.47734752  0.45937438  0.74479402  1  0.056621  0.002823  0.114602  0.079228  0.001778  0.990544  0.001
H  H58  1  0.02261770  0.95950013  0.24483828  1  0.057154  -0.00282  0.114681  0.079595  -0.001775  0.990666  -0.001
H  H59  1  0.52261913  0.54058482  0.25519886  1  0.056988  -0.002822  0.114596  0.079386  -0.001777  0.990562  -0.001
C  C60  1  0.81607900  0.67923893  0.20942452  1  0.437417  -0.010945  0.040591  0.085693  -0.008327  3.936222  -0.007
C  C61  1  0.31604853  0.82077953  0.29062156  1  0.436614  -0.010926  0.040434  0.085512  -0.00831  3.936482  -0.007
C  C62  1  0.18392990  0.32076983  0.79057502  1  0.437576  0.01094  0.040582  0.085749  0.008324  3.936499  0.007
C  C63  1  0.68392006  0.17924414  0.70940651  1  0.437346  0.010939  0.040688  0.085965  0.00832  3.936144  0.007
C  C64  1  0.67307384  0.83260122  0.27374349  1  0.408284  -0.010977  0.03971  0.081665  -0.008759  3.95039  -0.007
C  C65  1  0.17306181  0.66735610  0.22627250  1  0.408566  -0.010958  0.039755  0.081992  -0.008745  3.950292  -0.007
C  C66  1  0.32693315  0.16740912  0.72624787  1  0.408234  0.010975  0.039713  0.081649  0.008761  3.950879  0.007
C  C67  1  0.82693942  0.33264538  0.77372916  1  0.410265  0.010966  0.039769  0.081925  0.008753  3.950157  0.007
C  C68  1  0.81891424  0.73513569  0.14744351  1  -0.008564  0.003195  -0.081926  -0.170974  0.002927  3.930518  0.002
C  C69  1  0.31888692  0.76483623  0.35257958  1  -0.013598  0.003196  -0.081832  -0.17093  0.002929  3.930408  0.002
C  C70  1  0.18110811  0.26488193  0.85255183  1  -0.014051  -0.003193  -0.082146  -0.171168  -0.002927  3.930924  -0.002
C  C71  1  0.68109126  0.23515744  0.64743304  1  -0.012963  -0.003198  -0.081859  -0.171078  -0.002931  3.930315  -0.002
C  C72  1  0.67002016  0.89363522  0.21407875  1  0.008723  0.002883  -0.087535  -0.175934  0.002703  3.947952  0.002
C  C73  1  0.17000215  0.60626871  0.28590466  1  0.008439  0.002885  -0.087662  -0.176046  0.002705  3.948238  0.002
C  C74  1  0.33000315  0.10637292  0.78591075  1  0.00813  -0.002885  -0.087563  -0.176158  -0.002705  3.947831  -0.002
C  C75  1  0.83001634  0.39369311  0.71408068  1  0.009038  -0.002885  -0.087611  -0.175893  -0.002705  3.948263  -0.002
C  C76  1  0.74468269  0.84592489  0.14866615  1  -0.084583  -0.01132  0.010201  0.096587  -0.008657  3.973515  -0.007
C  C77  1  0.24465336  0.65400827  0.35132224  1  -0.083643  -0.011301  0.010232  0.096938  -0.008641  3.973939  -0.007
C  C78  1  0.25533870  0.15409414  0.85132598  1  -0.084168  0.01132  0.010373  0.096932  0.008656  3.972995  0.007
C  C79  1  0.75535745  0.34595820  0.64866851  1  -0.084992  0.011311  0.010107  0.09645  0.008649  3.973881  0.007
C  C80  1  0.74548111  0.91111840  0.08498013  1  0.021341  0.005225  0.01009  0.107543  0.004157  3.960541  0.004
C  C81  1  0.24547641  0.58884436  0.41502314  1  0.020247  0.005251  0.010027  0.10743  0.004177  3.960239  0.004
C  C82  1  0.25453068  0.08888518  0.91501673  1  0.013774  -0.005231  0.010162  0.10746  -0.00416  3.960226  -0.004
C  C83  1  0.75453344  0.41110843  0.58497137  1  0.012762  -0.005241  0.010115  0.107662  -0.004168  3.960803  -0.004
C  C84  1  0.65450054  0.00715839  0.08183644  1  -0.082506  -0.001308  -0.073457  -0.186218  -0.000827  3.863378  -0.001
C  C85  1  0.15445338  0.49279431  0.41817543  1  -0.081711  -0.001301  -0.073567  -0.186693  -0.000822  3.863876  -0.001
C  C86  1  0.34552084  0.99283423  0.91816331  1  -0.074953  0.001307  -0.073583  -0.186414  0.000826  3.863078  0.001
C  C87  1  0.84554495  0.50715470  0.58183151  1  -0.07454  0.001311  -0.0736  -0.186678  0.000829  3.863504  0.001
C  C88  1  0.83767704  0.88043928  0.02684681  1  0.016529  -0.0018  -0.070124  -0.18572  -0.001227  3.860485  -0.001
C  C89  1  0.33767865  0.61953627  0.47315417  1  0.017146  -0.001794  -0.07019  -0.185925  -0.001221  3.8621  -0.001
C  C90  1  0.16233763  0.11957228  0.97314633  1  0.01654  0.001802  -0.070326  -0.185842  0.001228  3.861109  0.001
C  C91  1  0.66232160  0.38041458  0.52684628  1  0.01673  0.001795  -0.070184  -0.18544  0.001223  3.861345  0.001
C  C92  1  0.66055445  0.07111551  0.02287977  1  0.559746  0.006366  0.129019  0.181915  0.00523  3.980178  0.004
C  C93  1  0.16050804  0.42885601  0.47710281  1  0.558019  0.00637  0.129198  0.182531  0.005228  3.98119  0.004
C  C94  1  0.33946597  0.92888176  0.97711929  1  0.559395  -0.006359  0.128975  0.182228  -0.005221  3.980175  -0.004
C  C95  1  0.83947878  0.57112486  0.52288867  1  0.559504  -0.006377  0.1291  0.182302  -0.005236  3.979987  -0.004
C  C96  1  0.83589944  0.94634564  0.96851817  1  0.467716  0.006779  0.129478  0.18089  0.005493  3.984552  0.004
C  C97  1  0.33590573  0.55364430  0.53145328  1  0.465993  0.006794  0.129536  0.181158  0.005503  3.985094  0.004
C  C98  1  0.16411330  0.05367076  0.03147540  1  0.466785  -0.006781  0.129661  0.181137  -0.005493  3.984452  -0.004
C  C99  1  0.66408781  0.44632525  0.46853275  1  0.467508  -0.006783  0.129662  0.180885  -0.005495  3.985166  -0.004
C  C100  1  0.57107910  0.17605914  0.01571726  1  0.499597  0.005519  0.125738  0.17404  0.003899  3.943059  0.004
C  C101  1  0.07103039  0.32393379  0.48426797  1  0.488074  0.005539  0.125429  0.173529  0.003909  3.944391  0.004
C  C102  1  0.42894805  0.82396900  0.98428458  1  0.499745  -0.005506  0.125502  0.173756  -0.00389  3.943674  -0.004
C  C103  1  0.92898331  0.67606864  0.51573988  1  0.488335  -0.005527  0.125528  0.173915  -0.003899  3.94377  -0.004
C  C104  1  0.92753934  0.92028801  0.90399262  1  0.454941  0.005723  0.122906  0.168084  0.004096  3.961593  0.004
C  C105  1  0.42754750  0.57969239  0.59599061  1  0.455267  0.005734  0.122969  0.16788  0.004105  3.961616  0.004
C  C106  1  0.07245614  0.07974576  0.09600251  1  0.455162  -0.005736  0.123129  0.168255  -0.004104  3.961565  -0.004
C  C107  1  0.57242490  0.42025426  0.40400724  1  0.455664  -0.005733  0.122959  0.16791  -0.004102  3.961822  -0.004
C  C108  1  0.47805288  0.22667889  0.07074241  1  0.014809  -0.000268  -0.080255  -0.151429  -0.0002  3.914938  -0.001
C  C109  1  0.97798711  0.27332783  0.42924644  1  0.027338  -0.000278  -0.080108  -0.151061  -0.000204  3.914221  -0.001
C  C110  1  0.52199635  0.77335074  0.92926899  1  0.014982  0.000265  -0.080151  -0.151445  0.000198  3.914415  0.001
C  C111  1  0.02203812  0.72668259  0.57075769  1  0.027122  0.000272  -0.080128  -0.151135  0.0002  3.914321  0.001
C  C112  1  0.02176137  0.82387756  0.89450053  1  0.032976  0.001632  -0.08033  -0.150916  0.001347  3.900592  0.001
C  C113  1  0.52177005  0.67612122  0.60549307  1  0.033206  0.001627  -0.080379  -0.150808  0.001344  3.900778  0.001
C  C114  1  0.97821970  0.17614534  0.10549195  1  0.032968  -0.001632  -0.080512  -0.151123  -0.001347  3.900918  -0.001
C  C115  1  0.47816876  0.32384377  0.39449421  1  0.032559  -0.001627  -0.080278  -0.150825  -0.001342  3.900667  -0.001
C  C116  1  0.39710870  0.32438689  0.05903196  1  -0.068236  0.003791  -0.068751  -0.028429  0.002946  3.971216  0.002
C  C117  1  0.89701457  0.17560190  0.44096613  1  -0.069532  0.003812  -0.068828  -0.028605  0.002962  3.970618  0.002
C  C118  1  0.60294437  0.67563853  0.94098905  1  -0.068684  -0.003782  -0.068869  -0.028732  -0.002938  3.971355  -0.002
C  C119  1  0.10299626  0.82439957  0.55902942  1  -0.069354  -0.003795  -0.068758  -0.028303  -0.002949  3.970683  -0.002
C  C120  1  0.10318642  0.80537986  0.83179001  1  -0.047854  0.005691  -0.066662  -0.008322  0.004376  3.9551  0.003
C  C121  1  0.60319485  0.69464105  0.66820417  1  -0.047065  0.005709  -0.066763  -0.008392  0.004389  3.95547  0.003
C  C122  1  0.89679561  0.19463996  0.16820109  1  -0.047401  -0.005699  -0.066712  -0.008409  -0.004382  3.955236  -0.003
C  C123  1  0.39675741  0.30533017  0.33178035  1  -0.048085  -0.005703  -0.066866  -0.008385  -0.004384  3.955485  -0.003
C  C124  1  0.41084011  0.37015719  0.99344143  1  -0.098454  0.001097  -0.081426  -0.131276  0.000587  3.98739  0.001
C  C125  1  0.91078023  0.12985330  0.50656358  1  -0.096331  0.001092  -0.081447  -0.131076  0.000584  3.98665  0.001
C  C126  1  0.58920432  0.62987674  0.00657314  1  -0.096927  -0.001099  -0.081455  -0.131039  -0.000591  3.987103  -0.001
C  C127  1  0.08919028  0.87017669  0.49343787  1  -0.097636  -0.001098  -0.081385  -0.131232  -0.000587  3.986522  -0.001
C  C128  1  0.08733320  0.88186300  0.77971845  1  -0.112847  0.002115  -0.083833  -0.125171  0.001408  3.984054  0.001
C  C129  1  0.58735054  0.61812062  0.72026602  1  -0.112273  0.002117  -0.083806  -0.125299  0.001411  3.983783  0.001
C  C130  1  0.91265651  0.11816902  0.22027763  1  -0.078261  -0.00206  -0.083692  -0.12484  -0.001406  3.98434  -0.001
C  C131  1  0.41259595  0.38183236  0.27971742  1  -0.078045  -0.002064  -0.083675  -0.125016  -0.00141  3.98425  -0.001
C  C132  1  0.50638671  0.31515531  0.94166233  1  0.57  0.006101  0.053847  0.095858  0.005826  3.964871  0.004
C  C133  1  0.00634511  0.18486604  0.55833242  1  0.570512  0.00612  0.053729  0.095655  0.005846  3.96442  0.004
C  C134  1  0.49364045  0.68488564  0.05834842  1  0.568444  -0.006098  0.053709  0.095448  -0.005823  3.964439  -0.004
C  C135  1  0.99362732  0.81515877  0.44167245  1  0.570812  -0.006099  0.053758  0.095733  -0.005828  3.964821  -0.004
C  C136  1  0.99243276  0.97672208  0.79354697  1  0.550862  0.007331  0.049994  0.091963  0.006647  3.96989  0.005
C  C137  1  0.49243935  0.52323780  0.70642163  1  0.550691  0.007341  0.049909  0.092298  0.006657  3.969622  0.005
C  C138  1  0.00755407  0.02331309  0.20645106  1  0.515433  -0.007396  0.049955  0.091951  -0.006655  3.970096  -0.005
C  C139  1  0.50752634  0.47670982  0.29356410  1  0.516531  -0.007398  0.050003  0.092199  -0.006658  3.969211  -0.005
N  N140  1  0.74521130  0.72657473  0.27259204  1  -1.289087  -0.044698  -0.323022  -0.234267  -0.026634  3.504065  -0.004
N  N141  1  0.24517310  0.77341699  0.22745600  1  -1.288089  -0.044716  -0.323135  -0.234701  -0.026665  3.504106  -0.004
N  N142  1  0.25478608  0.27342324  0.72741152  1  -1.289344  0.044726  -0.323107  -0.234293  0.02664  3.504546  0.004
N  N143  1  0.75479837  0.22660826  0.77257000  1  -1.289613  0.04475  -0.323298  -0.234843  0.026664  3.504231  0.004
N  N144  1  0.74968152  0.03990384  0.96792597  1  -1.252157  0.050894  -0.311196  -0.271205  0.034682  3.52286  0.024
N  N145  1  0.24966539  0.46007831  0.53204993  1  -1.250221  0.050919  -0.311414  -0.271649  0.034707  3.52264  0.024
N  N146  1  0.25033315  0.96011834  0.03206812  1  -1.251307  -0.050906  -0.311271  -0.271596  -0.034707  3.522892  -0.024
N  N147  1  0.75032238  0.53989597  0.46794208  1  -1.251084  -0.0509  -0.31131  -0.271493  -0.034697  3.5229  -0.024
N  N148  1  0.58432533  0.22084053  0.95202191  1  -1.243487  0.053084  -0.307405  -0.246819  0.036923  3.494297  0.023
N  N149  1  0.08430300  0.27917509  0.54795699  1  -1.244701  0.053142  -0.307594  -0.246928  0.036935  3.495011  0.023
N  N150  1  0.41568551  0.77919332  0.04797988  1  -1.242997  -0.05308  -0.30731  -0.246686  -0.036919  3.494097  -0.023
N  N151  1  0.91569822  0.72082752  0.45205199  1  -1.244027  -0.05312  -0.307553  -0.246925  -0.036928  3.494825  -0.023
N  N152  1  0.91489914  0.99661337  0.85433761  1  -1.254693  0.057156  -0.312487  -0.251444  0.040003  3.508872  0.026
N  N153  1  0.41488382  0.50334349  0.64563441  1  -1.255594  0.057156  -0.312457  -0.25143  0.040008  3.509213  0.026
N  N154  1  0.08510977  0.00341574  0.14566431  1  -1.254299  -0.057143  -0.312705  -0.251838  -0.040009  3.508819  -0.026
N  N155  1  0.58509914  0.49659018  0.35434729  1  -1.254468  -0.057173  -0.31261  -0.251728  -0.040007  3.509157  -0.026
Cl  Cl156  1  0.62043366  0.95687463  0.80124372  1  -0.722514  0.092939  -0.298951  -0.540665  0.073868  1.190534  0.048
Cl  Cl157  1  0.12038402  0.54316780  0.69872938  1  -0.722078  0.092797  -0.299011  -0.540757  0.073777  1.18981  0.048
Cl  Cl158  1  0.37959347  0.04308929  0.19875513  1  -0.722442  -0.092942  -0.298977  -0.540686  -0.073878  1.190593  -0.048
Cl  Cl159  1  0.87962198  0.45678490  0.30125847  1  -0.722195  -0.092822  -0.298977  -0.540683  -0.07377  1.190024  -0.048
Cl  Cl160  1  0.87827290  0.32338894  0.95355737  1  -0.733779  0.101104  -0.339015  -0.552649  0.078987  1.063722  0.049
Cl  Cl161  1  0.37821480  0.17659364  0.54637132  1  -0.733748  0.101092  -0.338985  -0.552656  0.078969  1.063567  0.049
Cl  Cl162  1  0.12178401  0.67663981  0.04645451  1  -0.733646  -0.101143  -0.338895  -0.55253  -0.079018  1.064217  -0.049
Cl  Cl163  1  0.62179984  0.82334063  0.45363873  1  -0.733672  -0.101058  -0.339047  -0.552711  -0.078968  1.063258  -0.049
