# generated using pymatgen
data_Al2H18(C11O6)3
_symmetry_space_group_name_H-M   'P 1'
_cell_length_a   3.98861280
_cell_length_b   17.22082883
_cell_length_c   17.22111782
_cell_angle_alpha   120.00254782
_cell_angle_beta   90.00157753
_cell_angle_gamma   90.00051704
_symmetry_Int_Tables_number   1
_chemical_formula_structural   Al2H18(C11O6)3
_chemical_formula_sum   'Al2 H18 C33 O18'
_cell_volume   1024.36975620
_cell_formula_units_Z   1
loop_
 _symmetry_equiv_pos_site_id
 _symmetry_equiv_pos_as_xyz
  1  'x, y, z'
loop_
 _atom_site_type_symbol
 _atom_site_label
 _atom_site_symmetry_multiplicity
 _atom_site_fract_x
 _atom_site_fract_y
 _atom_site_fract_z
 _atom_site_occupancy
 _atom_site_pbe_bader_charge
 _atom_site_pbe_bader_spin_density
 _atom_site_pbe_cm5_charge
 _atom_site_pbe_ddec_charge
 _atom_site_pbe_ddec_spin_density
 _atom_site_pbe_ddec_sum_bond_order
 _atom_site_pbe_magmom
Al  Al0  1  0.95922180  0.49999281  0.49999348  1  2.503578  0  0.427079  1.589399  0  2.574667  0
Al  Al1  1  0.04456525  0.16667481  0.83333438  1  2.504807  0  0.428539  1.588728  0  2.586449  0
H  H2  1  0.63386247  0.41334816  0.83175403  1  0.113247  0  0.12004  0.131573  0  0.971147  0
H  H3  1  0.15488747  0.12293766  0.53953652  1  0.062069  0  0.101413  0.111648  0  0.996926  0
H  H4  1  0.59158780  0.10572678  0.51634888  1  0.062033  0  0.104032  0.113813  0  0.985437  0
H  H5  1  0.56415633  0.19376719  0.43572489  1  0.079504  0  0.103487  0.12354  0  0.996005  0
H  H6  1  0.12924854  0.21171459  0.45943397  1  0.056536  0  0.102002  0.120276  0  0.993467  0
H  H7  1  0.63392986  0.91842120  0.58667577  1  0.105212  0  0.120043  0.13155  0  0.97118  0
H  H8  1  0.15480652  0.91661113  0.87704464  1  0.051782  0  0.101489  0.111798  0  0.997118  0
H  H9  1  0.59149351  0.91063306  0.89427901  1  0.066636  0  0.103972  0.113807  0  0.985188  0
H  H10  1  0.56398813  0.74195756  0.80624414  1  0.077072  0  0.103448  0.123473  0  0.995622  0
H  H11  1  0.12908377  0.74773249  0.78826543  1  0.058263  0  0.101973  0.120163  0  0.99359  0
H  H12  1  0.63388964  0.16824333  0.08157087  1  0.066429  0  0.12005  0.131671  0  0.971106  0
H  H13  1  0.15484171  0.46045416  0.08340024  1  0.06141  0  0.101466  0.111788  0  0.996829  0
H  H14  1  0.59155397  0.48366988  0.08940800  1  0.061239  0  0.104025  0.113875  0  0.985281  0
H  H15  1  0.56395337  0.56429572  0.25807732  1  0.080488  0  0.103451  0.123504  0  0.995468  0
H  H16  1  0.12905627  0.54053319  0.25227237  1  0.059178  0  0.102001  0.120174  0  0.993732  0
H  H17  1  0.92993853  0.52803318  0.68928415  1  0.610571  0  0.312703  0.349611  0  0.958169  0
H  H18  1  0.92996953  0.66124471  0.47198105  1  0.645838  0  0.312607  0.349456  0  0.958002  0
H  H19  1  0.92992981  0.31070666  0.33874039  1  0.64834  0  0.312669  0.349495  0  0.958249  0
C  C20  1  0.46596465  0.42791705  0.36162085  1  1.575514  0  0.283985  0.674509  0  4.044157  0
C  C21  1  0.46600375  0.43369744  0.57206782  1  1.55677  0  0.284013  0.674588  0  4.044051  0
C  C22  1  0.46599208  0.63836857  0.56629875  1  1.520732  0  0.284064  0.674706  0  4.04356  0
C  C23  1  0.54275729  0.23392082  0.76328586  1  1.582578  0  0.281426  0.668883  0  4.058803  0
C  C24  1  0.54274161  0.02937339  0.76608458  1  1.588599  0  0.28159  0.669026  0  4.058801  0
C  C25  1  0.54277162  0.23671841  0.97062867  1  1.580983  0  0.281589  0.669262  0  4.05858  0
C  C26  1  0.53004364  0.28469245  0.71454641  1  -0.002128  0  -0.000781  -0.068384  0  3.960713  0
C  C27  1  0.49369479  0.38557471  0.62326909  1  -0.0306  0  -0.012622  -0.123436  0  3.983329  0
C  C28  1  0.46173449  0.24405208  0.62310755  1  0.002523  0  0.003358  0.064917  0  3.874296  0
C  C29  1  0.55814527  0.42827807  0.71667617  1  -0.08351  0  -0.015023  -0.086031  0  4.00377  0
C  C30  1  0.45162047  0.29287536  0.57840832  1  -0.043434  0  -0.005262  0.060536  0  3.890405  0
C  C31  1  0.58042655  0.37790490  0.76006729  1  0.068987  0  -0.064944  -0.095982  0  3.918566  0
C  C32  1  0.38962255  0.15567554  0.53856045  1  -0.023933  0  -0.142931  -0.192272  0  3.848032  0
C  C33  1  0.37449205  0.21113150  0.48805533  1  -0.013229  0  -0.146888  -0.198411  0  3.821142  0
C  C34  1  0.53002911  0.92985990  0.71531446  1  -0.058143  0  -0.00088  -0.068573  0  3.960842  0
C  C35  1  0.49367002  0.73769899  0.61443506  1  0.090253  0  -0.012687  -0.123487  0  3.98323  0
C  C36  1  0.46170016  0.87905893  0.75594830  1  0.121886  0  0.003313  0.064934  0  3.874328  0
C  C37  1  0.55816070  0.78840493  0.57173664  1  -0.085301  0  -0.01505  -0.086227  0  4.003901  0
C  C38  1  0.45157712  0.78553217  0.70712845  1  -0.194894  0  -0.005214  0.060609  0  3.890459  0
C  C39  1  0.58045075  0.88217084  0.62210809  1  0.132443  0  -0.064917  -0.095814  0  3.918859  0
C  C40  1  0.38953046  0.88289172  0.84431720  1  -0.012477  0  -0.14298  -0.192659  0  3.848418  0
C  C41  1  0.37436885  0.77692789  0.78886741  1  -0.01272  0  -0.14678  -0.197983  0  3.820797  0
C  C42  1  0.53002721  0.28545727  0.07014128  1  -0.080118  0  -0.000744  -0.068569  0  3.960886  0
C  C43  1  0.49362453  0.37671868  0.26229365  1  -0.097536  0  -0.012557  -0.123276  0  3.983556  0
C  C44  1  0.46169931  0.37689176  0.12094519  1  0.077246  0  0.003337  0.065042  0  3.874312  0
C  C45  1  0.55811654  0.28331859  0.21158574  1  -0.001991  0  -0.015208  -0.086336  0  4.003922  0
C  C46  1  0.45154234  0.42158703  0.21446932  1  -0.050224  0  -0.005214  0.060447  0  3.890518  0
C  C47  1  0.58042560  0.23992764  0.11781858  1  0.120156  0  -0.064929  -0.095954  0  3.91859  0
C  C48  1  0.38955733  0.46144226  0.11713045  1  -0.015381  0  -0.143013  -0.192724  0  3.848159  0
C  C49  1  0.37435493  0.51194048  0.22309026  1  -0.018045  0  -0.146862  -0.19804  0  3.820613  0
C  C50  1  0.59861392  0.52811769  0.77396573  1  1.549156  0  0.225681  0.566165  0  4.133013  0
C  C51  1  0.59865446  0.74585391  0.47189928  1  1.504528  0  0.225862  0.566352  0  4.133367  0
C  C52  1  0.59859234  0.22602348  0.25412829  1  1.534263  0  0.22586  0.566439  0  4.132488  0
O  O53  1  0.68846504  0.59640114  0.58362223  1  -1.258989  0  -0.230802  -0.590721  0  2.40643  0
O  O54  1  0.68843348  0.48721250  0.40358472  1  -1.255463  0  -0.230759  -0.590591  0  2.406596  0
O  O55  1  0.68844937  0.41636177  0.51276929  1  -1.244279  0  -0.230807  -0.590596  0  2.40641  0
O  O56  1  0.21795585  0.60039358  0.51280864  1  -1.260557  0  -0.226299  -0.597807  0  2.388644  0
O  O57  1  0.21796276  0.48718124  0.58758320  1  -1.258665  0  -0.226261  -0.59768  0  2.388629  0
O  O58  1  0.21793855  0.41240234  0.39959151  1  -1.259729  0  -0.226321  -0.597644  0  2.388656  0
O  O59  1  0.78072816  0.18089871  0.93254520  1  -1.252688  0  -0.232749  -0.592932  0  2.354099  0
O  O60  1  0.78072262  0.25166088  0.81910703  1  -1.254344  0  -0.232644  -0.592705  0  2.354219  0
O  O61  1  0.78068698  0.06746375  0.74835228  1  -1.253969  0  -0.232736  -0.59274  0  2.354088  0
O  O62  1  0.31145325  0.25416005  0.93036643  1  -1.247532  0  -0.234867  -0.593549  0  2.34108  0
O  O63  1  0.31142283  0.06963341  0.82378321  1  -1.252149  0  -0.234867  -0.593478  0  2.341188  0
O  O64  1  0.31142634  0.17622018  0.74584449  1  -1.242855  0  -0.234823  -0.593432  0  2.3411  0
O  O65  1  0.78997026  0.56990154  0.74053683  1  -1.117715  0  -0.334594  -0.46946  0  2.295233  0
O  O66  1  0.46163003  0.57106433  0.84639713  1  -1.098247  0  -0.275802  -0.436504  0  2.044271  0
O  O67  1  0.78998899  0.67064225  0.43012438  1  -1.150432  0  -0.334385  -0.46915  0  2.295391  0
O  O68  1  0.46168211  0.77533647  0.42894900  1  -1.094082  0  -0.275963  -0.436647  0  2.044395  0
O  O69  1  0.78995569  0.25944972  0.32934129  1  -1.154398  0  -0.334563  -0.469366  0  2.295171  0
O  O70  1  0.46155607  0.15359473  0.22463893  1  -1.101097  0  -0.27584  -0.436599  0  2.044205  0
