# generated using pymatgen
data_NaH7C3S3(NO)2
_symmetry_space_group_name_H-M   'P 1'
_cell_length_a   6.78904631
_cell_length_b   7.48550172
_cell_length_c   8.59780528
_cell_angle_alpha   101.68715774
_cell_angle_beta   89.99993952
_cell_angle_gamma   90.00018440
_symmetry_Int_Tables_number   1
_chemical_formula_structural   NaH7C3S3(NO)2
_chemical_formula_sum   'Na2 H14 C6 S6 N4 O4'
_cell_volume   427.87701680
_cell_formula_units_Z   2
loop_
 _symmetry_equiv_pos_site_id
 _symmetry_equiv_pos_as_xyz
  1  'x, y, z'
loop_
 _atom_site_type_symbol
 _atom_site_label
 _atom_site_symmetry_multiplicity
 _atom_site_fract_x
 _atom_site_fract_y
 _atom_site_fract_z
 _atom_site_occupancy
 _atom_site_pbe_bader_spin_density
 _atom_site_pbe_cm5_charge
 _atom_site_pbe_ddec_charge
 _atom_site_pbe_ddec_spin_density
 _atom_site_pbe_ddec_sum_bond_order
 _atom_site_pbe_magmom
Na  Na0  1  0.75000047  0.92927692  0.06405089  1  0  0.613542  0.837052  0  0.550146  0
Na  Na1  1  0.25000067  0.07071235  0.93594742  1  0  0.613552  0.837081  0  0.550093  0
H  H2  1  0.42769929  0.16123546  0.23433531  1  0  0.279131  0.354301  0  1.003117  0
H  H3  1  0.92769639  0.83875990  0.76566861  1  0  0.279194  0.354471  0  1.002916  0
H  H4  1  0.57230332  0.83875652  0.76566814  1  0  0.279181  0.354472  0  1.002916  0
H  H5  1  0.07230328  0.16123617  0.23433558  1  0  0.27911  0.354274  0  1.003156  0
H  H6  1  0.56436377  0.28542274  0.15125757  1  0  0.257491  0.341548  0  1.017063  0
H  H7  1  0.06436136  0.71456586  0.84873845  1  0  0.257492  0.341592  0  1.016981  0
H  H8  1  0.43563736  0.71456381  0.84873793  1  0  0.25749  0.341574  0  1.017005  0
H  H9  1  0.93563978  0.28542205  0.15125846  1  0  0.25749  0.341549  0  1.017051  0
H  H10  1  0.74999778  0.38103157  0.77577419  1  0  0.097096  0.152393  0  0.999919  0
H  H11  1  0.24999747  0.61897411  0.22421777  1  0  0.097027  0.152319  0  0.999751  0
H  H12  1  0.88354203  0.18043664  0.79134311  1  0  0.103103  0.148291  0  1.01225  0
H  H13  1  0.38354080  0.81957766  0.20866193  1  0  0.103115  0.148378  0  1.012169  0
H  H14  1  0.11645468  0.81957717  0.20866195  1  0  0.103099  0.14836  0  1.012193  0
H  H15  1  0.61645297  0.18043344  0.79134031  1  0  0.103101  0.148349  0  1.012206  0
C  C16  1  0.75000165  0.93861563  0.49044206  1  0  0.216034  0.303885  0  4.165013  0
C  C17  1  0.24999654  0.06139688  0.50954764  1  0  0.216134  0.30393  0  4.165301  0
C  C18  1  0.75000143  0.67385738  0.31628290  1  0  0.106  0.174088  0  4.201476  0
C  C19  1  0.24999676  0.32614688  0.68372160  1  0  0.106071  0.174222  0  4.2013  0
C  C20  1  0.74999760  0.23154667  0.74387875  1  0  -0.223217  -0.381941  0  3.839874  0
C  C21  1  0.24999764  0.76846579  0.25612374  1  0  -0.22316  -0.381996  0  3.839734  0
S  S22  1  0.75000417  0.61668378  0.50290609  1  0  0.171073  0.144151  0  3.083815  0
S  S23  1  0.24999991  0.38331365  0.49709835  1  0  0.171057  0.144085  0  3.083537  0
S  S24  1  0.74999916  0.17570935  0.53050429  1  0  0.043793  0.066941  0  2.869425  0
S  S25  1  0.24999756  0.82428402  0.46949476  1  0  0.043734  0.066848  0  2.869212  0
S  S26  1  0.74999989  0.52779533  0.13812793  1  0  -0.17451  -0.417655  0  2.300312  0
S  S27  1  0.25000124  0.47220483  0.86187583  1  0  -0.174504  -0.417662  0  2.300442  0
N  N28  1  0.74999997  0.83539196  0.60035846  1  0  -0.339761  -0.431646  0  3.307016  0
N  N29  1  0.24999970  0.16459860  0.39965520  1  0  -0.339837  -0.431515  0  3.307596  0
N  N30  1  0.75000313  0.85681955  0.33407788  1  0  -0.406902  -0.454975  0  3.379674  0
N  N31  1  0.24999801  0.14317513  0.66592955  1  0  -0.406908  -0.455064  0  3.379526  0
O  O32  1  0.50080831  0.16368666  0.13498562  1  0  -0.69129  -0.840327  0  2.059454  0
O  O33  1  0.00079587  0.83631949  0.86500314  1  0  -0.69138  -0.840539  0  2.059415  0
O  O34  1  0.49920608  0.83631630  0.86500353  1  0  -0.691364  -0.840516  0  2.059433  0
O  O35  1  0.99919642  0.16368621  0.13498534  1  0  -0.691277  -0.840314  0  2.059535  0
