# generated using pymatgen
data_SmH8C6O7
_symmetry_space_group_name_H-M   'P 1'
_cell_length_a   7.78996686
_cell_length_b   10.80489651
_cell_length_c   12.77001814
_cell_angle_alpha   71.77925434
_cell_angle_beta   72.22930830
_cell_angle_gamma   68.85610104
_symmetry_Int_Tables_number   1
_chemical_formula_structural   SmH8C6O7
_chemical_formula_sum   'Sm4 H32 C24 O28'
_cell_volume   929.48961136
_cell_formula_units_Z   4
loop_
 _symmetry_equiv_pos_site_id
 _symmetry_equiv_pos_as_xyz
  1  'x, y, z'
loop_
 _atom_site_type_symbol
 _atom_site_label
 _atom_site_symmetry_multiplicity
 _atom_site_fract_x
 _atom_site_fract_y
 _atom_site_fract_z
 _atom_site_occupancy
 _atom_site_hle17_bader_spin_density
 _atom_site_hle17_ddec_charge
 _atom_site_hle17_ddec_spin_density
 _atom_site_hle17_ddec_sum_bond_order
 _atom_site_hle17_magmom
 _atom_site_hse06_10hf_bader_spin_density
 _atom_site_hse06_10hf_ddec_charge
 _atom_site_hse06_10hf_ddec_spin_density
 _atom_site_hse06_10hf_ddec_sum_bond_order
 _atom_site_hse06_10hf_magmom
 _atom_site_hse06_bader_spin_density
 _atom_site_hse06_ddec_charge
 _atom_site_hse06_ddec_spin_density
 _atom_site_hse06_ddec_sum_bond_order
 _atom_site_hse06_magmom
 _atom_site_pbe_bader_spin_density
 _atom_site_pbe_cm5_charge
 _atom_site_pbe_ddec_charge
 _atom_site_pbe_ddec_spin_density
 _atom_site_pbe_ddec_sum_bond_order
 _atom_site_pbe_magmom
Sm  Sm0  1  0.01571296  0.30978841  0.22918283  1  0  2.310647  0  1.619324  0  0  2.219759  0  1.96083  0  0  2.264179  0  1.919645  0  0  1.520287  2.120518  0  2.112131  0
Sm  Sm1  1  0.55470687  0.19015268  0.27085071  1  0  2.309736  0  1.621729  0  0  2.218707  0  1.963426  0  0  2.263133  0  1.922246  0  0  1.51959  2.118955  0  2.115396  0
Sm  Sm2  1  0.98428683  0.69021123  0.77081771  1  0  2.310655  0  1.619309  0  0  2.219757  0  1.960811  0  0  2.264179  0  1.919625  0  0  1.520295  2.120522  0  2.1121  0
Sm  Sm3  1  0.44529449  0.80984697  0.72914827  1  0  2.309728  0  1.62172  0  0  2.218705  0  1.963419  0  0  2.263133  0  1.92224  0  0  1.519575  2.118952  0  2.115389  0
H  H4  1  0.82256371  0.58230880  0.08820935  1  0  0.449617  0  0.842984  0  0  0.419977  0  0.903659  0  0  0.431071  0  0.887331  0  0  0.303183  0.41187  0  0.915382  0
H  H5  1  0.49317991  0.91767331  0.41174349  1  0  0.451196  0  0.841265  0  0  0.420885  0  0.902981  0  0  0.432075  0  0.886516  0  0  0.303329  0.41272  0  0.914776  0
H  H6  1  0.17743567  0.41769186  0.91179100  1  0  0.449616  0  0.842993  0  0  0.419983  0  0.903656  0  0  0.431076  0  0.887328  0  0  0.303176  0.411878  0  0.915378  0
H  H7  1  0.50682176  0.08232633  0.58825652  1  0  0.451235  0  0.841211  0  0  0.420953  0  0.9029  0  0  0.432145  0  0.886428  0  0  0.303359  0.412788  0  0.914692  0
H  H8  1  0.66259786  0.50111538  0.14541668  1  0  0.433696  0  0.860681  0  0  0.405115  0  0.92061  0  0  0.415718  0  0.905088  0  0  0.299731  0.397208  0  0.932003  0
H  H9  1  0.30927571  0.99889467  0.35447141  1  0  0.43423  0  0.860191  0  0  0.405767  0  0.9198  0  0  0.41638  0  0.904314  0  0  0.29985  0.397815  0  0.93124  0
H  H10  1  0.33740115  0.49888426  0.85458465  1  0  0.433579  0  0.860853  0  0  0.405033  0  0.920711  0  0  0.415636  0  0.90519  0  0  0.29967  0.397126  0  0.932107  0
H  H11  1  0.69072408  0.00110498  0.64552914  1  0  0.434221  0  0.860196  0  0  0.405764  0  0.919797  0  0  0.416376  0  0.904312  0  0  0.299849  0.39781  0  0.931238  0
H  H12  1  0.09298606  0.83150984  0.48601852  1  0  0.111452  0  0.940437  0  0  0.124263  0  1.003866  0  0  0.126942  0  1.003123  0  0  0.112243  0.122815  0  1.003702  0
H  H13  1  0.41059078  0.66839030  0.01393644  1  0  0.111566  0  0.940491  0  0  0.123791  0  1.004802  0  0  0.126552  0  1.004034  0  0  0.112378  0.122292  0  1.004644  0
H  H14  1  0.90701311  0.16848981  0.51397995  1  0  0.111453  0  0.940487  0  0  0.124265  0  1.00391  0  0  0.126945  0  1.003168  0  0  0.112248  0.122817  0  1.003747  0
H  H15  1  0.58940901  0.33160934  0.98606411  1  0  0.111549  0  0.940495  0  0  0.123773  0  1.004808  0  0  0.126534  0  1.00404  0  0  0.11237  0.122275  0  1.00465  0
H  H16  1  0.18884646  0.79503273  0.35184901  1  0  0.104261  0  0.912746  0  0  0.124323  0  0.962756  0  0  0.126252  0  0.962305  0  0  0.106421  0.122708  0  0.963749  0
H  H17  1  0.33560202  0.70486570  0.14811890  1  0  0.102857  0  0.91251  0  0  0.122682  0  0.962979  0  0  0.124668  0  0.962512  0  0  0.10602  0.121053  0  0.963921  0
H  H18  1  0.81115470  0.20496895  0.64815165  1  0  0.104293  0  0.912715  0  0  0.124316  0  0.962766  0  0  0.126244  0  0.962317  0  0  0.106427  0.122702  0  0.963758  0
H  H19  1  0.66439777  0.29513394  0.85188164  1  0  0.102876  0  0.912509  0  0  0.122704  0  0.962971  0  0  0.124691  0  0.962504  0  0  0.106031  0.121075  0  0.963912  0
H  H20  1  0.87232852  0.75920451  0.36085263  1  0  0.116704  0  0.91478  0  0  0.132971  0  0.966247  0  0  0.135584  0  0.964828  0  0  0.110855  0.130892  0  0.967902  0
H  H21  1  0.99225563  0.74102572  0.13899654  1  0  0.115889  0  0.914528  0  0  0.131839  0  0.96643  0  0  0.134364  0  0.965121  0  0  0.110376  0.129824  0  0.968007  0
H  H22  1  0.12767555  0.24079310  0.63914620  1  0  0.116713  0  0.914821  0  0  0.132987  0  0.966285  0  0  0.135601  0  0.964864  0  0  0.110851  0.130905  0  0.967942  0
H  H23  1  0.00774405  0.25897494  0.86100484  1  0  0.11591  0  0.91452  0  0  0.131859  0  0.966419  0  0  0.134384  0  0.965111  0  0  0.110391  0.129845  0  0.967996  0
H  H24  1  0.01022929  0.63675961  0.45797411  1  0  0.123007  0  0.915426  0  0  0.138391  0  0.970687  0  0  0.140881  0  0.969484  0  0  0.11254  0.136438  0  0.972116  0
H  H25  1  0.10510765  0.86333713  0.04190991  1  0  0.122894  0  0.914974  0  0  0.138224  0  0.970302  0  0  0.140807  0  0.968965  0  0  0.112564  0.136194  0  0.971822  0
H  H26  1  0.98977557  0.36323800  0.54202394  1  0  0.122994  0  0.915502  0  0  0.138384  0  0.970775  0  0  0.140874  0  0.969571  0  0  0.112513  0.136431  0  0.972204  0
H  H27  1  0.89489214  0.13666252  0.95809063  1  0  0.122885  0  0.914984  0  0  0.138209  0  0.970316  0  0  0.140791  0  0.96898  0  0  0.112559  0.13618  0  0.971836  0
H  H28  1  0.34152739  0.13379989  0.97247106  1  0  0.123326  0  0.923605  0  0  0.139304  0  0.976263  0  0  0.141989  0  0.975333  0  0  0.112145  0.137091  0  0.977719  0
H  H29  1  0.44744912  0.36638103  0.52755104  1  0  0.123025  0  0.923148  0  0  0.138896  0  0.975934  0  0  0.141563  0  0.975035  0  0  0.111877  0.136735  0  0.977297  0
H  H30  1  0.65847167  0.86620077  0.02752826  1  0  0.123308  0  0.923568  0  0  0.139292  0  0.976239  0  0  0.141977  0  0.975306  0  0  0.112143  0.137079  0  0.977696  0
H  H31  1  0.55255145  0.63361862  0.47244872  1  0  0.12303  0  0.923153  0  0  0.138894  0  0.975938  0  0  0.141565  0  0.975038  0  0  0.111878  0.136735  0  0.977299  0
H  H32  1  0.31085182  0.99689108  0.08536231  1  0  0.108695  0  0.903737  0  0  0.127338  0  0.955202  0  0  0.129329  0  0.95487  0  0  0.111842  0.125804  0  0.95587  0
H  H33  1  0.39278439  0.50339415  0.41471656  1  0  0.110389  0  0.903406  0  0  0.129181  0  0.954664  0  0  0.131135  0  0.954391  0  0  0.112497  0.127598  0  0.955405  0
H  H34  1  0.68914766  0.00310857  0.91463720  1  0  0.108686  0  0.903724  0  0  0.127344  0  0.955189  0  0  0.129335  0  0.954857  0  0  0.111843  0.125811  0  0.955858  0
H  H35  1  0.60721540  0.49660550  0.58528398  1  0  0.110372  0  0.903418  0  0  0.129157  0  0.954678  0  0  0.131113  0  0.954405  0  0  0.112478  0.127568  0  0.955427  0
C  C36  1  0.96925235  0.98273779  0.35513271  1  0  0.758572  0  3.799464  0  0  0.716772  0  4.100247  0  0  0.750367  0  4.090262  0  0  0.239036  0.693406  0  4.102636  0
C  C37  1  0.30688389  0.51728724  0.14484641  1  0  0.762228  0  3.796271  0  0  0.719679  0  4.098438  0  0  0.753244  0  4.088585  0  0  0.240013  0.696301  0  4.100804  0
C  C38  1  0.03074744  0.01726186  0.64486784  1  0  0.758641  0  3.799377  0  0  0.716764  0  4.100282  0  0  0.750361  0  4.090297  0  0  0.239034  0.693397  0  4.102673  0
C  C39  1  0.69311590  0.48271241  0.85515414  1  0  0.762207  0  3.7963  0  0  0.71966  0  4.098461  0  0  0.753234  0  4.088594  0  0  0.240004  0.696281  0  4.10083  0
C  C40  1  0.05476420  0.83406328  0.40912745  1  0  -0.238537  0  3.642049  0  0  -0.279383  0  3.892032  0  0  -0.284795  0  3.900318  0  0  -0.15329  -0.276298  0  3.888374  0
C  C41  1  0.29788465  0.66591842  0.09078932  1  0  -0.237049  0  3.640138  0  0  -0.277177  0  3.89045  0  0  -0.282804  0  3.89893  0  0  -0.15245  -0.273906  0  3.886582  0
C  C42  1  0.94523637  0.16593637  0.59087231  1  0  -0.238561  0  3.642093  0  0  -0.279338  0  3.892086  0  0  -0.284754  0  3.900377  0  0  -0.153277  -0.276253  0  3.888428  0
C  C43  1  0.70211435  0.33408122  0.90921201  1  0  -0.237052  0  3.640141  0  0  -0.277183  0  3.890456  0  0  -0.282812  0  3.898931  0  0  -0.152445  -0.273911  0  3.886589  0
C  C44  1  0.92671289  0.74383766  0.43506400  1  0  -0.235977  0  3.641152  0  0  -0.276538  0  3.889432  0  0  -0.28141  0  3.896414  0  0  -0.154467  -0.273928  0  3.886688  0
C  C45  1  0.10562223  0.75631014  0.06482222  1  0  -0.233784  0  3.640461  0  0  -0.274141  0  3.888621  0  0  -0.278978  0  3.895576  0  0  -0.154403  -0.271578  0  3.885839  0
C  C46  1  0.07328649  0.25616301  0.56493635  1  0  -0.235972  0  3.641214  0  0  -0.276577  0  3.889519  0  0  -0.281448  0  3.896501  0  0  -0.154463  -0.273964  0  3.886774  0
C  C47  1  0.89437756  0.24368950  0.93517832  1  0  -0.233742  0  3.640505  0  0  -0.27412  0  3.888625  0  0  -0.278957  0  3.895581  0  0  -0.154387  -0.271557  0  3.885845  0
C  C48  1  0.76199769  0.76833044  0.53398346  1  0  0.757279  0  3.760803  0  0  0.71345  0  4.06154  0  0  0.747557  0  4.05098  0  0  0.229497  0.690476  0  4.061186  0
C  C49  1  0.06438678  0.73186231  0.96588842  1  0  0.753255  0  3.766607  0  0  0.709936  0  4.066695  0  0  0.744031  0  4.056155  0  0  0.228447  0.686977  0  4.066372  0
C  C50  1  0.23800487  0.23166819  0.46601493  1  0  0.757218  0  3.760793  0  0  0.713421  0  4.0615  0  0  0.747529  0  4.050943  0  0  0.229516  0.690446  0  4.061147  0
C  C51  1  0.93561072  0.26813835  0.03411246  1  0  0.753176  0  3.766729  0  0  0.709976  0  4.066641  0  0  0.744072  0  4.056097  0  0  0.228451  0.687018  0  4.066319  0
C  C52  1  0.47305411  0.10495660  0.10467075  1  0  0.734029  0  3.81938  0  0  0.689868  0  4.124617  0  0  0.723311  0  4.115262  0  0  0.21003  0.667631  0  4.122969  0
C  C53  1  0.68244129  0.39502686  0.39530190  1  0  0.737773  0  3.816736  0  0  0.693901  0  4.121331  0  0  0.72731  0  4.111921  0  0  0.212166  0.67163  0  4.11983  0
C  C54  1  0.52694496  0.89504407  0.89532856  1  0  0.734041  0  3.819404  0  0  0.689897  0  4.124623  0  0  0.723328  0  4.115284  0  0  0.210042  0.667659  0  4.122977  0
C  C55  1  0.31755959  0.60497279  0.60469890  1  0  0.737717  0  3.816798  0  0  0.693844  0  4.121392  0  0  0.727253  0  4.111983  0  0  0.212122  0.671575  0  4.119885  0
C  C56  1  0.41717240  0.04815070  0.03099232  1  0  -0.231401  0  3.684145  0  0  -0.270436  0  3.932734  0  0  -0.275864  0  3.941239  0  0  -0.155366  -0.267293  0  3.928345  0
C  C57  1  0.49608913  0.45195931  0.46901547  1  0  -0.23365  0  3.685294  0  0  -0.272908  0  3.93417  0  0  -0.278284  0  3.942754  0  0  -0.156202  -0.269812  0  3.929782  0
C  C58  1  0.58282666  0.95184997  0.96900700  1  0  -0.231323  0  3.684049  0  0  -0.270432  0  3.932703  0  0  -0.275849  0  3.941204  0  0  -0.155373  -0.267291  0  3.928316  0
C  C59  1  0.50391175  0.54804033  0.53098532  1  0  -0.233712  0  3.685358  0  0  -0.272946  0  3.934216  0  0  -0.278329  0  3.942803  0  0  -0.156227  -0.269849  0  3.929828  0
O  O60  1  0.77645134  0.51452220  0.15372941  1  0  -0.920146  0  1.854238  0  0  -0.878615  0  2.031209  0  0  -0.896983  0  1.99938  0  0  -0.643697  -0.85809  0  2.058259  0
O  O61  1  0.44488405  0.98543194  0.34618724  1  0  -0.922546  0  1.853056  0  0  -0.880331  0  2.030735  0  0  -0.898814  0  1.998614  0  0  -0.643929  -0.859659  0  2.058008  0
O  O62  1  0.22354736  0.48547744  0.84627089  1  0  -0.920033  0  1.854425  0  0  -0.878506  0  2.031372  0  0  -0.896872  0  1.999535  0  0  -0.643618  -0.85799  0  2.058419  0
O  O63  1  0.55511533  0.01456872  0.65381311  1  0  -0.922579  0  1.853034  0  0  -0.880398  0  2.030635  0  0  -0.898888  0  1.998529  0  0  -0.643961  -0.859724  0  2.057913  0
O  O64  1  0.07003183  0.06374174  0.32800605  1  0  -0.748596  0  2.008976  0  0  -0.703285  0  2.254479  0  0  -0.728607  0  2.243295  0  0  -0.365613  -0.677065  0  2.262872  0
O  O65  1  0.46163079  0.43623529  0.17188393  1  0  -0.7493  0  2.009896  0  0  -0.703246  0  2.255366  0  0  -0.72856  0  2.244151  0  0  -0.364391  -0.676937  0  2.2637  0
O  O66  1  0.92996717  0.93625791  0.67199527  1  0  -0.748645  0  2.008956  0  0  -0.703291  0  2.254468  0  0  -0.728609  0  2.243275  0  0  -0.365626  -0.677073  0  2.262863  0
O  O67  1  0.53837088  0.56376436  0.82811609  1  0  -0.749253  0  2.009897  0  0  -0.703226  0  2.255365  0  0  -0.728546  0  2.244153  0  0  -0.364377  -0.676913  0  2.263693  0
O  O68  1  0.80357654  0.01718293  0.34060976  1  0  -0.712087  0  2.033043  0  0  -0.66688  0  2.284302  0  0  -0.691036  0  2.272645  0  0  -0.395935  -0.639869  0  2.293314  0
O  O69  1  0.16100149  0.48294411  0.15955511  1  0  -0.714493  0  2.028388  0  0  -0.669349  0  2.280506  0  0  -0.693445  0  2.268768  0  0  -0.398093  -0.642539  0  2.289614  0
O  O70  1  0.19642325  0.98281671  0.65939078  1  0  -0.712093  0  2.032987  0  0  -0.666877  0  2.284307  0  0  -0.691033  0  2.272651  0  0  -0.395935  -0.639867  0  2.293321  0
O  O71  1  0.83899830  0.51705553  0.84044544  1  0  -0.714493  0  2.028419  0  0  -0.669339  0  2.280518  0  0  -0.693439  0  2.268777  0  0  -0.398091  -0.64253  0  2.289627  0
O  O72  1  0.59243611  0.81585751  0.52205091  1  0  -0.692367  0  2.030905  0  0  -0.643647  0  2.265943  0  0  -0.668458  0  2.255451  0  0  -0.342483  -0.620052  0  2.272819  0
O  O73  1  0.93054122  0.68424416  0.97784602  1  0  -0.693514  0  2.033507  0  0  -0.645086  0  2.268297  0  0  -0.669843  0  2.257698  0  0  -0.342911  -0.621647  0  2.275423  0
O  O74  1  0.40756634  0.18414214  0.47794832  1  0  -0.69237  0  2.030936  0  0  -0.643653  0  2.265956  0  0  -0.668469  0  2.255463  0  0  -0.342479  -0.620056  0  2.272831  0
O  O75  1  0.06945888  0.31575548  0.02215556  1  0  -0.693486  0  2.033479  0  0  -0.645128  0  2.268242  0  0  -0.669883  0  2.257639  0  0  -0.342924  -0.621689  0  2.275369  0
O  O76  1  0.79169425  0.73735583  0.63407536  1  0  -0.83415  0  2.118901  0  0  -0.791606  0  2.3795  0  0  -0.817067  0  2.368321  0  0  -0.433922  -0.758314  0  2.386704  0
O  O77  1  0.16314925  0.76291113  0.86576721  1  0  -0.83149  0  2.121978  0  0  -0.788777  0  2.381809  0  0  -0.814208  0  2.370588  0  0  -0.433638  -0.755519  0  2.389116  0
O  O78  1  0.20830789  0.26264382  0.36592283  1  0  -0.834104  0  2.118876  0  0  -0.791568  0  2.379469  0  0  -0.817024  0  2.368284  0  0  -0.433913  -0.758274  0  2.386673  0
O  O79  1  0.83684944  0.23708851  0.13423308  1  0  -0.831491  0  2.122062  0  0  -0.788817  0  2.381834  0  0  -0.814247  0  2.370612  0  0  -0.433662  -0.755563  0  2.389151  0
O  O80  1  0.34470867  0.19428522  0.15734662  1  0  -0.856762  0  2.140923  0  0  -0.818675  0  2.414313  0  0  -0.843264  0  2.401751  0  0  -0.465646  -0.785571  0  2.421907  0
O  O81  1  0.69605091  0.30580745  0.34257263  1  0  -0.857471  0  2.140333  0  0  -0.819736  0  2.413887  0  0  -0.844358  0  2.401455  0  0  -0.465954  -0.786609  0  2.421554  0
O  O82  1  0.65528852  0.80571545  0.84265322  1  0  -0.856839  0  2.140952  0  0  -0.818764  0  2.414339  0  0  -0.843347  0  2.401778  0  0  -0.465729  -0.785655  0  2.421923  0
O  O83  1  0.30394847  0.69419321  0.65742772  1  0  -0.857415  0  2.14039  0  0  -0.819689  0  2.413959  0  0  -0.844315  0  2.401532  0  0  -0.465922  -0.78656  0  2.421616  0
O  O84  1  0.64069269  0.06793613  0.11610724  1  0  -0.660176  0  1.938885  0  0  -0.621362  0  2.171279  0  0  -0.644599  0  2.162637  0  0  -0.356462  -0.598826  0  2.177249  0
O  O85  1  0.82464436  0.43183364  0.38394179  1  0  -0.662796  0  1.938761  0  0  -0.623796  0  2.170792  0  0  -0.647026  0  2.162161  0  0  -0.35804  -0.601397  0  2.176889  0
O  O86  1  0.35930408  0.93206555  0.88389241  1  0  -0.66018  0  1.938955  0  0  -0.621351  0  2.171317  0  0  -0.644582  0  2.162678  0  0  -0.356417  -0.598817  0  2.177291  0
O  O87  1  0.17535465  0.56816601  0.61605954  1  0  -0.662792  0  1.938743  0  0  -0.623782  0  2.170767  0  0  -0.647011  0  2.162134  0  0  -0.358029  -0.601384  0  2.176862  0
