# generated using pymatgen
data_ZnH8C7NClO
_symmetry_space_group_name_H-M   'P 1'
_cell_length_a   5.05346140
_cell_length_b   9.17214490
_cell_length_c   18.19082366
_cell_angle_alpha   90.00003754
_cell_angle_beta   90.00010999
_cell_angle_gamma   89.99996454
_symmetry_Int_Tables_number   1
_chemical_formula_structural   ZnH8C7NClO
_chemical_formula_sum   'Zn4 H32 C28 N4 Cl4 O4'
_cell_volume   843.16432719
_cell_formula_units_Z   4
loop_
 _symmetry_equiv_pos_site_id
 _symmetry_equiv_pos_as_xyz
  1  'x, y, z'
loop_
 _atom_site_type_symbol
 _atom_site_label
 _atom_site_symmetry_multiplicity
 _atom_site_fract_x
 _atom_site_fract_y
 _atom_site_fract_z
 _atom_site_occupancy
 _atom_site_hle17_bader_spin_density
 _atom_site_hle17_ddec_charge
 _atom_site_hle17_ddec_spin_density
 _atom_site_hle17_ddec_sum_bond_order
 _atom_site_hle17_magmom
 _atom_site_hse06_10hf_bader_spin_density
 _atom_site_hse06_10hf_ddec_charge
 _atom_site_hse06_10hf_ddec_spin_density
 _atom_site_hse06_10hf_ddec_sum_bond_order
 _atom_site_hse06_10hf_magmom
 _atom_site_hse06_bader_spin_density
 _atom_site_hse06_ddec_charge
 _atom_site_hse06_ddec_spin_density
 _atom_site_hse06_ddec_sum_bond_order
 _atom_site_hse06_magmom
 _atom_site_pbe_bader_spin_density
 _atom_site_pbe_cm5_charge
 _atom_site_pbe_ddec_charge
 _atom_site_pbe_ddec_spin_density
 _atom_site_pbe_ddec_sum_bond_order
 _atom_site_pbe_magmom
Zn  Zn0  1  0.86998201  0.22233393  0.06500612  1  0  0.981362  0  1.962617  0  0  0.808245  0  2.441459  0  0  0.852028  0  2.386837  0  0  0.615317  0.775669  0  2.480947  0
Zn  Zn1  1  0.63001919  0.77766569  0.56500660  1  0  0.981365  0  1.962613  0  0  0.80825  0  2.441449  0  0  0.852038  0  2.386832  0  0  0.615317  0.775673  0  2.480955  0
Zn  Zn2  1  0.36998314  0.27766624  0.93499409  1  0  0.981348  0  1.962627  0  0  0.808241  0  2.441456  0  0  0.852018  0  2.38683  0  0  0.615321  0.775658  0  2.480947  0
Zn  Zn3  1  0.13001891  0.72233294  0.43499475  1  0  0.981364  0  1.962605  0  0  0.808246  0  2.441427  0  0  0.852037  0  2.386809  0  0  0.615309  0.775674  0  2.480925  0
H  H4  1  0.99982474  0.93691017  0.97407314  1  0  0.049339  0  0.945283  0  0  0.06524  0  1.014064  0  0  0.06428  0  1.015728  0  0  0.091875  0.066367  0  1.012271  0
H  H5  1  0.50017956  0.06308907  0.47407378  1  0  0.049323  0  0.945323  0  0  0.065189  0  1.014124  0  0  0.064225  0  1.015792  0  0  0.091865  0.066321  0  1.012328  0
H  H6  1  0.49982154  0.56308960  0.02592648  1  0  0.049291  0  0.945344  0  0  0.065203  0  1.014122  0  0  0.064238  0  1.015795  0  0  0.091864  0.066334  0  1.012327  0
H  H7  1  0.00017571  0.43691014  0.52592733  1  0  0.049325  0  0.945307  0  0  0.065214  0  1.014083  0  0  0.064253  0  1.015747  0  0  0.091863  0.066345  0  1.012286  0
H  H8  1  0.25693240  0.96293178  0.03954929  1  0  0.053464  0  0.952902  0  0  0.067147  0  1.025087  0  0  0.066674  0  1.025188  0  0  0.088713  0.066922  0  1.025481  0
H  H9  1  0.24307286  0.03706907  0.53954903  1  0  0.053486  0  0.952893  0  0  0.067161  0  1.02507  0  0  0.0667  0  1.025158  0  0  0.088725  0.066938  0  1.025466  0
H  H10  1  0.75692776  0.53706898  0.96045103  1  0  0.053487  0  0.952872  0  0  0.067176  0  1.025057  0  0  0.066714  0  1.025146  0  0  0.088729  0.066955  0  1.025452  0
H  H11  1  0.74306825  0.46293115  0.46045111  1  0  0.053454  0  0.952887  0  0  0.06712  0  1.025081  0  0  0.066651  0  1.025175  0  0  0.088705  0.066898  0  1.025471  0
H  H12  1  0.35519700  0.73469239  0.93955250  1  0  0.110807  0  0.967626  0  0  0.119029  0  1.032814  0  0  0.122165  0  1.032546  0  0  0.099115  0.116078  0  1.034766  0
H  H13  1  0.14480509  0.26530789  0.43955082  1  0  0.110873  0  0.96756  0  0  0.119064  0  1.03277  0  0  0.1222  0  1.032501  0  0  0.099102  0.116095  0  1.034755  0
H  H14  1  0.85519380  0.76530943  0.06044896  1  0  0.110796  0  0.967608  0  0  0.119033  0  1.032778  0  0  0.122168  0  1.032511  0  0  0.099097  0.116066  0  1.034759  0
H  H15  1  0.64480142  0.23469236  0.56044817  1  0  0.110859  0  0.967552  0  0  0.119041  0  1.032781  0  0  0.122177  0  1.032512  0  0  0.099092  0.116076  0  1.034755  0
H  H16  1  0.70215096  0.68876735  0.84482901  1  0  0.095168  0  0.938705  0  0  0.104774  0  1.000161  0  0  0.107587  0  0.997532  0  0  0.104837  0.102804  0  1.001914  0
H  H17  1  0.79784821  0.31123263  0.34482852  1  0  0.095215  0  0.93866  0  0  0.104813  0  1.000128  0  0  0.107625  0  0.997499  0  0  0.104852  0.102841  0  1.001879  0
H  H18  1  0.20215261  0.81123343  0.15517128  1  0  0.095155  0  0.938681  0  0  0.104757  0  1.00015  0  0  0.107569  0  0.997521  0  0  0.104817  0.102788  0  1.001905  0
H  H19  1  0.29784751  0.18876538  0.65517165  1  0  0.095201  0  0.938684  0  0  0.104805  0  1.000139  0  0  0.107617  0  0.997511  0  0  0.104847  0.102835  0  1.001889  0
H  H20  1  0.90211256  0.90337574  0.77826147  1  0  0.114453  0  0.962377  0  0  0.126182  0  1.020235  0  0  0.128727  0  1.020748  0  0  0.1031  0.124382  0  1.01975  0
H  H21  1  0.59788219  0.09662306  0.27826190  1  0  0.114444  0  0.962272  0  0  0.126175  0  1.020135  0  0  0.12872  0  1.020647  0  0  0.103089  0.124373  0  1.019653  0
H  H22  1  0.40211887  0.59662497  0.22173783  1  0  0.114469  0  0.962223  0  0  0.1262  0  1.020088  0  0  0.128746  0  1.020599  0  0  0.1031  0.124401  0  1.019603  0
H  H23  1  0.09788567  0.40337393  0.72173871  1  0  0.114469  0  0.96233  0  0  0.126198  0  1.020193  0  0  0.128743  0  1.020707  0  0  0.103108  0.124399  0  1.019707  0
H  H24  1  0.62565292  0.26209831  0.78222262  1  0  0.11845  0  0.957168  0  0  0.138189  0  1.021715  0  0  0.139287  0  1.022153  0  0  0.092047  0.137287  0  1.021445  0
H  H25  1  0.87434779  0.73790050  0.28222287  1  0  0.118502  0  0.957044  0  0  0.138239  0  1.021596  0  0  0.139337  0  1.022033  0  0  0.092076  0.13734  0  1.021327  0
H  H26  1  0.12565509  0.23790085  0.21777746  1  0  0.118483  0  0.957118  0  0  0.13822  0  1.021661  0  0  0.139319  0  1.022097  0  0  0.092068  0.137318  0  1.021393  0
H  H27  1  0.37434744  0.76209804  0.71777696  1  0  0.118478  0  0.957084  0  0  0.138212  0  1.021638  0  0  0.139311  0  1.022075  0  0  0.092057  0.137313  0  1.021368  0
H  H28  1  0.90858965  0.15929677  0.75493805  1  0  0.125832  0  0.946343  0  0  0.147644  0  1.002492  0  0  0.149255  0  1.002383  0  0  0.091833  0.146307  0  1.00287  0
H  H29  1  0.59141088  0.84070418  0.25493873  1  0  0.125842  0  0.946336  0  0  0.147655  0  1.002486  0  0  0.149265  0  1.002376  0  0  0.09184  0.146316  0  1.002869  0
H  H30  1  0.40859188  0.34070557  0.24506164  1  0  0.125845  0  0.946317  0  0  0.147648  0  1.002479  0  0  0.149258  0  1.002371  0  0  0.091838  0.146312  0  1.002856  0
H  H31  1  0.09140886  0.65929555  0.74506150  1  0  0.125832  0  0.94633  0  0  0.147647  0  1.002474  0  0  0.149257  0  1.002364  0  0  0.091837  0.146312  0  1.002849  0
H  H32  1  0.90608467  0.25705477  0.83994191  1  0  0.118059  0  0.995203  0  0  0.133065  0  1.071019  0  0  0.135387  0  1.068866  0  0  0.08313  0.131423  0  1.072424  0
H  H33  1  0.59391249  0.74294521  0.33994146  1  0  0.118076  0  0.995199  0  0  0.133085  0  1.07101  0  0  0.135409  0  1.068852  0  0  0.083128  0.131446  0  1.072413  0
H  H34  1  0.40608841  0.24294648  0.16005832  1  0  0.118051  0  0.995216  0  0  0.133057  0  1.07103  0  0  0.135381  0  1.068873  0  0  0.08312  0.131415  0  1.072437  0
H  H35  1  0.09391174  0.75705234  0.66005822  1  0  0.118063  0  0.995197  0  0  0.133049  0  1.071043  0  0  0.135371  0  1.068889  0  0  0.083115  0.13141  0  1.072444  0
C  C36  1  0.17836828  0.00238937  0.98631877  1  0  0.059661  0  3.782482  0  0  -0.007599  0  4.04466  0  0  -0.000409  0  4.052665  0  0  -0.087722  -0.012216  0  4.038178  0
C  C37  1  0.32163611  0.99761206  0.48631908  1  0  0.059627  0  3.782476  0  0  -0.007538  0  4.044599  0  0  -0.00035  0  4.052588  0  0  -0.087725  -0.012164  0  4.038123  0
C  C38  1  0.67836648  0.49761196  0.01368134  1  0  0.059665  0  3.782488  0  0  -0.007594  0  4.044691  0  0  -0.000407  0  4.052684  0  0  -0.087733  -0.012227  0  4.038221  0
C  C39  1  0.82163238  0.50238868  0.51368182  1  0  0.059642  0  3.782529  0  0  -0.007536  0  4.044645  0  0  -0.000343  0  4.05264  0  0  -0.087722  -0.012159  0  4.038162  0
C  C40  1  0.38268096  0.96860713  0.92822486  1  0  0.244002  0  3.716658  0  0  0.243766  0  3.958962  0  0  0.25321  0  3.97856  0  0  0.118999  0.236822  0  3.946492  0
C  C41  1  0.11731709  0.03138877  0.42822364  1  0  0.244053  0  3.71659  0  0  0.243689  0  3.959043  0  0  0.253129  0  3.978643  0  0  0.118999  0.236755  0  3.946562  0
C  C42  1  0.88268206  0.53139250  0.07177607  1  0  0.244014  0  3.716714  0  0  0.243679  0  3.959156  0  0  0.253119  0  3.978758  0  0  0.118992  0.236741  0  3.946679  0
C  C43  1  0.61731522  0.46860821  0.57177534  1  0  0.244006  0  3.716656  0  0  0.243665  0  3.959095  0  0  0.253105  0  3.978695  0  0  0.118979  0.236719  0  3.946628  0
C  C44  1  0.45321877  0.82515756  0.91188090  1  0  -0.178733  0  3.721618  0  0  -0.198523  0  3.972538  0  0  -0.208483  0  3.994481  0  0  -0.093529  -0.192688  0  3.9604  0
C  C45  1  0.04678708  0.17484595  0.41188079  1  0  -0.178755  0  3.72123  0  0  -0.198469  0  3.972184  0  0  -0.208428  0  3.994125  0  0  -0.093488  -0.192625  0  3.96004  0
C  C46  1  0.95321192  0.67484423  0.08811842  1  0  -0.178732  0  3.721428  0  0  -0.198498  0  3.972367  0  0  -0.208458  0  3.994311  0  0  -0.093541  -0.192646  0  3.960225  0
C  C47  1  0.54678548  0.32515542  0.58811870  1  0  -0.178742  0  3.721352  0  0  -0.198464  0  3.972285  0  0  -0.208423  0  3.994227  0  0  -0.093523  -0.192622  0  3.960146  0
C  C48  1  0.64456665  0.80024402  0.85841608  1  0  0.016217  0  3.743348  0  0  -0.003173  0  3.999052  0  0  0.003397  0  4.015458  0  0  -0.066211  -0.007253  0  3.988509  0
C  C49  1  0.85542865  0.19975271  0.35841449  1  0  0.016153  0  3.743591  0  0  -0.003238  0  3.999292  0  0  0.003331  0  4.0157  0  0  -0.0662  -0.007315  0  3.98874  0
C  C50  1  0.14457229  0.69975678  0.14158473  1  0  0.016307  0  3.743374  0  0  -0.003071  0  3.999063  0  0  0.0035  0  4.015469  0  0  -0.066105  -0.007151  0  3.988519  0
C  C51  1  0.35542773  0.30024420  0.64158462  1  0  0.016208  0  3.74347  0  0  -0.003169  0  3.999147  0  0  0.0034  0  4.015555  0  0  -0.066143  -0.00724  0  3.98859  0
C  C52  1  0.75752666  0.91877132  0.82187243  1  0  -0.188904  0  3.704244  0  0  -0.209317  0  3.950778  0  0  -0.219016  0  3.972869  0  0  -0.092442  -0.202584  0  3.935268  0
C  C53  1  0.74247631  0.08123081  0.32187349  1  0  -0.188857  0  3.704372  0  0  -0.209277  0  3.950895  0  0  -0.218974  0  3.972987  0  0  -0.092441  -0.20254  0  3.935385  0
C  C54  1  0.25752476  0.58123162  0.17812624  1  0  -0.188991  0  3.704379  0  0  -0.209423  0  3.950908  0  0  -0.219122  0  3.972998  0  0  -0.09249  -0.20269  0  3.9354  0
C  C55  1  0.24247551  0.41876722  0.67812666  1  0  -0.188915  0  3.704341  0  0  -0.209359  0  3.950857  0  0  -0.219056  0  3.972947  0  0  -0.092484  -0.202628  0  3.935348  0
C  C56  1  0.67748701  0.05999294  0.83965486  1  0  0.33735  0  3.709812  0  0  0.343609  0  3.949051  0  0  0.353666  0  3.969328  0  0  0.125956  0.337129  0  3.935053  0
C  C57  1  0.82251014  0.94000486  0.33965514  1  0  0.337359  0  3.709758  0  0  0.343656  0  3.948937  0  0  0.353711  0  3.969213  0  0  0.125948  0.337174  0  3.934946  0
C  C58  1  0.17749053  0.44000839  0.16034470  1  0  0.337373  0  3.70984  0  0  0.343686  0  3.948995  0  0  0.353744  0  3.969269  0  0  0.125949  0.337203  0  3.934999  0
C  C59  1  0.32250764  0.55999371  0.66034521  1  0  0.33729  0  3.709791  0  0  0.343638  0  3.948916  0  0  0.353695  0  3.969191  0  0  0.125937  0.337159  0  3.934921  0
C  C60  1  0.78614105  0.19124682  0.80191775  1  0  -0.391075  0  3.720961  0  0  -0.472776  0  3.954635  0  0  -0.476093  0  3.961341  0  0  -0.24678  -0.470389  0  3.950234  0
C  C61  1  0.71385387  0.80875420  0.30191793  1  0  -0.391153  0  3.720924  0  0  -0.472863  0  3.954575  0  0  -0.476179  0  3.961281  0  0  -0.246794  -0.470475  0  3.950179  0
C  C62  1  0.28614497  0.30875447  0.19808187  1  0  -0.391091  0  3.720923  0  0  -0.472793  0  3.954564  0  0  -0.47611  0  3.961271  0  0  -0.246765  -0.470399  0  3.95016  0
C  C63  1  0.21385544  0.69124440  0.69808181  1  0  -0.39108  0  3.720959  0  0  -0.472772  0  3.954575  0  0  -0.476089  0  3.961281  0  0  -0.246761  -0.470386  0  3.950168  0
N  N64  1  0.49413563  0.08229641  0.89300589  1  0  -0.415908  0  3.219971  0  0  -0.333891  0  3.474016  0  0  -0.355055  0  3.486672  0  0  -0.33175  -0.319548  0  3.466819  0
N  N65  1  0.00587009  0.91770599  0.39300710  1  0  -0.41603  0  3.220073  0  0  -0.333971  0  3.474122  0  0  -0.355141  0  3.486793  0  0  -0.331806  -0.319634  0  3.466929  0
N  N66  1  0.99413457  0.41770590  0.10699384  1  0  -0.415974  0  3.219981  0  0  -0.333952  0  3.474062  0  0  -0.355117  0  3.48672  0  0  -0.331779  -0.319609  0  3.466862  0
N  N67  1  0.50586692  0.58229377  0.60699364  1  0  -0.415926  0  3.219967  0  0  -0.333938  0  3.474066  0  0  -0.355105  0  3.486727  0  0  -0.331749  -0.319592  0  3.46687  0
Cl  Cl68  1  0.71669729  0.03091639  0.12581528  1  0  -0.578228  0  0.922671  0  0  -0.505663  0  1.193351  0  0  -0.522486  0  1.168973  0  0  -0.290355  -0.491904  0  1.210984  0
Cl  Cl69  1  0.78330432  0.96908331  0.62581480  1  0  -0.578241  0  0.922702  0  0  -0.505655  0  1.193363  0  0  -0.522479  0  1.16899  0  0  -0.290355  -0.491895  0  1.210995  0
Cl  Cl70  1  0.21669779  0.46908383  0.87418485  1  0  -0.578222  0  0.922665  0  0  -0.505657  0  1.193345  0  0  -0.522479  0  1.16897  0  0  -0.290359  -0.491898  0  1.210975  0
Cl  Cl71  1  0.28330186  0.53091636  0.37418498  1  0  -0.578225  0  0.922672  0  0  -0.505656  0  1.193342  0  0  -0.522485  0  1.168971  0  0  -0.290356  -0.491897  0  1.210975  0
O  O72  1  0.11665209  0.15169360  0.98963639  1  0  -0.671282  0  2.190525  0  0  -0.565936  0  2.512899  0  0  -0.594105  0  2.495055  0  0  -0.40613  -0.5446  0  2.523457  0
O  O73  1  0.38334836  0.84830783  0.48963612  1  0  -0.671305  0  2.190529  0  0  -0.56597  0  2.512862  0  0  -0.594145  0  2.495025  0  0  -0.406131  -0.544634  0  2.52343  0
O  O74  1  0.61665242  0.34830883  0.01036424  1  0  -0.671302  0  2.190562  0  0  -0.565927  0  2.512909  0  0  -0.594099  0  2.495068  0  0  -0.406125  -0.544583  0  2.523461  0
O  O75  1  0.88334642  0.65169180  0.51036426  1  0  -0.671289  0  2.190592  0  0  -0.565932  0  2.512911  0  0  -0.594108  0  2.495073  0  0  -0.406111  -0.544602  0  2.523491  0
