# generated using pymatgen
data_KDyH4C20(OF3)8
_symmetry_space_group_name_H-M   'P 1'
_cell_length_a   11.87295422
_cell_length_b   12.17988260
_cell_length_c   13.33572215
_cell_angle_alpha   73.82740914
_cell_angle_beta   65.02882715
_cell_angle_gamma   63.84191975
_symmetry_Int_Tables_number   1
_chemical_formula_structural   KDyH4C20(OF3)8
_chemical_formula_sum   'K2 Dy2 H8 C40 O16 F48'
_cell_volume   1559.01358903
_cell_formula_units_Z   2
loop_
 _symmetry_equiv_pos_site_id
 _symmetry_equiv_pos_as_xyz
  1  'x, y, z'
loop_
 _atom_site_type_symbol
 _atom_site_label
 _atom_site_symmetry_multiplicity
 _atom_site_fract_x
 _atom_site_fract_y
 _atom_site_fract_z
 _atom_site_occupancy
 _atom_site_hle17_bader_spin_density
 _atom_site_hle17_ddec_charge
 _atom_site_hle17_ddec_spin_density
 _atom_site_hle17_ddec_sum_bond_order
 _atom_site_hle17_magmom
 _atom_site_hse06_10hf_bader_spin_density
 _atom_site_hse06_10hf_ddec_charge
 _atom_site_hse06_10hf_ddec_spin_density
 _atom_site_hse06_10hf_ddec_sum_bond_order
 _atom_site_hse06_10hf_magmom
 _atom_site_hse06_bader_spin_density
 _atom_site_hse06_ddec_charge
 _atom_site_hse06_ddec_spin_density
 _atom_site_hse06_ddec_sum_bond_order
 _atom_site_hse06_magmom
 _atom_site_pbe_bader_spin_density
 _atom_site_pbe_cm5_charge
 _atom_site_pbe_ddec_charge
 _atom_site_pbe_ddec_spin_density
 _atom_site_pbe_ddec_sum_bond_order
 _atom_site_pbe_magmom
K  K0  1  0.00000365  0.50000659  0.49999572  1  0  0.931918  0  0.502841  0  0  0.860795  0  0.719046  0  0  0.877332  0  0.695577  0  0  0.843382  0.84859  0  0.737458  0
K  K1  1  0.99999916  0.00000280  0.99999908  1  0  0.941687  0  0.461337  0  0  0.874176  0  0.66643  0  0  0.891136  0  0.642111  0  0  0.796537  0.861887  0  0.684981  0
Dy  Dy2  1  0.91792698  0.72475198  0.23458626  1  0  2.140975  0  1.841932  0  0  2.062269  0  2.173816  0  0  2.200725  0  1.96672  0  0  1.513224  2.024816  0  2.205307  0
Dy  Dy3  1  0.08207404  0.27524663  0.76541123  1  0  2.141013  0  1.841882  0  0  2.06234  0  2.173781  0  0  2.200738  0  1.966701  0  0  1.513207  2.024837  0  2.205291  0
H  H4  1  0.47738274  0.70170066  0.45125776  1  0  0.151502  0  0.970076  0  0  0.147002  0  1.050568  0  0  0.152688  0  1.048698  0  0  0.098048  0.143042  0  1.051969  0
H  H5  1  0.52261915  0.29829799  0.54874390  1  0  0.150959  0  0.971159  0  0  0.147017  0  1.050577  0  0  0.152697  0  1.048712  0  0  0.098051  0.143055  0  1.051981  0
H  H6  1  0.75067104  0.69582865  0.97292267  1  0  0.148215  0  0.966462  0  0  0.147103  0  1.041604  0  0  0.152017  0  1.040705  0  0  0.099735  0.143633  0  1.042323  0
H  H7  1  0.24932923  0.30417180  0.02707462  1  0  0.148261  0  0.966428  0  0  0.147156  0  1.04155  0  0  0.152059  0  1.040672  0  0  0.099762  0.143676  0  1.042286  0
H  H8  1  0.84277270  0.02872104  0.45253938  1  0  0.147429  0  0.981949  0  0  0.141652  0  1.065053  0  0  0.1469  0  1.063836  0  0  0.096433  0.137858  0  1.066165  0
H  H9  1  0.15722999  0.97127572  0.54745796  1  0  0.148334  0  0.980302  0  0  0.141587  0  1.065151  0  0  0.14684  0  1.063924  0  0  0.096406  0.137791  0  1.066268  0
H  H10  1  0.40643003  0.52426950  0.12694795  1  0  0.149496  0  0.962226  0  0  0.149927  0  1.034063  0  0  0.154884  0  1.033339  0  0  0.101472  0.146404  0  1.034715  0
H  H11  1  0.59356961  0.47573009  0.87305655  1  0  0.149503  0  0.962233  0  0  0.149978  0  1.034028  0  0  0.15494  0  1.033298  0  0  0.101506  0.146437  0  1.034703  0
C  C12  1  0.65839736  0.51730528  0.52759706  1  0  0.712783  0  3.621108  0  0  0.641397  0  3.956942  0  0  0.670334  0  3.92859  0  0  0.301453  0.620868  0  3.976563  0
C  C13  1  0.34160377  0.48269522  0.47240590  1  0  0.712754  0  3.621212  0  0  0.641303  0  3.957272  0  0  0.670238  0  3.928943  0  0  0.301448  0.620891  0  3.976694  0
C  C14  1  0.68365318  0.62542110  0.43898336  1  0  0.325159  0  3.801303  0  0  0.307359  0  4.069875  0  0  0.330834  0  4.077403  0  0  0.12887  0.292042  0  4.066935  0
C  C15  1  0.31634742  0.37457846  0.56101854  1  0  0.325181  0  3.801346  0  0  0.30735  0  4.069913  0  0  0.330823  0  4.077444  0  0  0.128844  0.292001  0  4.066958  0
C  C16  1  0.57400688  0.71089347  0.40843003  1  0  -0.35159  0  3.725729  0  0  -0.402252  0  4.007461  0  0  -0.426163  0  4.02837  0  0  -0.14647  -0.386569  0  3.993284  0
C  C17  1  0.42599688  0.28910518  0.59157093  1  0  -0.352251  0  3.727226  0  0  -0.402288  0  4.007387  0  0  -0.426189  0  4.028297  0  0  -0.146484  -0.386598  0  3.993202  0
C  C18  1  0.58604470  0.81014899  0.32630640  1  0  0.32381  0  3.80547  0  0  0.307201  0  4.07153  0  0  0.329572  0  4.081253  0  0  0.128927  0.29255  0  4.067266  0
C  C19  1  0.41395888  0.18984781  0.67369435  1  0  0.32314  0  3.806862  0  0  0.307238  0  4.071516  0  0  0.329602  0  4.081253  0  0  0.128946  0.292592  0  4.067245  0
C  C20  1  0.45943806  0.90887071  0.30326813  1  0  0.707272  0  3.645959  0  0  0.636247  0  3.982129  0  0  0.664478  0  3.955061  0  0  0.297028  0.616047  0  4.001221  0
C  C21  1  0.54056404  0.09112517  0.69673266  1  0  0.705178  0  3.64947  0  0  0.636133  0  3.982272  0  0  0.664368  0  3.955199  0  0  0.297051  0.615936  0  4.001358  0
C  C22  1  0.76151150  0.50207384  0.12808347  1  0  0.712752  0  3.638935  0  0  0.641807  0  3.973951  0  0  0.67116  0  3.944805  0  0  0.299205  0.621234  0  3.99362  0
C  C23  1  0.23848281  0.49793214  0.87191536  1  0  0.712658  0  3.639071  0  0  0.641918  0  3.973648  0  0  0.670938  0  3.945151  0  0  0.299131  0.621046  0  3.993909  0
C  C24  1  0.81410924  0.60321864  0.11382140  1  0  0.312335  0  3.821133  0  0  0.295215  0  4.09054  0  0  0.317693  0  4.099963  0  0  0.123287  0.280524  0  4.086532  0
C  C25  1  0.18588804  0.39678458  0.88617778  1  0  0.312478  0  3.820866  0  0  0.295432  0  4.090189  0  0  0.317832  0  4.099739  0  0  0.123305  0.280652  0  4.086309  0
C  C26  1  0.79921315  0.69656858  0.02577369  1  0  -0.346218  0  3.73561  0  0  -0.397361  0  4.019141  0  0  -0.420848  0  4.040077  0  0  -0.143956  -0.381981  0  4.005028  0
C  C27  1  0.20078879  0.30343003  0.97422345  1  0  -0.346316  0  3.735535  0  0  -0.397478  0  4.019106  0  0  -0.420948  0  4.040042  0  0  -0.144031  -0.382069  0  4.004987  0
C  C28  1  0.85749839  0.78384624  0.99752366  1  0  0.328413  0  3.807053  0  0  0.307315  0  4.082153  0  0  0.330897  0  4.089072  0  0  0.130478  0.291729  0  4.080003  0
C  C29  1  0.14250243  0.21615513  0.00247393  1  0  0.328316  0  3.80714  0  0  0.307094  0  4.08245  0  0  0.330792  0  4.089137  0  0  0.130464  0.291613  0  4.080078  0
C  C30  1  0.86519920  0.85846682  0.88168931  1  0  0.713727  0  3.630134  0  0  0.642967  0  3.965075  0  0  0.671701  0  3.937392  0  0  0.302068  0.622653  0  3.984152  0
C  C31  1  0.13479976  0.14153916  0.11830779  1  0  0.714001  0  3.629885  0  0  0.643314  0  3.964701  0  0  0.672042  0  3.937044  0  0  0.30218  0.622989  0  3.983804  0
C  C32  1  0.99580796  0.81095021  0.52215063  1  0  0.717165  0  3.624684  0  0  0.641225  0  3.968026  0  0  0.670004  0  3.939945  0  0  0.302483  0.620777  0  3.987488  0
C  C33  1  0.00419791  0.18905022  0.47784234  1  0  0.71309  0  3.631479  0  0  0.640877  0  3.968402  0  0  0.669682  0  3.940308  0  0  0.302431  0.620428  0  3.987871  0
C  C34  1  0.93943054  0.83701506  0.42879155  1  0  0.330704  0  3.792763  0  0  0.311784  0  4.063634  0  0  0.335244  0  4.070893  0  0  0.129046  0.296381  0  4.061031  0
C  C35  1  0.06057626  0.16298077  0.57120226  1  0  0.329351  0  3.795792  0  0  0.31195  0  4.063394  0  0  0.3354  0  4.070666  0  0  0.12906  0.296542  0  4.060797  0
C  C36  1  0.86807307  0.96083027  0.40072881  1  0  -0.346715  0  3.734457  0  0  -0.396866  0  4.017824  0  0  -0.420669  0  4.038595  0  0  -0.143661  -0.381468  0  4.004422  0
C  C37  1  0.13192887  0.03916834  0.59926834  1  0  -0.346711  0  3.734396  0  0  -0.396867  0  4.017904  0  0  -0.420668  0  4.03868  0  0  -0.143658  -0.381468  0  4.004505  0
C  C38  1  0.83602968  0.00018324  0.30391953  1  0  0.323196  0  3.820373  0  0  0.303892  0  4.091291  0  0  0.326942  0  4.099926  0  0  0.126383  0.288528  0  4.088318  0
C  C39  1  0.16396912  0.99981167  0.69607899  1  0  0.323124  0  3.820249  0  0  0.303832  0  4.091135  0  0  0.326893  0  4.099754  0  0  0.126354  0.288481  0  4.088153  0
C  C40  1  0.75256240  0.13770611  0.28247722  1  0  0.709479  0  3.642801  0  0  0.638832  0  3.977948  0  0  0.667068  0  3.950911  0  0  0.300483  0.618188  0  3.997654  0
C  C41  1  0.24743468  0.86229068  0.71752520  1  0  0.709616  0  3.642799  0  0  0.638787  0  3.97816  0  0  0.667044  0  3.951081  0  0  0.300453  0.618151  0  3.997842  0
C  C42  1  0.29167459  0.36281853  0.25300270  1  0  0.710643  0  3.638639  0  0  0.640427  0  3.972936  0  0  0.668359  0  3.946958  0  0  0.301429  0.620527  0  3.99101  0
C  C43  1  0.70832544  0.63718011  0.74699964  1  0  0.710585  0  3.63852  0  0  0.640301  0  3.97292  0  0  0.668235  0  3.946936  0  0  0.301438  0.620389  0  3.991015  0
C  C44  1  0.21913929  0.50002266  0.21698449  1  0  0.310634  0  3.827889  0  0  0.291111  0  4.102321  0  0  0.313824  0  4.111548  0  0  0.121746  0.276126  0  4.098535  0
C  C45  1  0.78086073  0.49997600  0.78301936  1  0  0.310523  0  3.827996  0  0  0.291068  0  4.102358  0  0  0.3138  0  4.111543  0  0  0.121776  0.276112  0  4.098517  0
C  C46  1  0.29861427  0.56804554  0.14862840  1  0  -0.342009  0  3.73266  0  0  -0.393041  0  4.013187  0  0  -0.416371  0  4.033713  0  0  -0.142279  -0.37775  0  3.999454  0
C  C47  1  0.70138518  0.43195221  0.85137739  1  0  -0.342009  0  3.732695  0  0  -0.393135  0  4.013245  0  0  -0.416442  0  4.033709  0  0  -0.142306  -0.377782  0  3.999445  0
C  C48  1  0.24269677  0.69265175  0.11074792  1  0  0.332815  0  3.793815  0  0  0.315484  0  4.062017  0  0  0.338953  0  4.069148  0  0  0.135306  0.300048  0  4.059612  0
C  C49  1  0.75730139  0.30734691  0.88925662  1  0  0.332958  0  3.793804  0  0  0.315575  0  4.062099  0  0  0.339092  0  4.069142  0  0  0.135302  0.300161  0  4.059639  0
C  C50  1  0.34043583  0.76151473  0.04850524  1  0  0.709705  0  3.643826  0  0  0.641913  0  3.973725  0  0  0.670065  0  3.946667  0  0  0.30309  0.62169  0  3.992887  0
C  C51  1  0.65956065  0.23848578  0.95150019  1  0  0.709489  0  3.644153  0  0  0.641763  0  3.973986  0  0  0.6699  0  3.946962  0  0  0.303159  0.621562  0  3.993127  0
O  O52  1  0.80194008  0.62378307  0.40111552  1  0  -0.608148  0  2.127414  0  0  -0.57431  0  2.366442  0  0  -0.60825  0  2.358659  0  0  -0.400235  -0.558716  0  2.369718  0
O  O53  1  0.19806314  0.37621465  0.59888439  1  0  -0.607974  0  2.127166  0  0  -0.574216  0  2.366477  0  0  -0.60816  0  2.358697  0  0  -0.400163  -0.558632  0  2.369772  0
O  O54  1  0.69164763  0.83133678  0.26756391  1  0  -0.57174  0  2.130394  0  0  -0.537143  0  2.360919  0  0  -0.571868  0  2.35404  0  0  -0.366656  -0.521325  0  2.362783  0
O  O55  1  0.30835390  0.16866279  0.73243689  1  0  -0.571807  0  2.130612  0  0  -0.537191  0  2.360981  0  0  -0.571928  0  2.354115  0  0  -0.366692  -0.521394  0  2.362858  0
O  O56  1  0.87127968  0.58890408  0.18038002  1  0  -0.563263  0  2.107371  0  0  -0.530979  0  2.339728  0  0  -0.565278  0  2.331982  0  0  -0.362101  -0.515788  0  2.342528  0
O  O57  1  0.12871965  0.41109639  0.81961912  1  0  -0.563309  0  2.107238  0  0  -0.531157  0  2.339744  0  0  -0.565325  0  2.331899  0  0  -0.362097  -0.515848  0  2.342462  0
O  O58  1  0.91120116  0.80353881  0.05180962  1  0  -0.603994  0  2.123042  0  0  -0.573335  0  2.370048  0  0  -0.607166  0  2.361702  0  0  -0.400041  -0.558133  0  2.374134  0
O  O59  1  0.08879875  0.19646255  0.94818682  1  0  -0.603989  0  2.12304  0  0  -0.573442  0  2.370329  0  0  -0.607148  0  2.3617  0  0  -0.400052  -0.558113  0  2.374133  0
O  O60  1  0.86650329  0.93562288  0.22977456  1  0  -0.607611  0  2.146683  0  0  -0.574364  0  2.392505  0  0  -0.608533  0  2.384845  0  0  -0.404489  -0.558575  0  2.396075  0
O  O61  1  0.13349514  0.06437756  0.77022267  1  0  -0.607575  0  2.146462  0  0  -0.574299  0  2.392308  0  0  -0.608478  0  2.384649  0  0  -0.404454  -0.558524  0  2.395889  0
O  O62  1  0.96807473  0.74476382  0.38363301  1  0  -0.603812  0  2.102511  0  0  -0.568289  0  2.336392  0  0  -0.602813  0  2.329655  0  0  -0.384777  -0.552494  0  2.338831  0
O  O63  1  0.03193057  0.25523570  0.61636190  1  0  -0.604449  0  2.103949  0  0  -0.568363  0  2.336275  0  0  -0.602895  0  2.329552  0  0  -0.384786  -0.552578  0  2.338738  0
O  O64  1  0.12063841  0.75734199  0.12538215  1  0  -0.592953  0  2.116339  0  0  -0.560901  0  2.353993  0  0  -0.594629  0  2.34612  0  0  -0.373931  -0.54584  0  2.357336  0
O  O65  1  0.87936015  0.24265573  0.87461948  1  0  -0.593077  0  2.116306  0  0  -0.561086  0  2.354139  0  0  -0.594753  0  2.346108  0  0  -0.373985  -0.545962  0  2.357347  0
O  O66  1  0.09226005  0.53672496  0.25453176  1  0  -0.59857  0  2.095056  0  0  -0.567341  0  2.335995  0  0  -0.601473  0  2.326636  0  0  -0.392588  -0.552176  0  2.340225  0
O  O67  1  0.90773865  0.46327463  0.74547308  1  0  -0.598358  0  2.094813  0  0  -0.567273  0  2.33602  0  0  -0.601407  0  2.326655  0  0  -0.392582  -0.552117  0  2.340244  0
F  F68  1  0.75093965  0.46383298  0.57953302  1  0  -0.266875  0  1.203028  0  0  -0.233323  0  1.383915  0  0  -0.242832  0  1.367483  0  0  -0.125913  -0.226129  0  1.395044  0
F  F69  1  0.24906451  0.53616473  0.42046504  1  0  -0.266271  0  1.202125  0  0  -0.233291  0  1.383926  0  0  -0.242795  0  1.3675  0  0  -0.125935  -0.226115  0  1.395004  0
F  F70  1  0.53590830  0.55210355  0.60807892  1  0  -0.232182  0  1.171391  0  0  -0.202825  0  1.34112  0  0  -0.211121  0  1.323758  0  0  -0.097817  -0.196639  0  1.353103  0
F  F71  1  0.46409576  0.44789883  0.39192622  1  0  -0.232129  0  1.171531  0  0  -0.202776  0  1.34126  0  0  -0.211081  0  1.323913  0  0  -0.097806  -0.196628  0  1.353204  0
F  F72  1  0.66821914  0.42796549  0.47818378  1  0  -0.240343  0  1.173255  0  0  -0.199229  0  1.334205  0  0  -0.210224  0  1.318862  0  0  -0.093422  -0.191593  0  1.345064  0
F  F73  1  0.33177326  0.57203593  0.52182218  1  0  -0.239589  0  1.172317  0  0  -0.19924  0  1.334284  0  0  -0.210222  0  1.318935  0  0  -0.093414  -0.191629  0  1.345098  0
F  F74  1  0.35403162  0.87134877  0.34677453  1  0  -0.244047  0  1.163991  0  0  -0.203243  0  1.321899  0  0  -0.212417  0  1.305024  0  0  -0.100241  -0.196625  0  1.333739  0
F  F75  1  0.64597346  0.12864434  0.65322512  1  0  -0.236907  0  1.156563  0  0  -0.203136  0  1.321887  0  0  -0.212312  0  1.305013  0  0  -0.100187  -0.196515  0  1.33372  0
F  F76  1  0.42034772  0.01287206  0.34925806  1  0  -0.244003  0  1.11161  0  0  -0.213998  0  1.267371  0  0  -0.222542  0  1.250937  0  0  -0.111194  -0.207677  0  1.278813  0
F  F77  1  0.57965122  0.98712473  0.65074367  1  0  -0.245021  0  1.112437  0  0  -0.213999  0  1.267459  0  0  -0.22254  0  1.251021  0  0  -0.111234  -0.20768  0  1.278902  0
F  F78  1  0.48472653  0.93993290  0.19237316  1  0  -0.223944  0  1.14815  0  0  -0.195313  0  1.308593  0  0  -0.204094  0  1.291955  0  0  -0.099906  -0.18881  0  1.320124  0
F  F79  1  0.51527594  0.06006205  0.80762774  1  0  -0.224982  0  1.14905  0  0  -0.195309  0  1.308632  0  0  -0.204092  0  1.291993  0  0  -0.099942  -0.188807  0  1.320165  0
F  F80  1  0.74453332  0.43885494  0.23015739  1  0  -0.214647  0  1.203366  0  0  -0.190018  0  1.379413  0  0  -0.198156  0  1.361227  0  0  -0.093004  -0.184003  0  1.391632  0
F  F81  1  0.25546176  0.56114918  0.76983938  1  0  -0.214534  0  1.203274  0  0  -0.189847  0  1.379248  0  0  -0.198043  0  1.361254  0  0  -0.092939  -0.183897  0  1.391645  0
F  F82  1  0.84986284  0.42015842  0.05134927  1  0  -0.258777  0  1.152503  0  0  -0.215237  0  1.310903  0  0  -0.227121  0  1.298392  0  0  -0.097107  -0.206938  0  1.319939  0
F  F83  1  0.15012556  0.57984845  0.94864852  1  0  -0.258907  0  1.152657  0  0  -0.215478  0  1.310934  0  0  -0.227088  0  1.29847  0  0  -0.097131  -0.206911  0  1.320004  0
F  F84  1  0.64205597  0.55029927  0.11122654  1  0  -0.251732  0  1.143116  0  0  -0.21856  0  1.308227  0  0  -0.22748  0  1.291251  0  0  -0.109622  -0.212023  0  1.319888  0
F  F85  1  0.35793587  0.44971043  0.88877749  1  0  -0.251676  0  1.143175  0  0  -0.218444  0  1.308132  0  0  -0.227421  0  1.291354  0  0  -0.109564  -0.211974  0  1.319976  0
F  F86  1  0.89772194  0.95782134  0.86761305  1  0  -0.268386  0  1.195167  0  0  -0.233958  0  1.374209  0  0  -0.243741  0  1.357612  0  0  -0.136237  -0.22651  0  1.385431  0
F  F87  1  0.10227474  0.04218560  0.13238915  1  0  -0.268446  0  1.19504  0  0  -0.234026  0  1.374089  0  0  -0.243833  0  1.3575  0  0  -0.136296  -0.226606  0  1.385319  0
F  F88  1  0.96233813  0.78569244  0.80100943  1  0  -0.243525  0  1.164454  0  0  -0.206363  0  1.325577  0  0  -0.216412  0  1.30965  0  0  -0.100221  -0.19982  0  1.337431  0
F  F89  1  0.03766195  0.21431538  0.19898603  1  0  -0.243781  0  1.164734  0  0  -0.206492  0  1.325602  0  0  -0.216531  0  1.309625  0  0  -0.100242  -0.199923  0  1.337386  0
F  F90  1  0.74822078  0.90103812  0.86374207  1  0  -0.222492  0  1.173506  0  0  -0.19281  0  1.341208  0  0  -0.201881  0  1.323875  0  0  -0.093502  -0.186084  0  1.353222  0
F  F91  1  0.25177762  0.09896694  0.13625547  1  0  -0.222423  0  1.173246  0  0  -0.19283  0  1.341137  0  0  -0.201917  0  1.323808  0  0  -0.093505  -0.186125  0  1.353156  0
F  F92  1  0.01078142  0.69627361  0.57785586  1  0  -0.25181  0  1.191043  0  0  -0.218067  0  1.365073  0  0  -0.226375  0  1.346806  0  0  -0.115566  -0.211725  0  1.377423  0
F  F93  1  0.98921847  0.30372777  0.42214208  1  0  -0.247971  0  1.187581  0  0  -0.217965  0  1.365169  0  0  -0.226286  0  1.346899  0  0  -0.115506  -0.211629  0  1.377524  0
F  F94  1  0.91704831  0.89330894  0.59779445  1  0  -0.239515  0  1.187878  0  0  -0.202988  0  1.355446  0  0  -0.212585  0  1.338932  0  0  -0.095073  -0.196243  0  1.367118  0
F  F95  1  0.08295851  0.10669608  0.40219548  1  0  -0.240575  0  1.188667  0  0  -0.202864  0  1.355564  0  0  -0.212471  0  1.339041  0  0  -0.095083  -0.196118  0  1.367234  0
F  F96  1  0.11929651  0.81875610  0.47626592  1  0  -0.24384  0  1.155956  0  0  -0.203109  0  1.314874  0  0  -0.21207  0  1.297375  0  0  -0.099117  -0.196404  0  1.326921  0
F  F97  1  0.88071029  0.18123973  0.52372789  1  0  -0.235044  0  1.146922  0  0  -0.203038  0  1.315039  0  0  -0.212008  0  1.297539  0  0  -0.09909  -0.196328  0  1.327085  0
F  F98  1  0.62545299  0.15102543  0.30157751  1  0  -0.231283  0  1.145208  0  0  -0.200097  0  1.306448  0  0  -0.208858  0  1.289482  0  0  -0.100791  -0.193755  0  1.318412  0
F  F99  1  0.37454319  0.84897134  0.69842300  1  0  -0.231303  0  1.145252  0  0  -0.200087  0  1.306563  0  0  -0.208836  0  1.289589  0  0  -0.100723  -0.193737  0  1.318527  0
F  F100  1  0.74583767  0.20890245  0.34845117  1  0  -0.234519  0  1.193829  0  0  -0.193337  0  1.356366  0  0  -0.204029  0  1.341672  0  0  -0.090054  -0.183942  0  1.36492  0
F  F101  1  0.25415697  0.79109343  0.65155463  1  0  -0.234161  0  1.193073  0  0  -0.193385  0  1.356449  0  0  -0.204056  0  1.341741  0  0  -0.090058  -0.183923  0  1.364949  0
F  F102  1  0.80373416  0.18289459  0.17415911  1  0  -0.257242  0  1.171277  0  0  -0.228792  0  1.347142  0  0  -0.236954  0  1.329344  0  0  -0.114011  -0.2227  0  1.359311  0
F  F103  1  0.19626421  0.81710589  0.82584263  1  0  -0.257265  0  1.171271  0  0  -0.228681  0  1.347067  0  0  -0.236943  0  1.329409  0  0  -0.114029  -0.222691  0  1.359385  0
F  F104  1  0.23184083  0.33205615  0.36433101  1  0  -0.266358  0  1.182685  0  0  -0.231939  0  1.357323  0  0  -0.241341  0  1.340921  0  0  -0.13529  -0.224859  0  1.368467  0
F  F105  1  0.76816235  0.66794159  0.63567115  1  0  -0.265956  0  1.182303  0  0  -0.231925  0  1.357207  0  0  -0.241335  0  1.340801  0  0  -0.135345  -0.224851  0  1.368355  0
F  F106  1  0.28508264  0.28910726  0.19716523  1  0  -0.237702  0  1.171062  0  0  -0.196426  0  1.328759  0  0  -0.205009  0  1.311207  0  0  -0.09344  -0.190052  0  1.340855  0
F  F107  1  0.71491163  0.71089414  0.80283853  1  0  -0.237608  0  1.170969  0  0  -0.196358  0  1.328775  0  0  -0.204948  0  1.311217  0  0  -0.093418  -0.189985  0  1.340869  0
F  F108  1  0.42158920  0.33401232  0.23581211  1  0  -0.227274  0  1.210513  0  0  -0.197034  0  1.384199  0  0  -0.206059  0  1.366902  0  0  -0.090429  -0.190498  0  1.39632  0
F  F109  1  0.57841254  0.66598446  0.76418709  1  0  -0.227207  0  1.21052  0  0  -0.196965  0  1.384232  0  0  -0.205998  0  1.366928  0  0  -0.0904  -0.190436  0  1.39635  0
F  F110  1  0.46410790  0.68672038  0.98983303  1  0  -0.239074  0  1.19141  0  0  -0.204754  0  1.364162  0  0  -0.214685  0  1.3475  0  0  -0.097605  -0.197463  0  1.375756  0
F  F111  1  0.53588859  0.31328012  0.01017165  1  0  -0.239033  0  1.191505  0  0  -0.20473  0  1.364236  0  0  -0.214659  0  1.347572  0  0  -0.097631  -0.197443  0  1.37581  0
F  F112  1  0.35448000  0.80700878  0.12321100  1  0  -0.237327  0  1.133265  0  0  -0.207016  0  1.290467  0  0  -0.215386  0  1.273091  0  0  -0.103091  -0.200796  0  1.302606  0
F  F113  1  0.64551851  0.19298897  0.87679514  1  0  -0.237558  0  1.133756  0  0  -0.206952  0  1.290515  0  0  -0.215325  0  1.27314  0  0  -0.103085  -0.200747  0  1.302645  0
F  F114  1  0.29504530  0.85791208  0.97612701  1  0  -0.246337  0  1.164293  0  0  -0.21496  0  1.330943  0  0  -0.223138  0  1.313003  0  0  -0.106331  -0.208812  0  1.343361  0
F  F115  1  0.70495042  0.14209028  0.02387972  1  0  -0.246298  0  1.164406  0  0  -0.214916  0  1.331026  0  0  -0.22311  0  1.313089  0  0  -0.106365  -0.208793  0  1.343431  0
