# generated using pymatgen
data_Zn2H23C45S5N2ClO23
_symmetry_space_group_name_H-M   'P 1'
_cell_length_a   16.49642511
_cell_length_b   17.91242943
_cell_length_c   33.14159175
_cell_angle_alpha   90.31665308
_cell_angle_beta   89.33942259
_cell_angle_gamma   89.96938066
_symmetry_Int_Tables_number   1
_chemical_formula_structural   Zn2H23C45S5N2ClO23
_chemical_formula_sum   'Zn4 H46 C90 S10 N4 Cl2 O46'
_cell_volume   9792.24160689
_cell_formula_units_Z   2
loop_
 _symmetry_equiv_pos_site_id
 _symmetry_equiv_pos_as_xyz
  1  'x, y, z'
loop_
 _atom_site_type_symbol
 _atom_site_label
 _atom_site_symmetry_multiplicity
 _atom_site_fract_x
 _atom_site_fract_y
 _atom_site_fract_z
 _atom_site_occupancy
 _atom_site_pbe_bader_charge
 _atom_site_pbe_bader_spin_density
 _atom_site_pbe_cm5_charge
 _atom_site_pbe_ddec_charge
 _atom_site_pbe_ddec_spin_density
 _atom_site_pbe_ddec_sum_bond_order
 _atom_site_pbe_magmom
Zn  Zn0  1  0.58174546  0.49929767  0.50065643  1  1.288894  0  0.668844  0.811671  0  2.460658  0
Zn  Zn1  1  0.41369974  0.49991178  0.50151386  1  1.288681  0  0.667907  0.810883  0  2.442555  0
Zn  Zn2  1  0.41844589  0.50252218  0.96197242  1  1.286519  0  0.668296  0.811039  0  2.457624  0
Zn  Zn3  1  0.58645328  0.50331537  0.96102641  1  1.288574  0  0.667615  0.810239  0  2.442161  0
H  H4  1  0.28121809  0.59219643  0.53782677  1  0.118154  0  0.141199  0.118155  0  0.951284  0
H  H5  1  0.12845029  0.59387281  0.53844048  1  0.138438  0  0.129545  0.146181  0  0.960366  0
H  H6  1  0.28829006  0.41314980  0.45797949  1  0.178987  0  0.141262  0.126931  0  0.970643  0
H  H7  1  0.70786624  0.57657205  0.54873164  1  0.178032  0  0.141025  0.127619  0  0.967746  0
H  H8  1  0.71351780  0.42097823  0.45563362  1  0.12972  0  0.140539  0.116314  0  0.95232  0
H  H9  1  0.86639017  0.42010461  0.45380108  1  0.135025  0  0.129939  0.146219  0  0.960278  0
H  H10  1  0.63358564  0.73939853  0.49566412  1  0.101611  0  0.115443  0.121358  0  0.982728  0
H  H11  1  0.63146979  0.87913814  0.49483689  1  0.112772  0  0.116682  0.124584  0  0.973447  0
H  H12  1  0.37360905  0.73586002  0.50559732  1  0.16243  0  0.117115  0.130471  0  0.998083  0
H  H13  1  0.62986891  0.26250519  0.50485974  1  0.143512  0  0.116817  0.131189  0  0.995589  0
H  H14  1  0.37022459  0.26003578  0.49509764  1  0.100772  0  0.115131  0.120757  0  0.98394  0
H  H15  1  0.37157552  0.12034381  0.49411993  1  0.107631  0  0.11717  0.125607  0  0.972159  0
H  H16  1  0.36301424  0.50618168  0.63187943  1  0.096584  0  0.104246  0.112256  0  1.003682  0
H  H17  1  0.29134725  0.50733761  0.69837314  1  0.083811  0  0.107095  0.124693  0  0.988451  0
H  H18  1  0.62284851  0.50344730  0.62583960  1  0.076882  0  0.096749  0.107172  0  1.041326  0
H  H19  1  0.63698004  0.50623077  0.83063556  1  0.094115  0  0.104234  0.112158  0  1.003135  0
H  H20  1  0.70862449  0.50690935  0.76415117  1  0.086545  0  0.107243  0.124977  0  0.987278  0
H  H21  1  0.37714825  0.50352640  0.83667405  1  0.129185  0  0.09685  0.107128  0  1.04064  0
H  H22  1  0.37301509  0.49869176  0.09051977  1  0.08182  0  0.112568  0.116817  0  0.990196  0
H  H23  1  0.37202218  0.49861808  0.16610499  1  0.108458  0  0.116281  0.124144  0  0.974351  0
H  H24  1  0.63344731  0.50946646  0.08948438  1  0.147205  0  0.119704  0.135604  0  0.988202  0
H  H25  1  0.36663094  0.50558063  0.37342779  1  0.141063  0  0.119663  0.135406  0  0.988469  0
H  H26  1  0.62707324  0.49447296  0.37191391  1  0.122408  0  0.112449  0.116575  0  0.989611  0
H  H27  1  0.62764661  0.49634092  0.29633325  1  0.070656  0  0.116244  0.124391  0  0.974556  0
H  H28  1  0.71900923  0.59535057  0.92504136  1  0.143298  0  0.141136  0.118125  0  0.950308  0
H  H29  1  0.87178514  0.59621388  0.92408263  1  0.109802  0  0.129749  0.146442  0  0.961136  0
H  H30  1  0.71180263  0.41639564  0.00387248  1  0.17698  0  0.14108  0.126653  0  0.970513  0
H  H31  1  0.29221979  0.57876425  0.91393669  1  0.173921  0  0.141092  0.127839  0  0.968269  0
H  H32  1  0.28658022  0.42370012  0.00637315  1  0.159164  0  0.140734  0.116708  0  0.953078  0
H  H33  1  0.13373891  0.42190997  0.00765741  1  0.130821  0  0.130187  0.146408  0  0.959448  0
H  H34  1  0.36615644  0.74292459  0.96507111  1  0.150876  0  0.115346  0.12131  0  0.982462  0
H  H35  1  0.36806167  0.88268394  0.96502595  1  0.107133  0  0.116684  0.124625  0  0.974218  0
H  H36  1  0.62621287  0.73910588  0.95576743  1  0.164514  0  0.117131  0.133264  0  0.995368  0
H  H37  1  0.37078172  0.26619722  0.95676540  1  0.143281  0  0.116633  0.130903  0  0.996529  0
H  H38  1  0.63038914  0.26290272  0.96674635  1  0.102339  0  0.114889  0.120393  0  0.9835  0
H  H39  1  0.62874410  0.12318876  0.96650950  1  0.103074  0  0.117384  0.125975  0  0.97227  0
H  H40  1  0.03058659  0.32643992  0.48222064  1  0.638045  0  0.354408  0.403478  0  0.84033  0
H  H41  1  0.96826722  0.53436032  0.58920598  1  0.61626  0  0.349453  0.396599  0  0.850179  0
H  H42  1  0.38039332  0.98271432  0.54033919  1  0.642034  0  0.323436  0.368873  0  0.907057  0
H  H43  1  0.62180477  0.01708258  0.53958750  1  0.627073  0  0.324283  0.369556  0  0.905265  0
H  H44  1  0.62267415  0.57848472  0.22207350  1  0.622947  0  0.3247  0.369453  0  0.904646  0
H  H45  1  0.37670264  0.57786592  0.24167374  1  0.599885  0  0.324592  0.369583  0  0.905308  0
H  H46  1  0.96884427  0.32823057  0.97938418  1  0.648133  0  0.354514  0.404115  0  0.839754  0
H  H47  1  0.03146982  0.53605410  0.87308897  1  0.647578  0  0.349448  0.396163  0  0.850876  0
H  H48  1  0.61971874  0.98454182  0.91953749  1  0.621719  0  0.323977  0.369539  0  0.907053  0
H  H49  1  0.37792731  0.02085165  0.92014268  1  0.624504  0  0.325161  0.370337  0  0.904283  0
C  C50  1  0.50479084  0.64569944  0.50067735  1  1.581585  0  0.216846  0.590101  0  4.175723  0
C  C51  1  0.49035069  0.50286942  0.57975637  1  1.535524  0  0.217396  0.599797  0  4.152913  0
C  C52  1  0.49929686  0.35336486  0.50039924  1  1.613831  0  0.217573  0.592697  0  4.173709  0
C  C53  1  0.49737110  0.49786912  0.42227178  1  1.536358  0  0.217131  0.5913  0  4.175048  0
C  C54  1  0.49517182  0.64903544  0.96113604  1  1.576137  0  0.217172  0.590145  0  4.177136  0
C  C55  1  0.50971349  0.50374198  0.88276909  1  1.521579  0  0.216804  0.598939  0  4.154563  0
C  C56  1  0.50142711  0.35664355  0.96214616  1  1.502573  0  0.217142  0.59149  0  4.174795  0
C  C57  1  0.50282815  0.50273268  0.04034329  1  1.589121  0  0.217527  0.592093  0  4.17556  0
C  C58  1  0.24618504  0.55207268  0.52036085  1  0.569617  0  0.079246  0.120899  0  3.889833  0
C  C59  1  0.16206073  0.55231878  0.52091634  1  -0.044808  0  -0.05452  -0.148635  0  3.864353  0
C  C60  1  0.12006677  0.49812612  0.49837640  1  0.176081  0  0.033123  0.167948  0  4.080985  0
C  C61  1  0.16663960  0.44707606  0.47507511  1  -0.106859  0  0.002332  -0.166699  0  3.875608  0
C  C62  1  0.25078908  0.45139738  0.47580403  1  0.51695  0  0.079949  0.107274  0  3.873086  0
C  C63  1  0.03462197  0.49634232  0.50016083  1  0.075109  0  -0.015652  -0.06884  0  4.066418  0
C  C64  1  0.96097442  0.49876317  0.50275001  1  -0.416393  0  -0.018462  -0.07624  0  4.070489  0
C  C65  1  0.87550297  0.49982385  0.50299696  1  0.13998  0  0.03326  0.172382  0  4.079837  0
C  C66  1  0.82926810  0.54449758  0.53004816  1  -0.089513  0  -0.000293  -0.17522  0  3.889101  0
C  C67  1  0.74509509  0.54237858  0.52848164  1  0.514908  0  0.079573  0.108809  0  3.874662  0
C  C68  1  0.74897678  0.45544592  0.47612624  1  0.506701  0  0.079143  0.122363  0  3.889374  0
C  C69  1  0.83309395  0.45466372  0.47546288  1  0.018853  0  -0.053985  -0.147962  0  3.861878  0
C  C70  1  0.50397499  0.72938838  0.50051270  1  -0.044186  0  -0.004248  -0.010256  0  3.930946  0
C  C71  1  0.57648003  0.76980467  0.49776042  1  -0.006746  0  -0.066484  -0.069739  0  3.95111  0
C  C72  1  0.57533785  0.84736205  0.49760707  1  0.026935  0  -0.069259  -0.108841  0  3.911485  0
C  C73  1  0.50123884  0.88648018  0.50073949  1  0.080225  0  0.008246  0.1283  0  4.102371  0
C  C74  1  0.42849076  0.84469940  0.50385209  1  -0.118654  0  -0.00691  -0.130587  0  3.923198  0
C  C75  1  0.42988477  0.76729811  0.50343740  1  -0.042942  0  -0.06609  -0.085019  0  3.943253  0
C  C76  1  0.50109202  0.96532870  0.50122268  1  -0.102658  0  -0.028553  -0.100651  0  4.112904  0
C  C77  1  0.50124192  0.03359895  0.50079203  1  -0.296725  0  -0.029042  -0.099858  0  4.111556  0
C  C78  1  0.50152797  0.11241415  0.49981562  1  0.079695  0  0.009007  0.129017  0  4.102558  0
C  C79  1  0.57443879  0.15391968  0.50258807  1  -0.123631  0  -0.008786  -0.132758  0  3.924973  0
C  C80  1  0.57349237  0.23134543  0.50251517  1  -0.015623  0  -0.065911  -0.084836  0  3.941368  0
C  C81  1  0.49965367  0.26959682  0.49992137  1  -0.008914  0  -0.003405  -0.009754  0  3.928401  0
C  C82  1  0.42710244  0.22944674  0.49710259  1  0.010556  0  -0.066385  -0.068555  0  3.949464  0
C  C83  1  0.42780475  0.15186474  0.49683527  1  -0.015725  0  -0.068742  -0.109499  0  3.909645  0
C  C84  1  0.42073326  0.50601256  0.64756366  1  -0.119692  0  -0.079764  -0.1393  0  3.923344  0
C  C85  1  0.42254513  0.50645678  0.68986985  1  0.092306  0  -0.005276  0.093407  0  4.041947  0
C  C86  1  0.34951765  0.50683408  0.71364458  1  0.014498  0  -0.096212  -0.208674  0  3.988113  0
C  C87  1  0.56773696  0.50464795  0.64417606  1  0.001099  0  -0.084132  -0.132085  0  3.934627  0
C  C88  1  0.57238747  0.50587757  0.68631751  1  0.055665  0  -0.010338  0.021028  0  4.016144  0
C  C89  1  0.64800425  0.50635501  0.70770479  1  0.067765  0  0.015424  0.108372  0  4.047902  0
C  C90  1  0.57925645  0.50598341  0.81495177  1  0.003537  0  -0.080032  -0.138426  0  3.922649  0
C  C91  1  0.57742829  0.50631073  0.77264582  1  -0.038841  0  -0.005646  0.09157  0  4.044486  0
C  C92  1  0.65045948  0.50660394  0.74888064  1  -0.014554  0  -0.096039  -0.207591  0  3.986874  0
C  C93  1  0.43225574  0.50464764  0.81834418  1  0.072928  0  -0.084317  -0.131785  0  3.936033  0
C  C94  1  0.42758474  0.50582756  0.77621112  1  0.023634  0  -0.009582  0.021198  0  4.017357  0
C  C95  1  0.35197632  0.50647337  0.75482097  1  -0.042618  0  0.015458  0.109339  0  4.048805  0
C  C96  1  0.49270334  0.50469781  0.62493710  1  0.04591  0  -0.018501  -0.023079  0  3.995377  0
C  C97  1  0.49896638  0.50630866  0.70984270  1  -0.041309  0  0.005911  0.010453  0  3.913712  0
C  C98  1  0.50729832  0.50482890  0.83758009  1  0.007501  0  -0.0183  -0.023138  0  3.995256  0
C  C99  1  0.50099441  0.50625342  0.75267761  1  -0.060957  0  0.005894  0.010734  0  3.914287  0
C  C100  1  0.50280565  0.50338804  0.08554766  1  -0.077518  0  -0.004965  -0.013214  0  3.933886  0
C  C101  1  0.42944853  0.50096645  0.10719571  1  0.125852  0  -0.069761  -0.073483  0  3.962862  0
C  C102  1  0.42886900  0.50159307  0.14908189  1  -0.088784  0  -0.069945  -0.109185  0  3.916091  0
C  C103  1  0.50227336  0.50557905  0.17038239  1  0.124085  0  0.009607  0.130103  0  4.106623  0
C  C104  1  0.57602773  0.50853344  0.14807956  1  -0.075575  0  -0.006757  -0.130791  0  3.918056  0
C  C105  1  0.57634028  0.50708505  0.10621511  1  -0.003625  0  -0.063633  -0.081273  0  3.930413  0
C  C106  1  0.50068669  0.50736220  0.21293737  1  -0.451203  0  -0.028841  -0.099702  0  4.118342  0
C  C107  1  0.49882203  0.50682432  0.24980650  1  -0.002405  0  -0.02808  -0.098553  0  4.115346  0
C  C108  1  0.49738858  0.50378839  0.29233647  1  0.155841  0  0.009178  0.130257  0  4.102922  0
C  C109  1  0.42372648  0.50624109  0.31475610  1  -0.204525  0  -0.00689  -0.131656  0  3.919884  0
C  C110  1  0.42362863  0.50357716  0.35658205  1  0.035868  0  -0.063237  -0.080553  0  3.932564  0
C  C111  1  0.49727258  0.49923754  0.37709176  1  0.056826  0  -0.004964  -0.013071  0  3.935137  0
C  C112  1  0.57054385  0.49724692  0.35534786  1  -0.005331  0  -0.070136  -0.073829  0  3.963547  0
C  C113  1  0.57090760  0.49900640  0.31348063  1  -0.039901  0  -0.069774  -0.109339  0  3.915776  0
C  C114  1  0.75401163  0.55503774  0.94219201  1  0.534544  0  0.079714  0.122013  0  3.888429  0
C  C115  1  0.83814186  0.55484162  0.94144895  1  -0.022756  0  -0.054729  -0.149683  0  3.863435  0
C  C116  1  0.88007929  0.50047602  0.96360977  1  0.189083  0  0.033064  0.169017  0  4.079405  0
C  C117  1  0.83346541  0.44977472  0.98678898  1  -0.125247  0  0.002322  -0.167877  0  3.876334  0
C  C118  1  0.74932492  0.45446141  0.98620090  1  0.520938  0  0.080077  0.108897  0  3.872075  0
C  C119  1  0.96549897  0.49820364  0.96162399  1  0.084765  0  -0.015796  -0.069876  0  4.068003  0
C  C120  1  0.03914720  0.50024892  0.95896241  1  -0.421657  0  -0.018342  -0.075289  0  4.069992  0
C  C121  1  0.12462341  0.50138411  0.95882852  1  0.093233  0  0.033006  0.171014  0  4.079887  0
C  C122  1  0.17086092  0.54614140  0.93210407  1  -0.078355  0  -0.000457  -0.174903  0  3.889259  0
C  C123  1  0.25501597  0.54448511  0.93392436  1  0.517282  0  0.079156  0.107975  0  3.874156  0
C  C124  1  0.25115388  0.45783855  0.98589413  1  0.4699  0  0.078778  0.120529  0  3.890014  0
C  C125  1  0.16703235  0.45654409  0.98625977  1  0.056113  0  -0.054093  -0.147027  0  3.860493  0
C  C126  1  0.49581528  0.73274415  0.96068757  1  0.037728  0  -0.003797  -0.009906  0  3.931381  0
C  C127  1  0.42323689  0.77326298  0.96295987  1  -0.143037  0  -0.066719  -0.070085  0  3.948768  0
C  C128  1  0.42426255  0.85082352  0.96260227  1  0.019723  0  -0.068637  -0.108124  0  3.910379  0
C  C129  1  0.49834713  0.88981962  0.95945070  1  0.092583  0  0.008775  0.128477  0  4.103356  0
C  C130  1  0.57116448  0.84792347  0.95673651  1  -0.121194  0  -0.008232  -0.131534  0  3.924902  0
C  C131  1  0.56986205  0.77055686  0.95764775  1  -0.043096  0  -0.065885  -0.087124  0  3.945476  0
C  C132  1  0.49856681  0.96865022  0.95870389  1  -0.10691  0  -0.028851  -0.100647  0  4.114653  0
C  C133  1  0.49882031  0.03691176  0.95920795  1  -0.287625  0  -0.029291  -0.099789  0  4.114146  0
C  C134  1  0.49879954  0.11573201  0.96062451  1  0.081035  0  0.009117  0.128019  0  4.104458  0
C  C135  1  0.42596127  0.15744885  0.95815202  1  -0.13291  0  -0.008842  -0.133193  0  3.926766  0
C  C136  1  0.42708384  0.23486411  0.95887364  1  -0.0092  0  -0.06628  -0.084751  0  3.941963  0
C  C137  1  0.50099332  0.27288358  0.96187896  1  0.112728  0  -0.003825  -0.011699  0  3.929569  0
C  C138  1  0.57345804  0.23249214  0.96439929  1  0.017009  0  -0.065874  -0.067256  0  3.9485  0
C  C139  1  0.57261349  0.15490761  0.96398013  1  -0.022784  0  -0.068624  -0.108719  0  3.908533  0
S  S140  1  0.12161636  0.37607058  0.44457633  1  3.097174  0  0.549849  1.158848  0  6.014722  0
S  S141  1  0.87524741  0.60484023  0.56622749  1  3.086548  0  0.545677  1.15385  0  6.024546  0
S  S142  1  0.33259091  0.89037551  0.50767452  1  3.07352  0  0.534725  1.154893  0  6.015846  0
S  S143  1  0.66987102  0.10744013  0.50540979  1  3.063077  0  0.534498  1.156305  0  6.013731  0
S  S144  1  0.67070596  0.51303780  0.17355360  1  3.060463  0  0.536498  1.155304  0  6.010832  0
S  S145  1  0.32887205  0.51168055  0.28951857  1  3.050522  0  0.535585  1.15451  0  6.01272  0
S  S146  1  0.87836200  0.37910483  0.01717632  1  3.097109  0  0.550226  1.159482  0  6.015194  0
S  S147  1  0.12486747  0.60632575  0.89618706  1  3.098327  0  0.546076  1.155683  0  6.023296  0
S  S148  1  0.66709701  0.89338946  0.95281395  1  3.071574  0  0.53531  1.156374  0  6.010771  0
S  S149  1  0.33046366  0.11121873  0.95507982  1  3.067801  0  0.534284  1.156042  0  6.013983  0
N  N150  1  0.28933772  0.50225993  0.49848375  1  -1.245688  0  -0.306265  -0.174928  0  3.488505  0
N  N151  1  0.70619238  0.49849698  0.50204516  1  -1.231093  0  -0.307177  -0.176462  0  3.491389  0
N  N152  1  0.71080676  0.50543987  0.96386379  1  -1.226224  0  -0.306554  -0.176454  0  3.489883  0
N  N153  1  0.29394286  0.50103357  0.96032695  1  -1.224775  0  -0.306179  -0.174804  0  3.487408  0
Cl  Cl154  1  0.26175214  0.50714076  0.78219856  1  -0.200953  0  -0.019195  -0.08843  0  1.457459  0
Cl  Cl155  1  0.73822459  0.50685387  0.68032901  1  -0.217719  0  -0.018978  -0.088079  0  1.456231  0
O  O156  1  0.57354476  0.61415899  0.50375928  1  -1.155909  0  -0.315065  -0.543339  0  2.315006  0
O  O157  1  0.43654656  0.61307161  0.49771572  1  -1.165673  0  -0.314665  -0.545954  0  2.321571  0
O  O158  1  0.42137713  0.50880302  0.56308504  1  -1.161001  0  -0.320617  -0.550509  0  2.31028  0
O  O159  1  0.55804829  0.49520931  0.56123618  1  -1.167661  0  -0.317514  -0.546203  0  2.334342  0
O  O160  1  0.43094559  0.38552011  0.50487485  1  -1.154515  0  -0.315291  -0.546516  0  2.310566  0
O  O161  1  0.56780937  0.38533237  0.49635518  1  -1.165205  0  -0.316575  -0.546736  0  2.322342  0
O  O162  1  0.56584116  0.50470326  0.43929696  1  -1.157996  0  -0.317238  -0.549777  0  2.323498  0
O  O163  1  0.42909201  0.49037642  0.44000577  1  -1.161051  0  -0.313122  -0.540322  0  2.326543  0
O  O164  1  0.42648929  0.61727199  0.95830640  1  -1.157986  0  -0.315373  -0.543558  0  2.315914  0
O  O165  1  0.56349207  0.61660464  0.96431013  1  -1.164605  0  -0.314332  -0.54552  0  2.321982  0
O  O166  1  0.57871428  0.51015073  0.89939575  1  -1.163996  0  -0.320718  -0.55025  0  2.310198  0
O  O167  1  0.44208813  0.49635432  0.90133086  1  -1.168784  0  -0.317184  -0.546142  0  2.333866  0
O  O168  1  0.56978775  0.38871120  0.95786481  1  -1.15648  0  -0.314661  -0.544868  0  2.30947  0
O  O169  1  0.43295192  0.38868867  0.96652536  1  -1.163593  0  -0.316093  -0.545868  0  2.322583  0
O  O170  1  0.43438261  0.50963723  0.02333288  1  -1.174453  0  -0.317467  -0.55008  0  2.322333  0
O  O171  1  0.57117087  0.49550745  0.02257210  1  -1.162378  0  -0.313271  -0.540329  0  2.324846  0
O  O172  1  0.08912897  0.31916320  0.47887297  1  -1.180019  0  -0.357492  -0.528496  0  2.113124  0
O  O173  1  0.18610095  0.33828911  0.42378797  1  -1.270118  0  -0.284166  -0.478828  0  2.101244  0
O  O174  1  0.05238075  0.40637808  0.42440060  1  -1.282716  0  -0.304362  -0.524738  0  2.110605  0
O  O175  1  0.91229557  0.54526189  0.59754120  1  -1.160574  0  -0.355941  -0.522746  0  2.127352  0
O  O176  1  0.81156650  0.64248092  0.58770489  1  -1.268372  0  -0.28774  -0.48408  0  2.112263  0
O  O177  1  0.94160709  0.64357782  0.54719682  1  -1.281518  0  -0.306007  -0.524818  0  2.112152  0
O  O178  1  0.34354233  0.94152407  0.54758683  1  -1.206095  0  -0.365894  -0.523517  0  2.131647  0
O  O179  1  0.27230918  0.83626499  0.51848610  1  -1.286031  0  -0.310606  -0.507537  0  2.092381  0
O  O180  1  0.32349524  0.93862312  0.47345499  1  -1.285486  0  -0.315872  -0.530912  0  2.095465  0
O  O181  1  0.65908813  0.05837025  0.54589755  1  -1.188684  0  -0.364893  -0.521354  0  2.130254  0
O  O182  1  0.73110266  0.16136492  0.51475119  1  -1.287186  0  -0.313191  -0.511452  0  2.092285  0
O  O183  1  0.67788155  0.05741309  0.47146418  1  -1.2879  0  -0.316907  -0.533652  0  2.098037  0
O  O184  1  0.66076063  0.58903932  0.19972758  1  -1.176901  0  -0.364627  -0.52188  0  2.129408  0
O  O185  1  0.73346227  0.52846361  0.14459379  1  -1.280758  0  -0.305225  -0.500406  0  2.092295  0
O  O186  1  0.67551160  0.45116947  0.20095147  1  -1.275922  0  -0.316609  -0.533255  0  2.098462  0
O  O187  1  0.33884513  0.58813371  0.26422274  1  -1.161194  0  -0.364692  -0.522233  0  2.130689  0
O  O188  1  0.26641895  0.52677905  0.31879549  1  -1.274411  0  -0.304777  -0.499848  0  2.092056  0
O  O189  1  0.32362987  0.45036494  0.26142253  1  -1.272216  0  -0.316471  -0.532847  0  2.098875  0
O  O190  1  0.91031079  0.32123624  0.98287976  1  -1.191099  0  -0.357406  -0.528924  0  2.112423  0
O  O191  1  0.81383750  0.34214536  0.03810857  1  -1.267751  0  -0.28421  -0.478743  0  2.100798  0
O  O192  1  0.94790775  0.40950317  0.03720038  1  -1.283752  0  -0.304512  -0.525242  0  2.111382  0
O  O193  1  0.08742378  0.54668189  0.86470030  1  -1.197288  0  -0.356296  -0.522478  0  2.126522  0
O  O194  1  0.18853790  0.64357645  0.87476156  1  -1.272199  0  -0.287691  -0.485136  0  2.11252  0
O  O195  1  0.05874440  0.64544822  0.91547466  1  -1.281392  0  -0.306349  -0.525405  0  2.112294  0
O  O196  1  0.65645210  0.94292255  0.91257979  1  -1.184319  0  -0.366536  -0.524587  0  2.131972  0
O  O197  1  0.72741626  0.83876366  0.94242146  1  -1.285229  0  -0.310744  -0.508418  0  2.091984  0
O  O198  1  0.67603146  0.94301763  0.98675612  1  -1.284048  0  -0.31549  -0.530924  0  2.09497  0
O  O199  1  0.34094126  0.06244810  0.91417350  1  -1.187016  0  -0.365171  -0.521654  0  2.130058  0
O  O200  1  0.26924357  0.16536061  0.94629838  1  -1.285491  0  -0.31299  -0.511182  0  2.091666  0
O  O201  1  0.32260527  0.06093716  0.98861823  1  -1.291866  0  -0.31703  -0.533544  0  2.098336  0
