# generated using pymatgen
data_CdH14C14(SN2)2
_symmetry_space_group_name_H-M   'P 1'
_cell_length_a   5.60868797
_cell_length_b   11.44994094
_cell_length_c   12.89521787
_cell_angle_alpha   102.69909044
_cell_angle_beta   90.00363288
_cell_angle_gamma   89.99759172
_symmetry_Int_Tables_number   1
_chemical_formula_structural   CdH14C14(SN2)2
_chemical_formula_sum   'Cd2 H28 C28 S4 N8'
_cell_volume   807.86243684
_cell_formula_units_Z   2
loop_
 _symmetry_equiv_pos_site_id
 _symmetry_equiv_pos_as_xyz
  1  'x, y, z'
loop_
 _atom_site_type_symbol
 _atom_site_label
 _atom_site_symmetry_multiplicity
 _atom_site_fract_x
 _atom_site_fract_y
 _atom_site_fract_z
 _atom_site_occupancy
 _atom_site_hle17_bader_spin_density
 _atom_site_hle17_ddec_charge
 _atom_site_hle17_ddec_spin_density
 _atom_site_hle17_ddec_sum_bond_order
 _atom_site_hle17_magmom
 _atom_site_hse06_10hf_bader_spin_density
 _atom_site_hse06_10hf_ddec_charge
 _atom_site_hse06_10hf_ddec_spin_density
 _atom_site_hse06_10hf_ddec_sum_bond_order
 _atom_site_hse06_10hf_magmom
 _atom_site_hse06_bader_spin_density
 _atom_site_hse06_ddec_charge
 _atom_site_hse06_ddec_spin_density
 _atom_site_hse06_ddec_sum_bond_order
 _atom_site_hse06_magmom
 _atom_site_pbe_bader_spin_density
 _atom_site_pbe_cm5_charge
 _atom_site_pbe_ddec_charge
 _atom_site_pbe_ddec_spin_density
 _atom_site_pbe_ddec_sum_bond_order
 _atom_site_pbe_magmom
Cd  Cd0  1  0.49992034  0.99999897  0.50000154  1  0  0.98985  0  1.940345  0  0  0.827395  0  2.39367  0  0  0.867976  0  2.359789  0  0  0.727293  0.799262  0  2.416202  0
Cd  Cd1  1  0.00010438  0.99998998  0.00000626  1  0  0.989983  0  1.9404  0  0  0.827447  0  2.393795  0  0  0.868055  0  2.359869  0  0  0.727398  0.799316  0  2.416332  0
H  H2  1  0.21799878  0.20463593  0.59500428  1  0  0.307363  0  0.891689  0  0  0.299831  0  0.942884  0  0  0.304289  0  0.941492  0  0  0.299907  0.296705  0  0.943827  0
H  H3  1  0.28200988  0.20461001  0.09500327  1  0  0.307436  0  0.891626  0  0  0.299899  0  0.942829  0  0  0.304359  0  0.941437  0  0  0.299872  0.296769  0  0.943778  0
H  H4  1  0.78194791  0.79538955  0.40501499  1  0  0.307162  0  0.891846  0  0  0.299702  0  0.942939  0  0  0.304156  0  0.94155  0  0  0.299868  0.296578  0  0.943886  0
H  H5  1  0.71804022  0.79541364  0.90501413  1  0  0.307203  0  0.891832  0  0  0.299714  0  0.942994  0  0  0.304174  0  0.941585  0  0  0.299848  0.296588  0  0.943941  0
H  H6  1  0.34007648  0.15095873  0.69251102  1  0  0.285934  0  0.956495  0  0  0.270987  0  1.025542  0  0  0.276796  0  1.022156  0  0  0.26977  0.266802  0  1.02806  0
H  H7  1  0.15993779  0.15093217  0.19250651  1  0  0.285779  0  0.956548  0  0  0.270858  0  1.02557  0  0  0.276667  0  1.022187  0  0  0.269692  0.266677  0  1.028078  0
H  H8  1  0.65991478  0.84906401  0.30750544  1  0  0.285755  0  0.956527  0  0  0.270877  0  1.025554  0  0  0.27669  0  1.022177  0  0  0.269698  0.266694  0  1.028065  0
H  H9  1  0.84010518  0.84908584  0.80749983  1  0  0.285821  0  0.956471  0  0  0.270895  0  1.025533  0  0  0.276705  0  1.022154  0  0  0.269707  0.266715  0  1.028045  0
H  H10  1  0.72664740  0.21310329  0.76748461  1  0  0.102438  0  0.966838  0  0  0.110762  0  1.032596  0  0  0.113444  0  1.032286  0  0  0.094024  0.108829  0  1.032913  0
H  H11  1  0.77335855  0.21310617  0.26748679  1  0  0.10236  0  0.967008  0  0  0.110702  0  1.032744  0  0  0.113382  0  1.032436  0  0  0.094004  0.108758  0  1.033063  0
H  H12  1  0.27332960  0.78688572  0.23250346  1  0  0.102402  0  0.967034  0  0  0.110714  0  1.03282  0  0  0.113417  0  1.032471  0  0  0.093982  0.108765  0  1.033154  0
H  H13  1  0.22666302  0.78689291  0.73251157  1  0  0.102292  0  0.966967  0  0  0.11067  0  1.032667  0  0  0.113352  0  1.032359  0  0  0.093975  0.108725  0  1.032997  0
H  H14  1  0.05168330  0.36316344  0.78116627  1  0  0.083636  0  0.960809  0  0  0.094217  0  1.0219  0  0  0.096541  0  1.021182  0  0  0.094745  0.09258  0  1.022372  0
H  H15  1  0.44831050  0.36316952  0.28115017  1  0  0.083645  0  0.960993  0  0  0.094213  0  1.022079  0  0  0.096537  0  1.021365  0  0  0.094728  0.092573  0  1.022546  0
H  H16  1  0.94831509  0.63683635  0.21882524  1  0  0.083535  0  0.961266  0  0  0.094156  0  1.022282  0  0  0.096479  0  1.021566  0  0  0.094677  0.09252  0  1.022756  0
H  H17  1  0.55169502  0.63681866  0.71884009  1  0  0.083623  0  0.960955  0  0  0.094241  0  1.021982  0  0  0.096569  0  1.021267  0  0  0.094727  0.092602  0  1.022454  0
H  H18  1  0.06734233  0.50100566  0.65728786  1  0  0.083896  0  0.983503  0  0  0.09294  0  1.050294  0  0  0.094852  0  1.051502  0  0  0.092278  0.0915  0  1.049701  0
H  H19  1  0.43263065  0.50100751  0.15726583  1  0  0.08382  0  0.98379  0  0  0.092887  0  1.050525  0  0  0.094789  0  1.051746  0  0  0.092239  0.091451  0  1.049919  0
H  H20  1  0.93265428  0.49899128  0.34269695  1  0  0.084125  0  0.983499  0  0  0.093167  0  1.050262  0  0  0.095081  0  1.051477  0  0  0.092394  0.091724  0  1.049671  0
H  H21  1  0.56735882  0.49896535  0.84271787  1  0  0.083823  0  0.983545  0  0  0.092889  0  1.050285  0  0  0.094794  0  1.051524  0  0  0.092231  0.091456  0  1.049666  0
H  H22  1  0.75224031  0.48799688  0.51758502  1  0  0.079346  0  0.971497  0  0  0.092429  0  1.03065  0  0  0.094661  0  1.029878  0  0  0.096559  0.090863  0  1.031143  0
H  H23  1  0.74775767  0.48800217  0.01758674  1  0  0.079387  0  0.971451  0  0  0.092444  0  1.030653  0  0  0.094694  0  1.029857  0  0  0.096558  0.090877  0  1.031154  0
H  H24  1  0.24775986  0.51199113  0.48239901  1  0  0.079285  0  0.9715  0  0  0.092354  0  1.030689  0  0  0.09462  0  1.029879  0  0  0.096527  0.090789  0  1.03118  0
H  H25  1  0.25223003  0.51198072  0.98240569  1  0  0.079381  0  0.971318  0  0  0.092436  0  1.030526  0  0  0.094717  0  1.029694  0  0  0.09656  0.090868  0  1.031022  0
H  H26  1  0.42645700  0.33808130  0.50394876  1  0  0.092042  0  0.962803  0  0  0.101484  0  1.028819  0  0  0.104606  0  1.027467  0  0  0.097111  0.099438  0  1.029527  0
H  H27  1  0.07356488  0.33808580  0.00395991  1  0  0.092133  0  0.962731  0  0  0.101565  0  1.028766  0  0  0.104685  0  1.027416  0  0  0.097096  0.099531  0  1.029445  0
H  H28  1  0.57349860  0.66192666  0.49604806  1  0  0.092184  0  0.962973  0  0  0.101566  0  1.029023  0  0  0.10469  0  1.027669  0  0  0.097083  0.099525  0  1.029728  0
H  H29  1  0.92645669  0.66192040  0.99603816  1  0  0.09221  0  0.962812  0  0  0.101684  0  1.02878  0  0  0.104806  0  1.027426  0  0  0.097166  0.099645  0  1.029471  0
C  C30  1  0.00983162  0.08776160  0.40376050  1  0  0.289587  0  4.008004  0  0  0.271006  0  4.309653  0  0  0.292352  0  4.32254  0  0  0.141473  0.256506  0  4.300663  0
C  C31  1  0.49016352  0.08775882  0.90377277  1  0  0.28919  0  4.008183  0  0  0.270599  0  4.309841  0  0  0.291946  0  4.322736  0  0  0.141414  0.256101  0  4.300845  0
C  C32  1  0.99002770  0.91225894  0.59627342  1  0  0.290193  0  4.008576  0  0  0.271633  0  4.310139  0  0  0.292988  0  4.323029  0  0  0.141908  0.257134  0  4.301146  0
C  C33  1  0.50996146  0.91222154  0.09625801  1  0  0.290435  0  4.008972  0  0  0.271863  0  4.310499  0  0  0.293208  0  4.323391  0  0  0.142152  0.257366  0  4.301514  0
C  C34  1  0.55350062  0.26844973  0.63603123  1  0  0.281647  0  3.806998  0  0  0.280863  0  4.050871  0  0  0.288475  0  4.072881  0  0  0.079861  0.2755  0  4.036085  0
C  C35  1  0.94651558  0.26844707  0.13605310  1  0  0.281672  0  3.807141  0  0  0.280843  0  4.051095  0  0  0.288453  0  4.073111  0  0  0.079811  0.27548  0  4.036305  0
C  C36  1  0.44647637  0.73155979  0.36395733  1  0  0.281297  0  3.806673  0  0  0.280577  0  4.050521  0  0  0.288185  0  4.07255  0  0  0.079846  0.275216  0  4.035736  0
C  C37  1  0.05350421  0.73155738  0.86394621  1  0  0.281346  0  3.806798  0  0  0.280569  0  4.050729  0  0  0.288178  0  4.072749  0  0  0.079776  0.275209  0  4.035944  0
C  C38  1  0.73123788  0.27424031  0.71341005  1  0  -0.186083  0  3.727415  0  0  -0.202436  0  3.972642  0  0  -0.207983  0  3.992944  0  0  -0.106427  -0.198659  0  3.958935  0
C  C39  1  0.76876685  0.27424436  0.21341848  1  0  -0.185974  0  3.727132  0  0  -0.202358  0  3.97239  0  0  -0.207905  0  3.992693  0  0  -0.106438  -0.198568  0  3.958671  0
C  C40  1  0.26874090  0.72576716  0.28656884  1  0  -0.185734  0  3.726875  0  0  -0.202131  0  3.972121  0  0  -0.207688  0  3.992429  0  0  -0.106377  -0.198341  0  3.958421  0
C  C41  1  0.23125294  0.72575653  0.78658098  1  0  -0.185672  0  3.727211  0  0  -0.202093  0  3.972443  0  0  -0.207641  0  3.992753  0  0  -0.106351  -0.198298  0  3.958739  0
C  C42  1  0.91480354  0.35791173  0.72031395  1  0  -0.059706  0  3.806089  0  0  -0.069805  0  4.05292  0  0  -0.069024  0  4.073022  0  0  -0.097009  -0.070046  0  4.039074  0
C  C43  1  0.58517890  0.35793086  0.22031642  1  0  -0.059649  0  3.805734  0  0  -0.069743  0  4.052586  0  0  -0.068964  0  4.072689  0  0  -0.096901  -0.069979  0  4.038722  0
C  C44  1  0.08516276  0.64209231  0.27966977  1  0  -0.059841  0  3.80622  0  0  -0.069956  0  4.053068  0  0  -0.06918  0  4.073183  0  0  -0.096978  -0.070198  0  4.039218  0
C  C45  1  0.41481771  0.64206277  0.77967789  1  0  -0.059737  0  3.805972  0  0  -0.069869  0  4.052823  0  0  -0.069094  0  4.072934  0  0  -0.096908  -0.070105  0  4.038965  0
C  C46  1  0.92400710  0.43553529  0.65044104  1  0  -0.104137  0  3.786761  0  0  -0.12111  0  4.038077  0  0  -0.125138  0  4.060899  0  0  -0.107526  -0.118365  0  4.022655  0
C  C47  1  0.57597530  0.43554438  0.15042592  1  0  -0.104053  0  3.78679  0  0  -0.121022  0  4.038097  0  0  -0.125045  0  4.060923  0  0  -0.107475  -0.118277  0  4.022679  0
C  C48  1  0.07597881  0.56445144  0.34952879  1  0  -0.104485  0  3.786975  0  0  -0.121466  0  4.038307  0  0  -0.125511  0  4.061155  0  0  -0.10784  -0.118717  0  4.022876  0
C  C49  1  0.42401239  0.56444353  0.84955420  1  0  -0.104153  0  3.786745  0  0  -0.121109  0  4.038055  0  0  -0.12515  0  4.0609  0  0  -0.107559  -0.118358  0  4.02263  0
C  C50  1  0.74672809  0.42863964  0.57307767  1  0  -0.057488  0  3.797527  0  0  -0.066592  0  4.03957  0  0  -0.066746  0  4.061025  0  0  -0.094525  -0.066401  0  4.024964  0
C  C51  1  0.75329615  0.42865125  0.07308767  1  0  -0.057617  0  3.797373  0  0  -0.066735  0  4.039451  0  0  -0.066899  0  4.060901  0  0  -0.0946  -0.066551  0  4.024864  0
C  C52  1  0.25324178  0.57135822  0.42690807  1  0  -0.057157  0  3.797409  0  0  -0.066237  0  4.039363  0  0  -0.066417  0  4.060812  0  0  -0.0943  -0.066045  0  4.024759  0
C  C53  1  0.24671115  0.57134420  0.92690773  1  0  -0.057402  0  3.79753  0  0  -0.066494  0  4.039581  0  0  -0.06668  0  4.061023  0  0  -0.094454  -0.066304  0  4.024978  0
C  C54  1  0.56204983  0.34583082  0.56578857  1  0  -0.171707  0  3.738599  0  0  -0.191124  0  3.989182  0  0  -0.196801  0  4.01072  0  0  -0.102172  -0.187348  0  3.974773  0
C  C55  1  0.93797344  0.34582642  0.06580364  1  0  -0.171787  0  3.738556  0  0  -0.191168  0  3.989105  0  0  -0.196849  0  4.010659  0  0  -0.102076  -0.187389  0  3.974715  0
C  C56  1  0.43791469  0.65417072  0.43420170  1  0  -0.171826  0  3.73877  0  0  -0.191239  0  3.98942  0  0  -0.196918  0  4.01097  0  0  -0.102108  -0.187466  0  3.975024  0
C  C57  1  0.06204635  0.65416110  0.93419504  1  0  -0.171883  0  3.738701  0  0  -0.191352  0  3.98933  0  0  -0.197032  0  4.01089  0  0  -0.102231  -0.187571  0  3.974927  0
S  S58  1  0.26569756  0.07948528  0.34202221  1  0  -0.332362  0  2.182754  0  0  -0.297591  0  2.509488  0  0  -0.313552  0  2.502292  0  0  -0.129708  -0.286516  0  2.514093  0
S  S59  1  0.23431442  0.07949038  0.84202557  1  0  -0.332279  0  2.182969  0  0  -0.297497  0  2.509703  0  0  -0.313456  0  2.502509  0  0  -0.129657  -0.286415  0  2.51431  0
S  S60  1  0.73417068  0.92052334  0.65799954  1  0  -0.332535  0  2.18267  0  0  -0.29784  0  2.509536  0  0  -0.3138  0  2.502338  0  0  -0.129833  -0.286758  0  2.514147  0
S  S61  1  0.76585514  0.92049333  0.15799726  1  0  -0.33276  0  2.182072  0  0  -0.298043  0  2.508894  0  0  -0.314016  0  2.501699  0  0  -0.129972  -0.286959  0  2.513501  0
N  N62  1  0.17218163  0.90469794  0.54910314  1  0  -0.528024  0  2.900326  0  0  -0.473548  0  3.173175  0  0  -0.494119  0  3.183014  0  0  -0.389462  -0.459605  0  3.166368  0
N  N63  1  0.32788083  0.90468884  0.04907406  1  0  -0.528073  0  2.901366  0  0  -0.473587  0  3.174232  0  0  -0.49415  0  3.184061  0  0  -0.389598  -0.45965  0  3.167428  0
N  N64  1  0.82768661  0.09530885  0.45091674  1  0  -0.52749  0  2.899402  0  0  -0.472961  0  3.172146  0  0  -0.493518  0  3.181971  0  0  -0.389164  -0.459032  0  3.165351  0
N  N65  1  0.67231904  0.09527689  0.95094252  1  0  -0.52726  0  2.899413  0  0  -0.472707  0  3.172157  0  0  -0.493267  0  3.181986  0  0  -0.389209  -0.458773  0  3.165359  0
N  N66  1  0.37501618  0.17859940  0.62330522  1  0  -0.661755  0  3.183117  0  0  -0.606482  0  3.407448  0  0  -0.62713  0  3.409435  0  0  -0.602823  -0.591897  0  3.405738  0
N  N67  1  0.12498948  0.17858734  0.12331057  1  0  -0.661785  0  3.183161  0  0  -0.606412  0  3.407315  0  0  -0.627065  0  3.409307  0  0  -0.602739  -0.591834  0  3.405609  0
N  N68  1  0.62492338  0.82141690  0.37670392  1  0  -0.661304  0  3.183155  0  0  -0.606166  0  3.407467  0  0  -0.626778  0  3.409386  0  0  -0.602783  -0.591587  0  3.405749  0
N  N69  1  0.87505527  0.82143169  0.87670059  1  0  -0.661498  0  3.183107  0  0  -0.606202  0  3.40731  0  0  -0.626848  0  3.409313  0  0  -0.602756  -0.591627  0  3.405606  0
