# generated using pymatgen
data_CuH13C13(NO)4
_symmetry_space_group_name_H-M   'P 1'
_cell_length_a   8.77348694
_cell_length_b   8.82277318
_cell_length_c   10.23246052
_cell_angle_alpha   69.63223169
_cell_angle_beta   84.41409341
_cell_angle_gamma   77.58831421
_symmetry_Int_Tables_number   1
_chemical_formula_structural   CuH13C13(NO)4
_chemical_formula_sum   'Cu2 H26 C26 N8 O8'
_cell_volume   724.96378006
_cell_formula_units_Z   2
loop_
 _symmetry_equiv_pos_site_id
 _symmetry_equiv_pos_as_xyz
  1  'x, y, z'
loop_
 _atom_site_type_symbol
 _atom_site_label
 _atom_site_symmetry_multiplicity
 _atom_site_fract_x
 _atom_site_fract_y
 _atom_site_fract_z
 _atom_site_occupancy
 _atom_site_hle17_ddec_charge
 _atom_site_hle17_ddec_spin_density
 _atom_site_hle17_ddec_sum_bond_order
 _atom_site_hle17_magmom
 _atom_site_hse06_10hf_ddec_charge
 _atom_site_hse06_10hf_ddec_spin_density
 _atom_site_hse06_10hf_ddec_sum_bond_order
 _atom_site_hse06_10hf_magmom
 _atom_site_hse06_ddec_charge
 _atom_site_hse06_ddec_spin_density
 _atom_site_hse06_ddec_sum_bond_order
 _atom_site_hse06_magmom
 _atom_site_pbe_cm5_charge
 _atom_site_pbe_ddec_charge
 _atom_site_pbe_ddec_spin_density
 _atom_site_pbe_ddec_sum_bond_order
 _atom_site_pbe_magmom
Cu  Cu0  1  0.00000256  0.49999761  0.00000100  1  0.845812  0.71928  1.767916  0.506  0.81393  0.801838  2.160371  0.618  0.908981  0.87428  2.08584  0.698  0.725267  0.752341  0.751096  2.215876  0.567
Cu  Cu1  1  0.49999925  0.50000053  0.49999996  1  0.841115  -0.713768  1.793553  -0.5  0.814136  -0.795053  2.182587  -0.608  0.905114  -0.868551  2.113281  -0.689  0.739132  0.75716  -0.743496  2.231909  -0.557
H  H2  1  0.36435568  0.47942151  0.90853901  1  0.102817  -0.000297  0.958966  0.0  0.111755  -0.000201  1.021117  0.0  0.114711  -0.000135  1.017432  0.0  0.136007  0.109515  -0.000264  1.023764  0.0
H  H3  1  0.63564464  0.52058205  0.09146092  1  0.102709  -0.000296  0.959083  0.0  0.111686  -0.000202  1.021198  0.0  0.114641  -0.000135  1.017511  0.0  0.135985  0.109446  -0.000264  1.023839  0.0
H  H4  1  0.55991771  0.60205589  0.73685480  1  0.112284  0.000193  0.95112  0.0  0.128936  0.000207  1.021544  0.0  0.130344  0.000201  1.020278  0.0  0.110178  0.127694  0.000197  1.022736  0.0
H  H5  1  0.44007732  0.39794504  0.26314157  1  0.112298  0.000194  0.951062  0.0  0.128875  0.000208  1.021547  0.0  0.130286  0.000201  1.020273  0.0  0.110176  0.127634  0.000197  1.022736  0.0
H  H6  1  0.59330497  0.75928740  0.79661781  1  0.110349  0.000162  0.974939  0.0  0.128518  0.000204  1.041623  0.0  0.13026  0.000115  1.041192  0.0  0.101481  0.127265  0.000286  1.041946  0.0
H  H7  1  0.40669371  0.24071233  0.20337762  1  0.110323  0.000165  0.97496  0.0  0.128454  0.000204  1.041661  0.0  0.130197  0.000115  1.041228  0.0  0.101473  0.127203  0.000286  1.041985  0.0
H  H8  1  0.51048553  0.81294130  0.62883037  1  0.128672  0.000195  0.926579  0.0  0.148787  0.000167  0.985719  0.0  0.150443  0.000124  0.984469  0.0  0.1148  0.147379  0.000193  0.986956  0.0
H  H9  1  0.48951545  0.18705848  0.37116580  1  0.128635  0.000194  0.926562  0.0  0.148702  0.000167  0.985736  0.0  0.150357  0.000124  0.984487  0.0  0.114734  0.147292  0.000193  0.986974  0.0
H  H10  1  0.26821131  0.99553878  0.71829728  1  0.127373  0.000482  0.983008  0.001  0.135146  0.000387  1.046525  0.001  0.138821  0.000287  1.044038  0.0  0.120973  0.132421  0.000457  1.048452  0.001
H  H11  1  0.73178708  0.00446208  0.28169293  1  0.127261  0.000484  0.983028  0.001  0.13509  0.000387  1.04649  0.001  0.138732  0.000287  1.044053  0.0  0.120927  0.132365  0.000457  1.048419  0.001
H  H12  1  0.99780440  0.89203045  0.85926333  1  0.105632  -1.5e-05  0.964652  0.0  0.115846  0.000178  1.022288  0.0  0.118078  0.000117  1.021478  0.0  0.116423  0.114172  0.000232  1.022993  0.001
H  H13  1  0.00219863  0.10797060  0.14073225  1  0.105628  -1.1e-05  0.964608  0.0  0.115832  0.000178  1.022255  0.0  0.118065  0.000117  1.021445  0.0  0.116408  0.114157  0.000232  1.022964  0.001
H  H14  1  0.31793887  0.01448854  0.19801823  1  0.104455  0.000274  0.942901  0.0  0.112831  0.000233  1.00662  0.0  0.116388  0.000156  1.004611  0.0  0.10716  0.110266  0.000296  1.008232  0.0
H  H15  1  0.68205931  0.98550894  0.80198968  1  0.104543  0.000273  0.942771  0.0  0.112873  0.000232  1.006531  0.0  0.116431  0.000156  1.004521  0.0  0.107174  0.110306  0.000296  1.008142  0.0
H  H16  1  0.18632029  0.55345530  0.68101569  1  0.104705  -7.6e-05  0.98162  0.0  0.109242  -9.6e-05  1.053539  0.0  0.111334  -7.9e-05  1.051287  0.0  0.132338  0.107607  -0.000112  1.055288  0.0
H  H17  1  0.81367748  0.44654943  0.31898216  1  0.104756  -7.5e-05  0.981538  0.0  0.109304  -9.6e-05  1.053445  0.0  0.111396  -7.9e-05  1.051194  0.0  0.132355  0.107665  -0.000112  1.055197  0.0
H  H18  1  0.89082300  0.64046856  0.69448282  1  0.114429  -0.000205  0.938583  0.0  0.131705  -0.000254  1.007604  0.0  0.132425  -0.000233  1.006899  0.0  0.112135  0.130774  -0.000261  1.00857  0.0
H  H19  1  0.10917416  0.35953376  0.30551975  1  0.114391  -0.000202  0.938636  0.0  0.131657  -0.000254  1.007649  0.0  0.132383  -0.000232  1.00694  0.0  0.112142  0.130727  -0.000261  1.008615  0.0
H  H20  1  0.78566526  0.71259208  0.53513307  1  0.12271  -0.000122  0.955243  0.0  0.140509  -9.7e-05  1.020148  0.0  0.141494  -6.1e-05  1.020615  0.0  0.111012  0.139617  -0.000131  1.019978  0.0
H  H21  1  0.21433454  0.28741390  0.46486322  1  0.122703  -0.000121  0.955226  0.0  0.140469  -9.7e-05  1.020182  0.0  0.141454  -6.1e-05  1.020651  0.0  0.110996  0.139576  -0.000131  1.020013  0.0
H  H22  1  0.86723675  0.85178665  0.58616199  1  0.100608  5.8e-05  0.91649  0.0  0.125259  2.9e-05  0.971009  0.0  0.126191  2.9e-05  0.970738  0.0  0.106711  0.124475  2.8e-05  0.971273  0.0
H  H23  1  0.13276425  0.14821315  0.41383515  1  0.100606  6.3e-05  0.916369  0.0  0.125252  2.9e-05  0.970891  0.0  0.126184  2.9e-05  0.970623  0.0  0.106702  0.124467  2.8e-05  0.971158  0.0
H  H24  1  0.94963788  0.77903626  0.29929040  1  0.135816  -0.000512  0.974462  -0.001  0.1477  -0.000399  1.029859  -0.001  0.150934  -0.000296  1.027764  0.0  0.124208  0.145313  -0.000476  1.031466  -0.001
H  H25  1  0.05036382  0.22096609  0.70070978  1  0.135728  -0.000512  0.97444  -0.001  0.147625  -0.000399  1.029838  -0.001  0.15086  -0.000296  1.027744  0.0  0.124178  0.14524  -0.000477  1.031446  -0.001
H  H26  1  0.26421760  0.68033402  0.24546010  1  0.109866  -1e-05  0.956027  0.0  0.121222  -0.000189  1.010394  -0.001  0.123582  -0.000129  1.009842  0.0  0.118096  0.11928  -0.000245  1.011291  -0.001
H  H27  1  0.73578098  0.31966087  0.75454272  1  0.10992  -6e-06  0.956031  0.0  0.121277  -0.000189  1.010388  -0.001  0.123635  -0.000129  1.009837  0.0  0.118138  0.119335  -0.000245  1.011286  -0.001
C  C28  1  0.29836767  0.60415418  0.88047617  1  0.148874  -0.003179  3.657759  -0.003  0.094934  -0.000274  3.917347  0.0  0.110871  -0.001059  3.930586  -0.001  0.135474  0.084835  0.000313  3.908313  0.0
C  C29  1  0.70163378  0.39584312  0.11951975  1  0.148916  -0.003195  3.657764  -0.003  0.094907  -0.000272  3.917376  0.0  0.110847  -0.001057  3.930615  -0.001  0.135447  0.084809  0.000314  3.908335  0.0
C  C30  1  0.51556465  0.72795614  0.73659275  1  -0.184342  0.001247  3.602936  0.001  -0.289443  0.001042  3.848488  0.001  -0.286841  0.00081  3.856386  0.001  -0.132023  -0.290884  0.001232  3.843467  0.001
C  C31  1  0.48444050  0.27204003  0.26340611  1  -0.184277  0.001241  3.603068  0.001  -0.289198  0.001042  3.848534  0.001  -0.286595  0.00081  3.856435  0.001  -0.131932  -0.290639  0.001232  3.843508  0.001
C  C32  1  0.24320729  0.87482780  0.77864002  1  -0.071511  0.004047  3.660047  0.004  -0.111516  0.002193  3.910939  0.002  -0.111101  0.001872  3.930099  0.002  0.000143  -0.111674  0.002429  3.898126  0.003
C  C33  1  0.75678362  0.12517682  0.22135754  1  -0.071375  0.004048  3.660163  0.004  -0.111423  0.002195  3.911036  0.002  -0.110985  0.001872  3.930235  0.002  0.000173  -0.111583  0.00243  3.898219  0.003
C  C34  1  0.11297379  0.82146369  0.84992186  1  -0.007607  -0.000159  3.757291  0.0  -0.03732  0.00094  4.02565  0.001  -0.033988  0.000285  4.047698  0.0  -0.010514  -0.039443  0.001423  4.011113  0.001
C  C35  1  0.88702444  0.17853854  0.15007478  1  -0.007606  -0.000176  3.75705  0.0  -0.037328  0.000938  4.025407  0.001  -0.033996  0.000285  4.047448  0.0  -0.010499  -0.039452  0.001422  4.010871  0.001
C  C36  1  0.21823962  0.25251679  0.95668188  1  0.612299  -0.004196  3.938137  -0.008  0.570449  -0.000692  4.240315  -0.004  0.606605  -0.001052  4.233854  -0.003  0.193627  0.546078  -0.000298  4.243572  -0.004
C  C37  1  0.78176353  0.74747817  0.04332049  1  0.612319  -0.004195  3.938546  -0.008  0.57047  -0.00069  4.240672  -0.004  0.606625  -0.001052  4.234213  -0.003  0.193604  0.546097  -0.000298  4.243924  -0.004
C  C38  1  0.36362300  0.12214882  0.97796810  1  -0.058909  0.007074  3.733615  0.008  -0.047929  0.00421  3.97051  0.005  -0.052584  0.00307  3.989333  0.004  -0.013689  -0.044687  0.005054  3.957858  0.006
C  C39  1  0.63638275  0.87783878  0.02203731  1  -0.05889  0.007033  3.733713  0.008  -0.047834  0.00421  3.970447  0.005  -0.052487  0.003069  3.989265  0.004  -0.013705  -0.044593  0.005055  3.957792  0.006
C  C40  1  0.46584723  0.11325738  0.86504159  1  -0.044097  -0.010285  3.710039  -0.011  -0.032073  -0.005685  3.947861  -0.006  -0.035574  -0.003858  3.966002  -0.004  -0.006594  -0.030018  -0.007299  3.93582  -0.008
C  C41  1  0.53414561  0.88674367  0.13496277  1  -0.044244  -0.010233  3.710077  -0.011  -0.032221  -0.005688  3.947873  -0.006  -0.035721  -0.003857  3.966008  -0.004  -0.006615  -0.030165  -0.007299  3.935836  -0.008
C  C42  1  0.39890885  0.00872118  0.11121917  1  -0.094337  -0.000134  3.72228  0.0  -0.12809  -0.000532  3.976679  -0.001  -0.128132  -0.000352  3.994584  0.0  -0.083542  -0.128255  -0.000793  3.964937  -0.001
C  C43  1  0.60108663  0.99127256  0.88879114  1  -0.094457  -8.7e-05  3.722177  0.0  -0.128188  -0.000533  3.976565  -0.001  -0.128229  -0.00035  3.994469  0.0  -0.08352  -0.128351  -0.000793  3.964819  -0.001
C  C44  1  0.44193481  0.23243037  0.71818046  1  0.648415  0.004053  3.914939  0.008  0.600633  0.000132  4.226657  0.003  0.637933  0.000659  4.217792  0.003  0.203467  0.575299  -0.000458  4.231966  0.003
C  C45  1  0.55806719  0.76757082  0.28182397  1  0.648581  0.004053  3.914888  0.008  0.600798  0.000132  4.226613  0.003  0.638098  0.000659  4.217743  0.003  0.203579  0.575459  -0.000457  4.231934  0.003
C  C46  1  0.16884710  0.60728069  0.56971545  1  0.16516  0.004632  3.617274  0.004  0.107562  0.000824  3.880466  0.001  0.123947  0.001558  3.894173  0.002  0.140303  0.09722  0.000273  3.871143  0.0
C  C47  1  0.83115420  0.39271797  0.43028690  1  0.165011  0.004622  3.617272  0.004  0.107387  0.000825  3.880465  0.001  0.123768  0.001558  3.894175  0.002  0.140256  0.097047  0.000274  3.87113  0.0
C  C48  1  0.88411263  0.72456939  0.58660601  1  -0.170013  -0.000935  3.613881  -0.001  -0.272775  -0.000699  3.856526  -0.001  -0.269784  -0.000551  3.866664  -0.001  -0.125492  -0.274229  -0.000815  3.849599  -0.001
C  C49  1  0.11588647  0.27544032  0.41339112  1  -0.169998  -0.000952  3.613878  -0.001  -0.272721  -0.000699  3.856502  -0.001  -0.269737  -0.000551  3.866625  -0.001  -0.125466  -0.274175  -0.000815  3.849576  -0.001
C  C50  1  0.04734322  0.72657053  0.36885671  1  -0.069196  -0.003744  3.655956  -0.004  -0.107384  -0.002157  3.900209  -0.002  -0.105812  -0.001832  3.918423  -0.002  -0.000275  -0.108337  -0.002391  3.887747  -0.003
C  C51  1  0.95265749  0.27343671  0.63114007  1  -0.069128  -0.003734  3.655907  -0.004  -0.107318  -0.002157  3.900177  -0.002  -0.105749  -0.001832  3.918389  -0.002  -0.000236  -0.108272  -0.002392  3.887712  -0.003
C  C52  1  0.20248186  0.67301009  0.34364986  1  -0.01444  -0.000413  3.764178  0.0  -0.041147  -0.001126  4.028193  -0.001  -0.038925  -0.000404  4.050549  0.0  -0.010339  -0.042337  -0.001622  4.013292  -0.002
C  C53  1  0.79751640  0.32699220  0.65634969  1  -0.01447  -0.000432  3.764333  0.0  -0.041201  -0.001127  4.028363  -0.001  -0.038977  -0.000405  4.050721  0.0  -0.010356  -0.042394  -0.001623  4.013463  -0.002
N  N54  1  0.14842567  0.65171132  0.91282278  1  -0.369967  0.068987  3.338705  0.085  -0.32822  0.049512  3.656532  0.064  -0.360625  0.041603  3.675784  0.057  -0.380838  -0.308068  0.053656  3.645738  0.067
N  N55  1  0.85157824  0.34829095  0.08717135  1  -0.369963  0.068989  3.338642  0.085  -0.328138  0.049506  3.656423  0.064  -0.360538  0.041598  3.675674  0.057  -0.380793  -0.30799  0.05365  3.645628  0.067
N  N56  1  0.35849197  0.73543474  0.79858793  1  -0.005906  0.001266  3.586088  0.002  0.096878  0.001166  3.797591  0.001  0.082637  0.000828  3.824469  0.001  -0.241509  0.106164  0.001389  3.779238  0.002
N  N57  1  0.64150564  0.26455880  0.20140954  1  -0.005914  0.001274  3.586602  0.002  0.096835  0.001166  3.798111  0.001  0.082598  0.000828  3.824984  0.001  -0.241519  0.106117  0.00139  3.779753  0.002
N  N58  1  0.27724765  0.59886600  0.46989599  1  -0.371329  -0.068838  3.360444  -0.085  -0.327295  -0.04891  3.678037  -0.063  -0.358843  -0.041587  3.696733  -0.056  -0.386538  -0.308016  -0.052503  3.666949  -0.066
N  N59  1  0.72275099  0.40112899  0.53011168  1  -0.371282  -0.068837  3.360427  -0.085  -0.327193  -0.048911  3.677964  -0.063  -0.358743  -0.041587  3.696665  -0.056  -0.386512  -0.307915  -0.052505  3.666865  -0.066
N  N60  1  0.02855131  0.68475413  0.51186798  1  -0.014838  -0.001253  3.588715  -0.002  0.086383  -0.001034  3.803996  -0.001  0.071971  -0.000763  3.830011  -0.001  -0.241916  0.095833  -0.001228  3.785972  -0.002
N  N61  1  0.97145103  0.31525066  0.48812941  1  -0.014743  -0.001244  3.58895  -0.002  0.086452  -0.001034  3.804238  -0.001  0.072049  -0.000762  3.830245  -0.001  -0.24195  0.095898  -0.001227  3.786209  -0.002
O  O62  1  0.17946950  0.30961953  0.05899587  1  -0.602085  0.103039  2.04753  0.134  -0.573495  0.067656  2.327999  0.096  -0.617443  0.053047  2.321921  0.08  -0.327136  -0.543684  0.076787  2.332143  0.105
O  O63  1  0.82053479  0.69038171  0.94100930  1  -0.602013  0.103027  2.047634  0.134  -0.573436  0.067648  2.3281  0.096  -0.61738  0.053042  2.32202  0.08  -0.327087  -0.54363  0.076781  2.33225  0.105
O  O64  1  0.14545958  0.30257960  0.84571338  1  -0.600389  -0.001119  1.957313  0.0  -0.571688  -0.000595  2.197579  0.0  -0.596972  -0.00121  2.188965  -0.001  -0.31201  -0.553866  -9e-05  2.203015  0.001
O  O65  1  0.85454380  0.69741410  0.15428838  1  -0.600435  -0.001125  1.957349  0.0  -0.571737  -0.000594  2.197602  0.0  -0.59702  -0.001209  2.188989  -0.001  -0.312004  -0.553914  -8.9e-05  2.203036  0.001
O  O66  1  0.45900648  0.38027901  0.70176923  1  -0.610099  -0.102439  2.065844  -0.133  -0.58323  -0.068881  2.353223  -0.097  -0.627628  -0.054304  2.347069  -0.081  -0.326092  -0.553504  -0.077612  2.357372  -0.106
O  O67  1  0.54099573  0.61972091  0.29823361  1  -0.610116  -0.102437  2.065863  -0.133  -0.583242  -0.06888  2.353228  -0.097  -0.627655  -0.054304  2.347101  -0.081  -0.326098  -0.553514  -0.077612  2.357381  -0.106
O  O68  1  0.42128165  0.18169687  0.62270944  1  -0.608842  -0.000536  1.908551  -0.002  -0.576722  -0.000646  2.138978  -0.002  -0.601763  0.000283  2.129384  -0.001  -0.318255  -0.558939  -0.001444  2.145167  -0.003
O  O69  1  0.57871897  0.81830556  0.37729570  1  -0.608904  -0.000542  1.908512  -0.002  -0.576803  -0.000646  2.138953  -0.002  -0.601838  0.000283  2.129352  -0.001  -0.31833  -0.55902  -0.001444  2.14515  -0.003
