# generated using pymatgen
data_ZnH10C13BrNO5
_symmetry_space_group_name_H-M   'P 1'
_cell_length_a   9.59816873
_cell_length_b   11.08360247
_cell_length_c   11.02024589
_cell_angle_alpha   91.44784815
_cell_angle_beta   89.21370398
_cell_angle_gamma   86.94539662
_symmetry_Int_Tables_number   1
_chemical_formula_structural   ZnH10C13BrNO5
_chemical_formula_sum   'Zn2 H20 C26 Br2 N2 O10'
_cell_volume   1170.18616260
_cell_formula_units_Z   2
loop_
 _symmetry_equiv_pos_site_id
 _symmetry_equiv_pos_as_xyz
  1  'x, y, z'
loop_
 _atom_site_type_symbol
 _atom_site_label
 _atom_site_symmetry_multiplicity
 _atom_site_fract_x
 _atom_site_fract_y
 _atom_site_fract_z
 _atom_site_occupancy
 _atom_site_pbe_bader_charge
 _atom_site_pbe_bader_spin_density
 _atom_site_pbe_cm5_charge
 _atom_site_pbe_ddec_charge
 _atom_site_pbe_ddec_spin_density
 _atom_site_pbe_ddec_sum_bond_order
 _atom_site_pbe_magmom
Zn  Zn0  1  0.64429381  0.49157452  0.49881793  1  1.287773  0  0.665678  0.808343  0  2.455481  0
Zn  Zn1  1  0.35781396  0.50442807  0.50195582  1  1.268932  0  0.668441  0.802074  0  2.462011  0
H  H2  1  0.71600576  0.11180974  0.70425408  1  0.130101  0  0.108968  0.114235  0  0.957244  0
H  H3  1  0.81969245  0.87091966  0.58312525  1  0.075163  0  0.099705  0.09745  0  0.989106  0
H  H4  1  0.28015495  0.55019854  0.88737340  1  0.116592  0  0.103227  0.107392  0  1.001425  0
H  H5  1  0.27909950  0.55881318  0.11576046  1  0.103419  0  0.105186  0.108137  0  1.003618  0
H  H6  1  0.71507485  0.45034769  0.11249500  1  0.052757  0  0.102371  0.107257  0  1.000698  0
H  H7  1  0.71644199  0.44279495  0.88395945  1  0.100614  0  0.103154  0.108609  0  1.000226  0
H  H8  1  0.15134873  0.34846408  0.38952531  1  0.168516  0  0.136372  0.119453  0  0.992189  0
H  H9  1  0.11790918  0.64459394  0.62826600  1  0.147509  0  0.141877  0.122398  0  0.956252  0
H  H10  1  0.88444154  0.34565048  0.38322112  1  0.150742  0  0.135416  0.118618  0  0.973291  0
H  H11  1  0.85107115  0.63825671  0.62667104  1  0.168909  0  0.129217  0.109433  0  1.005581  0
H  H12  1  0.12640104  0.97104916  0.38064954  1  0.053197  0  0.085306  0.045842  0  1.024443  0
H  H13  1  0.17208578  0.85039954  0.48036797  1  0.058987  0  0.088361  0.045147  0  1.008724  0
H  H14  1  0.14380838  0.69926675  0.31026737  1  0.072609  0  0.087372  0.126354  0  1.016588  0
H  H15  1  0.98544857  0.78938444  0.33740920  1  0.040109  0  0.089088  0.121867  0  1.00092  0
H  H16  1  0.09499254  0.81842098  0.21110065  1  0.027592  0  0.092825  0.128907  0  0.98763  0
H  H17  1  0.43064357  0.08750833  0.16509657  1  0.051227  0  0.100593  0.060812  0  0.961517  0
H  H18  1  0.46153090  0.22743087  0.24194857  1  0.042275  0  0.096325  0.058358  0  0.992644  0
H  H19  1  0.22198529  0.30799406  0.19570729  1  0.019035  0  0.086718  0.117491  0  1.025128  0
H  H20  1  0.30886347  0.25712164  0.05972997  1  0.060653  0  0.096331  0.133437  0  0.995101  0
H  H21  1  0.18238352  0.16597318  0.12677613  1  0.033472  0  0.093916  0.12882  0  0.989313  0
C  C22  1  0.49852520  0.49169232  0.73713004  1  1.543135  0  0.21455  0.591328  0  4.168352  0
C  C23  1  0.49581032  0.50629276  0.26270528  1  1.531534  0  0.215092  0.588814  0  4.170074  0
C  C24  1  0.08280077  0.41426352  0.43965788  1  0.508211  0  0.079488  0.066582  0  3.849474  0
C  C25  1  0.06418805  0.57838096  0.57407451  1  0.470285  0  0.079395  0.061705  0  3.862725  0
C  C26  1  0.93796780  0.41230449  0.43692296  1  0.514326  0  0.076793  0.061531  0  3.874858  0
C  C27  1  0.91955117  0.57544045  0.57264079  1  0.531304  0  0.07714  0.065618  0  3.856648  0
C  C28  1  0.49422484  0.73400187  0.50348356  1  1.607217  0  0.220238  0.623093  0  4.155705  0
C  C29  1  0.51374364  0.26196605  0.47385089  1  1.573233  0  0.214247  0.607266  0  4.184413  0
C  C30  1  0.60150060  0.93265001  0.54240815  1  -0.025884  0  -0.017964  0.021605  0  3.96973  0
C  C31  1  0.60891124  0.05706953  0.53311949  1  -0.01253  0  -0.015975  0.023426  0  3.941373  0
C  C32  1  0.49857011  0.86721975  0.48772799  1  -0.017766  0  -0.011516  -0.129555  0  3.942748  0
C  C33  1  0.51362530  0.12704438  0.46642548  1  0.034603  0  -0.014536  -0.139945  0  3.952185  0
C  C34  1  0.40628109  0.93414157  0.41297675  1  0.602252  0  0.092557  0.146506  0  4.009902  0
C  C35  1  0.41381501  0.06179375  0.40253244  1  0.572192  0  0.089748  0.139011  0  4.002897  0
C  C36  1  0.73068933  0.06184581  0.61775573  1  -0.010993  0  -0.061305  -0.002036  0  3.720749  0
C  C37  1  0.72710897  0.92043195  0.62157123  1  0.031449  0  -0.070136  -0.014847  0  3.775046  0
C  C38  1  0.37458465  0.52826076  0.93781021  1  -0.089639  0  -0.084436  -0.097409  0  3.981114  0
C  C39  1  0.37394528  0.53283278  0.06400373  1  0.069684  0  -0.082405  -0.093686  0  3.981138  0
C  C40  1  0.49685753  0.50421530  0.12685491  1  -0.112336  0  -0.013793  -0.025821  0  3.961922  0
C  C41  1  0.49814051  0.49560271  0.87297258  1  -0.025512  0  -0.015415  -0.024811  0  3.966301  0
C  C42  1  0.62054996  0.47192799  0.06203952  1  -0.017968  0  -0.085953  -0.097587  0  3.984629  0
C  C43  1  0.62129190  0.46774294  0.93578697  1  -0.013281  0  -0.086145  -0.099304  0  3.989275  0
C  C44  1  0.17197284  0.87795309  0.38501506  1  0.380394  0  -0.073666  0.086118  0  3.910922  0
C  C45  1  0.09466948  0.79086752  0.30614188  1  -0.075933  0  -0.247679  -0.393832  0  3.968807  0
C  C46  1  0.38068793  0.16446812  0.21758138  1  0.392769  0  -0.063698  0.094108  0  3.890091  0
C  C47  1  0.26600991  0.22724801  0.14625044  1  -0.047167  0  -0.243286  -0.392841  0  3.970601  0
Br  Br48  1  0.91032233  0.11389666  0.55110660  1  -0.153399  0  -0.030585  -0.134412  0  1.292806  0
Br  Br49  1  0.70069992  0.85264916  0.78374229  1  -0.148309  0  -0.044317  -0.131871  0  1.207997  0
N  N50  1  0.85824027  0.49329276  0.50274211  1  -1.215845  0  -0.293763  -0.142055  0  3.499743  0
N  N51  1  0.14398023  0.49829011  0.50691539  1  -1.212324  0  -0.294794  -0.14416  0  3.506338  0
O  O52  1  0.61690634  0.48275073  0.68285873  1  -1.166389  0  -0.319633  -0.550502  0  2.333805  0
O  O53  1  0.61365323  0.49843157  0.31473885  1  -1.155953  0  -0.320878  -0.550186  0  2.324606  0
O  O54  1  0.38035928  0.49760823  0.68552031  1  -1.162475  0  -0.320631  -0.548661  0  2.32937  0
O  O55  1  0.37690088  0.51431763  0.31630590  1  -1.161443  0  -0.316309  -0.547824  0  2.332996  0
O  O56  1  0.61300683  0.67725520  0.50793780  1  -1.16901  0  -0.315417  -0.54862  0  2.317304  0
O  O57  1  0.63274561  0.30681434  0.48051046  1  -1.15445  0  -0.313739  -0.538379  0  2.33109  0
O  O58  1  0.37594557  0.68872370  0.51268800  1  -1.153707  0  -0.307483  -0.534322  0  2.329212  0
O  O59  1  0.39584445  0.31990891  0.47931401  1  -1.156599  0  -0.310752  -0.540734  0  2.337742  0
O  O60  1  0.31571804  0.87455839  0.34148231  1  -1.072771  0  -0.201269  -0.217765  0  2.514409  0
O  O61  1  0.31948310  0.11795911  0.32732007  1  -1.06109  0  -0.198218  -0.225976  0  2.529374  0
