# generated using pymatgen
data_CuH10C6(N7Cl)2
_symmetry_space_group_name_H-M   'P 1'
_cell_length_a   6.60866960
_cell_length_b   7.07400108
_cell_length_c   15.72134536
_cell_angle_alpha   91.65669494
_cell_angle_beta   90.00039998
_cell_angle_gamma   89.99932105
_symmetry_Int_Tables_number   1
_chemical_formula_structural   CuH10C6(N7Cl)2
_chemical_formula_sum   'Cu2 H20 C12 N28 Cl4'
_cell_volume   734.66152395
_cell_formula_units_Z   2
loop_
 _symmetry_equiv_pos_site_id
 _symmetry_equiv_pos_as_xyz
  1  'x, y, z'
loop_
 _atom_site_type_symbol
 _atom_site_label
 _atom_site_symmetry_multiplicity
 _atom_site_fract_x
 _atom_site_fract_y
 _atom_site_fract_z
 _atom_site_occupancy
 _atom_site_hle17_ddec_charge
 _atom_site_hle17_ddec_spin_density
 _atom_site_hle17_ddec_sum_bond_order
 _atom_site_hle17_magmom
 _atom_site_hse06_10hf_ddec_charge
 _atom_site_hse06_10hf_ddec_spin_density
 _atom_site_hse06_10hf_ddec_sum_bond_order
 _atom_site_hse06_10hf_magmom
 _atom_site_hse06_ddec_charge
 _atom_site_hse06_ddec_spin_density
 _atom_site_hse06_ddec_sum_bond_order
 _atom_site_hse06_magmom
 _atom_site_pbe_cm5_charge
 _atom_site_pbe_ddec_charge
 _atom_site_pbe_ddec_spin_density
 _atom_site_pbe_ddec_sum_bond_order
 _atom_site_pbe_magmom
Cu  Cu0  1  0.50000143  0.50000124  0.99999958  1  0.752145  0.637355  1.939596  0.464  0.756937  0.73787  2.310278  0.581  0.851381  0.805155  2.231066  0.667  0.598792  0.707134  0.698349  2.359892  0.534
Cu  Cu1  1  0.99999922  0.00000091  0.99999998  1  0.752127  0.637359  1.93965  0.464  0.756931  0.737876  2.310312  0.581  0.851348  0.805158  2.231075  0.667  0.598779  0.7071  0.698315  2.35999  0.535
H  H2  1  0.96597549  0.53061555  0.07787884  1  0.13203  -0.000526  0.967667  0.0  0.140153  -0.000164  1.030885  0.0  0.143941  -0.00013  1.02588  0.0  0.129659  0.137368  -0.000157  1.034328  0.0
H  H3  1  0.53402322  0.03061202  0.07787590  1  0.132092  -0.000525  0.967774  0.0  0.140235  -0.000164  1.030959  0.0  0.144024  -0.000129  1.025949  0.0  0.1297  0.137449  -0.000157  1.034404  0.0
H  H4  1  0.03402671  0.46938744  0.92212121  1  0.132028  -0.000527  0.967697  0.0  0.14015  -0.000164  1.03091  0.0  0.143941  -0.00013  1.025889  0.0  0.129666  0.137362  -0.000157  1.034357  0.0
H  H5  1  0.46597444  0.96938815  0.92212347  1  0.132088  -0.00053  0.967819  0.0  0.140221  -0.000164  1.031007  0.0  0.144012  -0.00013  1.025991  0.0  0.129699  0.137434  -0.000157  1.034448  0.0
H  H6  1  0.19024125  0.49208125  0.20984974  1  0.101138  0.000103  0.954241  0.0  0.107966  0.00021  1.031019  0.0  0.110568  0.000156  1.028219  0.0  0.112744  0.105949  0.000248  1.033097  0.0
H  H7  1  0.30976151  0.99208376  0.20984584  1  0.101177  0.000108  0.954245  0.0  0.108006  0.00021  1.031049  0.0  0.110608  0.000156  1.028254  0.0  0.112744  0.105988  0.000248  1.033129  0.0
H  H8  1  0.80976246  0.50791891  0.79015091  1  0.101148  0.000108  0.954221  0.0  0.107973  0.00021  1.03101  0.0  0.110576  0.000156  1.02821  0.0  0.112747  0.105953  0.000248  1.033091  0.0
H  H9  1  0.69023767  0.00791923  0.79015421  1  0.101181  0.000102  0.954244  0.0  0.107991  0.00021  1.03103  0.0  0.110594  0.000156  1.028234  0.0  0.112753  0.105973  0.000248  1.033108  0.0
H  H10  1  0.09039527  0.29751116  0.26525623  1  0.096466  -3e-06  0.916471  0.0  0.107356  3e-06  0.983013  0.0  0.108005  2e-06  0.983006  0.0  0.116357  0.106824  3e-06  0.983095  0.0
H  H11  1  0.40961078  0.79750971  0.26525194  1  0.096493  2e-06  0.91644  0.0  0.107388  3e-06  0.982999  0.0  0.108036  1e-06  0.982992  0.0  0.116371  0.106856  3e-06  0.983081  0.0
H  H12  1  0.90960390  0.70248618  0.73474374  1  0.096465  1e-06  0.916484  0.0  0.107354  3e-06  0.983024  0.0  0.108004  2e-06  0.983017  0.0  0.116374  0.106822  3e-06  0.983107  0.0
H  H13  1  0.59038688  0.20249328  0.73474812  1  0.096491  -3e-06  0.916416  0.0  0.107367  3e-06  0.982974  0.0  0.108017  2e-06  0.982966  0.0  0.116373  0.106836  3e-06  0.983054  0.0
H  H14  1  0.93266569  0.52116671  0.37419352  1  0.076917  2.8e-05  0.943592  0.0  0.082899  4e-05  1.018595  0.0  0.082899  2.5e-05  1.018384  0.0  0.10578  0.08278  5.4e-05  1.018815  0.0
H  H15  1  0.56733802  0.02116138  0.37419066  1  0.076876  2.5e-05  0.943563  0.0  0.082865  4e-05  1.018577  0.0  0.08287  2.5e-05  1.018361  0.0  0.10576  0.082749  5.4e-05  1.018801  0.0
H  H16  1  0.06733500  0.47883203  0.62580838  1  0.076905  2.7e-05  0.943602  0.0  0.082869  4e-05  1.018623  0.0  0.08287  2.5e-05  1.01841  0.0  0.105749  0.082753  5.4e-05  1.018844  0.0
H  H17  1  0.43265813  0.97883878  0.62580999  1  0.076873  2.8e-05  0.943444  0.0  0.082839  4e-05  1.018512  0.0  0.082843  2.5e-05  1.018294  0.0  0.105743  0.082725  5.4e-05  1.018735  0.0
H  H18  1  0.04035133  0.71696202  0.32173954  1  0.080533  -1.1e-05  0.957539  0.0  0.084458  -2e-06  1.039035  0.0  0.085378  -6e-06  1.038594  0.0  0.106988  0.083732  1e-06  1.039377  0.0
H  H19  1  0.45964906  0.21696074  0.32173726  1  0.080467  -1.2e-05  0.957579  0.0  0.084403  -3e-06  1.03903  0.0  0.085324  -5e-06  1.038595  0.0  0.106965  0.083678  1e-06  1.039372  0.0
H  H20  1  0.95964784  0.28303673  0.67826172  1  0.080472  -1.2e-05  0.957613  0.0  0.084405  -3e-06  1.039083  0.0  0.085327  -6e-06  1.038646  0.0  0.106967  0.083678  1e-06  1.039424  0.0
H  H21  1  0.54035465  0.78304226  0.67826279  1  0.080447  -1e-05  0.957582  0.0  0.084391  -2e-06  1.039062  0.0  0.085314  -5e-06  1.038627  0.0  0.106942  0.083667  1e-06  1.039404  0.0
C  C22  1  0.84724414  0.49989228  0.12312346  1  0.177609  -0.005617  3.591294  -0.003  0.099996  -0.001267  3.854297  0.0  0.115454  -0.002623  3.866227  -0.001  0.176252  0.090619  -0.000238  3.846293  0.001
C  C23  1  0.65275565  0.99989091  0.12312031  1  0.177636  -0.005623  3.591204  -0.003  0.099988  -0.001268  3.854181  0.0  0.115451  -0.002624  3.86611  -0.001  0.176232  0.090612  -0.000238  3.846176  0.001
C  C24  1  0.15275806  0.50011071  0.87687659  1  0.177568  -0.005606  3.591414  -0.003  0.099973  -0.001268  3.854372  0.0  0.115432  -0.002623  3.866329  -0.001  0.17617  0.090603  -0.000238  3.846344  0.001
C  C25  1  0.34724352  0.00010925  0.87688034  1  0.177545  -0.005579  3.591337  -0.003  0.099953  -0.001268  3.854281  0.0  0.115417  -0.002623  3.86621  -0.001  0.176213  0.090584  -0.000238  3.846275  0.001
C  C26  1  0.06787534  0.44769479  0.25195426  1  -0.02682  0.000597  3.589524  0.001  -0.099649  0.000535  3.840437  0.001  -0.09587  0.000409  3.848538  0.0  -0.044393  -0.10173  0.000629  3.834719  0.001
C  C27  1  0.43212866  0.94769874  0.25195137  1  -0.026907  0.000577  3.589535  0.001  -0.099792  0.000535  3.840437  0.001  -0.096017  0.00041  3.848547  0.0  -0.044422  -0.101869  0.000629  3.834721  0.001
C  C28  1  0.93212081  0.55230538  0.74804512  1  -0.026781  0.000578  3.589533  0.001  -0.099633  0.000535  3.840443  0.001  -0.095856  0.00041  3.848543  0.0  -0.044385  -0.101717  0.000629  3.83473  0.001
C  C29  1  0.56787051  0.05230426  0.74804804  1  -0.026986  0.000605  3.58955  0.001  -0.099777  0.000535  3.840422  0.001  -0.096005  0.000409  3.848533  0.0  -0.044473  -0.101851  0.00063  3.834696  0.001
C  C30  1  0.05988125  0.56607959  0.33451584  1  -0.011935  0.000153  3.658353  0.0  -0.067554  0.000144  3.939666  0.0  -0.063402  9.4e-05  3.949582  0.0  -0.056352  -0.070181  0.000199  3.932706  0.0
C  C31  1  0.44012119  0.06607571  0.33451092  1  -0.01181  0.000164  3.658257  0.0  -0.067407  0.000143  3.939561  0.0  -0.063264  9.3e-05  3.949488  0.0  -0.056358  -0.07005  0.000199  3.932619  0.0
C  C32  1  0.94012549  0.43392056  0.66548735  1  -0.011881  0.000165  3.658433  0.0  -0.06746  0.000145  3.939656  0.0  -0.063313  9.5e-05  3.949583  0.0  -0.056373  -0.070092  0.000199  3.932697  0.0
C  C33  1  0.55987495  0.93392728  0.66548976  1  -0.011651  0.000147  3.658003  0.0  -0.067261  0.000143  3.939281  0.0  -0.063119  9.4e-05  3.949212  0.0  -0.056264  -0.069899  0.000199  3.932333  0.0
N  N34  1  0.87829818  0.46487571  0.20544361  1  0.038401  0.002033  3.508367  0.003  0.160338  0.0014  3.692778  0.002  0.148256  0.001192  3.715502  0.002  -0.115923  0.166964  0.001535  3.679277  0.002
N  N35  1  0.62170490  0.96487752  0.20544041  1  0.038366  0.002035  3.5081  0.003  0.160349  0.001401  3.692504  0.002  0.148263  0.001192  3.715229  0.002  -0.115906  0.166975  0.001535  3.679004  0.002
N  N36  1  0.12170100  0.53512586  0.79455642  1  0.038418  0.00204  3.508334  0.003  0.160338  0.001405  3.692744  0.002  0.148254  0.001195  3.715465  0.002  -0.115883  0.166965  0.001535  3.67924  0.002
N  N37  1  0.37829578  0.03512406  0.79455962  1  0.038483  0.002018  3.508068  0.003  0.160384  0.001405  3.692481  0.002  0.1483  0.001193  3.715205  0.002  -0.115864  0.166988  0.001535  3.679022  0.002
N  N38  1  0.69675985  0.43655375  0.24360413  1  -0.088402  0.004005  2.837034  0.005  -0.106732  0.003027  3.122434  0.004  -0.105367  0.001872  3.130765  0.003  -0.065425  -0.107016  0.003984  3.116437  0.005
N  N39  1  0.80324269  0.93655773  0.24360277  1  -0.088456  0.004008  2.837033  0.005  -0.106783  0.003027  3.122402  0.004  -0.105416  0.001873  3.130733  0.003  -0.065412  -0.107066  0.003985  3.116406  0.005
N  N40  1  0.30323932  0.56344925  0.75639465  1  -0.088458  0.003999  2.837083  0.005  -0.106797  0.003025  3.122506  0.004  -0.10543  0.001871  3.130834  0.003  -0.065455  -0.10708  0.003985  3.116507  0.005
N  N41  1  0.19675497  0.06344385  0.75639662  1  -0.088439  0.004  2.836957  0.005  -0.106771  0.003026  3.122371  0.004  -0.105404  0.001872  3.1307  0.003  -0.065406  -0.107049  0.003985  3.116376  0.005
N  N42  1  0.55909464  0.45480957  0.18568827  1  -0.034583  -0.002135  2.92707  -0.002  -0.029409  0.000595  3.238193  0.0  -0.023949  -0.000405  3.248268  -0.001  -0.067586  -0.032474  0.001285  3.231885  0.001
N  N43  1  0.94090975  0.95481341  0.18568732  1  -0.034527  -0.002131  2.92702  -0.002  -0.029356  0.000594  3.238145  0.0  -0.023893  -0.000405  3.248222  -0.001  -0.067609  -0.032419  0.001285  3.231837  0.001
N  N44  1  0.44090755  0.54519343  0.81431051  1  -0.034483  -0.002135  2.927014  -0.002  -0.029293  0.000592  3.238082  0.0  -0.023827  -0.000408  3.24816  -0.001  -0.067531  -0.032357  0.001285  3.231773  0.001
N  N45  1  0.05908791  0.04518534  0.81431204  1  -0.034549  -0.00211  2.926991  -0.002  -0.029363  0.000589  3.238103  0.0  -0.0239  -0.000408  3.248178  -0.001  -0.067624  -0.032426  0.001285  3.231794  0.001
N  N46  1  0.64850513  0.49334794  0.11012266  1  -0.257798  0.058859  3.284315  0.076  -0.215029  0.046566  3.603357  0.063  -0.246428  0.039206  3.623479  0.056  -0.254918  -0.197963  0.049722  3.592628  0.064
N  N47  1  0.85149452  0.99334713  0.11012266  1  -0.257853  0.05886  3.284377  0.076  -0.215071  0.046568  3.603424  0.063  -0.246472  0.039206  3.623536  0.056  -0.254919  -0.198  0.049723  3.59271  0.064
N  N48  1  0.35149707  0.50665505  0.88987739  1  -0.257871  0.05886  3.284272  0.076  -0.215081  0.046569  3.603281  0.063  -0.246498  0.039208  3.623418  0.056  -0.254928  -0.198013  0.049726  3.59255  0.064
N  N49  1  0.14850465  0.00665163  0.88987606  1  -0.257833  0.058846  3.28437  0.075  -0.215064  0.046573  3.6034  0.063  -0.246466  0.03921  3.623513  0.056  -0.254909  -0.197992  0.049727  3.592684  0.064
N  N50  1  0.25411454  0.53468086  0.37819432  1  -0.238821  7e-05  2.926813  0.0  -0.222155  5.8e-05  3.214804  0.0  -0.240214  3.2e-05  3.231672  0.0  -0.177094  -0.209823  7.8e-05  3.203217  0.0
N  N51  1  0.24588900  0.03468059  0.37818951  1  -0.238813  6e-05  2.926588  0.0  -0.222156  5.7e-05  3.214594  0.0  -0.240219  3.1e-05  3.231476  0.0  -0.177051  -0.209815  7.8e-05  3.203011  0.0
N  N52  1  0.74588766  0.46532353  0.62180957  1  -0.238797  7.5e-05  2.926128  0.0  -0.222161  5.4e-05  3.214151  0.0  -0.240226  3e-05  3.231019  0.0  -0.176992  -0.209819  7.8e-05  3.202559  0.0
N  N53  1  0.75410714  0.96532947  0.62181191  1  -0.238916  6.5e-05  2.926387  0.0  -0.22227  5.8e-05  3.214421  0.0  -0.240342  3.2e-05  3.231308  0.0  -0.177067  -0.209928  7.8e-05  3.202837  0.0
N  N54  1  0.27705119  0.61076335  0.44856999  1  0.328007  -4e-06  4.054581  0.0  0.360822  1e-05  4.358095  0.0  0.373189  5e-06  4.381974  0.0  0.130675  0.352279  1.6e-05  4.342091  0.0
N  N55  1  0.22295409  0.11075766  0.44856885  1  0.327972  -2e-05  4.054208  0.0  0.360787  1e-05  4.357714  0.0  0.373156  5e-06  4.381595  0.0  0.130686  0.352246  1.6e-05  4.341711  0.0
N  N56  1  0.72294798  0.38923544  0.55142364  1  0.328072  1.3e-05  4.054657  0.0  0.3609  9e-06  4.35816  0.0  0.37327  5e-06  4.382034  0.0  0.130721  0.352357  1.6e-05  4.34216  0.0
N  N57  1  0.77704659  0.88924535  0.55142674  1  0.328044  -2e-05  4.05464  0.0  0.360857  1e-05  4.358167  0.0  0.373228  5e-06  4.38204  0.0  0.130715  0.352314  1.6e-05  4.342167  0.0
N  N58  1  0.31817462  0.67259032  0.51489722  1  -0.229136  6.1e-05  2.377578  0.0  -0.241617  4.1e-05  2.602512  0.0  -0.24111  2.1e-05  2.610845  0.0  -0.104373  -0.241838  6.5e-05  2.597179  0.0
N  N59  1  0.18183555  0.17257803  0.51489714  1  -0.229104  8.1e-05  2.3774  0.0  -0.241591  4.1e-05  2.602348  0.0  -0.241081  2.2e-05  2.610678  0.0  -0.104389  -0.241809  6.5e-05  2.597012  0.0
N  N60  1  0.68182909  0.32742398  0.48510363  1  -0.229192  3.7e-05  2.378376  0.0  -0.241701  4.4e-05  2.603338  0.0  -0.241187  2.2e-05  2.611665  0.0  -0.10446  -0.241925  6.5e-05  2.598011  0.0
N  N61  1  0.81816665  0.82743203  0.48510428  1  -0.229148  7.7e-05  2.378058  0.0  -0.241636  4.1e-05  2.603031  0.0  -0.241128  2.2e-05  2.611362  0.0  -0.104428  -0.241857  6.5e-05  2.597699  0.0
Cl  Cl62  1  0.72291707  0.27901928  0.94234908  1  -0.519678  0.123704  1.053457  0.156  -0.540311  0.07987  1.367916  0.108  -0.57703  0.057571  1.344175  0.085  -0.291791  -0.519057  0.093405  1.385043  0.119
Cl  Cl63  1  0.77708680  0.77901930  0.94234949  1  -0.51968  0.123705  1.053454  0.156  -0.540325  0.079869  1.36792  0.108  -0.577042  0.05757  1.344174  0.085  -0.29178  -0.519065  0.093409  1.385058  0.119
Cl  Cl64  1  0.27708513  0.72097947  0.05765091  1  -0.519672  0.123701  1.053451  0.156  -0.540309  0.079868  1.367916  0.108  -0.577027  0.057571  1.344175  0.085  -0.29179  -0.519065  0.093402  1.385061  0.119
Cl  Cl65  1  0.22290935  0.22098511  0.05764994  1  -0.5197  0.123696  1.053473  0.156  -0.540333  0.079864  1.367927  0.108  -0.577048  0.057569  1.344179  0.085  -0.291783  -0.519073  0.093403  1.385065  0.119
