# generated using pymatgen
data_ZnH14(C3O)2
_symmetry_space_group_name_H-M   'P 1'
_cell_length_a   7.12802770
_cell_length_b   7.13948881
_cell_length_c   8.75298815
_cell_angle_alpha   87.63222249
_cell_angle_beta   86.71469062
_cell_angle_gamma   61.31227128
_symmetry_Int_Tables_number   1
_chemical_formula_structural   ZnH14(C3O)2
_chemical_formula_sum   'Zn2 H28 C12 O4'
_cell_volume   390.07438694
_cell_formula_units_Z   2
loop_
 _symmetry_equiv_pos_site_id
 _symmetry_equiv_pos_as_xyz
  1  'x, y, z'
loop_
 _atom_site_type_symbol
 _atom_site_label
 _atom_site_symmetry_multiplicity
 _atom_site_fract_x
 _atom_site_fract_y
 _atom_site_fract_z
 _atom_site_occupancy
 _atom_site_pbe_bader_spin_density
 _atom_site_pbe_cm5_charge
 _atom_site_pbe_ddec_charge
 _atom_site_pbe_ddec_spin_density
 _atom_site_pbe_ddec_sum_bond_order
 _atom_site_pbe_magmom
Zn  Zn0  1  0.48219299  0.09002990  0.23315224  1  0  0.439962  0.627664  0  2.335996  0
Zn  Zn1  1  0.51780931  0.90996639  0.76684640  1  0  0.439966  0.627645  0  2.335997  0
H  H2  1  0.11545235  0.12699186  0.17416693  1  0  0.057619  0.142328  0  1.099855  0
H  H3  1  0.88455306  0.87299808  0.82582833  1  0  0.057628  0.142332  0  1.099837  0
H  H4  1  0.07984986  0.37642878  0.23523138  1  0  0.057908  0.138122  0  1.107503  0
H  H5  1  0.92014839  0.62356429  0.76476638  1  0  0.057899  0.138108  0  1.10755  0
H  H6  1  0.12645486  0.16980205  0.37102813  1  0  0.058513  0.14278  0  1.092359  0
H  H7  1  0.87354354  0.83018783  0.62896858  1  0  0.058522  0.14278  0  1.092325  0
H  H8  1  0.82586441  0.76879852  0.32753970  1  0  0.055942  0.137366  0  1.109194  0
H  H9  1  0.17413697  0.23120256  0.67246000  1  0  0.055944  0.137371  0  1.109183  0
H  H10  1  0.88793655  0.96529912  0.24642657  1  0  0.058543  0.14058  0  1.100213  0
H  H11  1  0.11206265  0.03470355  0.75357318  1  0  0.058558  0.140595  0  1.100251  0
H  H12  1  0.84272147  0.79848484  0.12546145  1  0  0.060273  0.148156  0  1.090181  0
H  H13  1  0.15728286  0.20151304  0.87454050  1  0  0.060262  0.148133  0  1.090209  0
H  H14  1  0.24762236  0.47050309  0.56657942  1  0  0.09844  0.069009  0  1.011609  0
H  H15  1  0.75237607  0.52950122  0.43341574  1  0  0.098462  0.069027  0  1.011631  0
H  H16  1  0.17991215  0.56937731  0.37531738  1  0  0.10728  0.090403  0  1.006213  0
H  H17  1  0.82008721  0.43062222  0.62467560  1  0  0.10729  0.090407  0  1.006288  0
H  H18  1  0.80749213  0.15888683  0.45038398  1  0  0.109291  0.093907  0  0.994364  0
H  H19  1  0.19251158  0.84110953  0.54960889  1  0  0.109313  0.093955  0  0.994411  0
H  H20  1  0.62132878  0.22572261  0.61151686  1  0  0.095911  0.061068  0  1.022332  0
H  H21  1  0.37867463  0.77428015  0.38847585  1  0  0.095952  0.061075  0  1.022326  0
H  H22  1  0.17090877  0.48282034  0.01211210  1  0  0.107674  0.08666  0  1.006486  0
H  H23  1  0.82908964  0.51718385  0.98789564  1  0  0.107664  0.086686  0  1.0065  0
H  H24  1  0.31710037  0.49450955  0.84168112  1  0  0.100096  0.071705  0  1.003881  0
H  H25  1  0.68289805  0.50549463  0.15832776  1  0  0.100091  0.071684  0  1.003827  0
H  H26  1  0.71082166  0.29969132  0.84936161  1  0  0.09931  0.068332  0  1.012669  0
H  H27  1  0.28917893  0.70031128  0.15064608  1  0  0.099332  0.068349  0  1.012583  0
H  H28  1  0.82055594  0.16397441  0.02512568  1  0  0.10936  0.092778  0  1.000414  0
H  H29  1  0.17944248  0.83602978  0.97488206  1  0  0.109388  0.092781  0  1.000459  0
C  C30  1  0.17081208  0.20267008  0.25444935  1  0  -0.429545  -0.794463  0  3.892653  0
C  C31  1  0.82918912  0.79731982  0.74554723  1  0  -0.429563  -0.794466  0  3.89265  0
C  C32  1  0.78983979  0.88640095  0.23336283  1  0  -0.430058  -0.79686  0  3.896657  0
C  C33  1  0.21015739  0.11360012  0.76663591  1  0  -0.43005  -0.796837  0  3.896684  0
C  C34  1  0.30093271  0.52518476  0.46127028  1  0  -0.077939  -0.024518  0  3.908211  0
C  C35  1  0.69907176  0.47480997  0.53872603  1  0  -0.077929  -0.024482  0  3.908279  0
C  C36  1  0.66384513  0.28801276  0.50502469  1  0  -0.077203  -0.023547  0  3.908338  0
C  C37  1  0.33615190  0.71199153  0.49497168  1  0  -0.077267  -0.02363  0  3.90832  0
C  C38  1  0.31260211  0.49331214  0.96785378  1  0  -0.076282  -0.018945  0  3.897246  0
C  C39  1  0.68739863  0.50668729  0.03215056  1  0  -0.076264  -0.018971  0  3.897166  0
C  C40  1  0.69030095  0.30771158  0.97513826  1  0  -0.075957  -0.022383  0  3.898241  0
C  C41  1  0.30969559  0.69228779  0.02486969  1  0  -0.075989  -0.022412  0  3.898086  0
O  O42  1  0.49551324  0.35162675  0.39940163  1  0  -0.225429  -0.216452  0  2.535426  0
O  O43  1  0.50448969  0.64837116  0.60059580  1  0  -0.225437  -0.216476  0  2.535308  0
O  O44  1  0.49523383  0.30357269  0.02144311  1  0  -0.223711  -0.213655  0  2.553621  0
O  O45  1  0.50476725  0.69643476  0.97856100  1  0  -0.223771  -0.213689  0  2.55341  0
