# generated using pymatgen
data_HgH10C11(IN2)2
_symmetry_space_group_name_H-M   'P 1'
_cell_length_a   5.37423188
_cell_length_b   16.10910834
_cell_length_c   19.83630012
_cell_angle_alpha   89.99949969
_cell_angle_beta   90.00093775
_cell_angle_gamma   98.67380412
_symmetry_Int_Tables_number   1
_chemical_formula_structural   HgH10C11(IN2)2
_chemical_formula_sum   'Hg4 H40 C44 I8 N16'
_cell_volume   1697.66853548
_cell_formula_units_Z   4
loop_
 _symmetry_equiv_pos_site_id
 _symmetry_equiv_pos_as_xyz
  1  'x, y, z'
loop_
 _atom_site_type_symbol
 _atom_site_label
 _atom_site_symmetry_multiplicity
 _atom_site_fract_x
 _atom_site_fract_y
 _atom_site_fract_z
 _atom_site_occupancy
 _atom_site_hle17_bader_spin_density
 _atom_site_hle17_ddec_charge
 _atom_site_hle17_ddec_spin_density
 _atom_site_hle17_ddec_sum_bond_order
 _atom_site_hle17_magmom
 _atom_site_hse06_10hf_bader_spin_density
 _atom_site_hse06_10hf_ddec_charge
 _atom_site_hse06_10hf_ddec_spin_density
 _atom_site_hse06_10hf_ddec_sum_bond_order
 _atom_site_hse06_10hf_magmom
 _atom_site_hse06_bader_spin_density
 _atom_site_hse06_ddec_charge
 _atom_site_hse06_ddec_spin_density
 _atom_site_hse06_ddec_sum_bond_order
 _atom_site_hse06_magmom
 _atom_site_pbe_bader_spin_density
 _atom_site_pbe_cm5_charge
 _atom_site_pbe_ddec_charge
 _atom_site_pbe_ddec_spin_density
 _atom_site_pbe_ddec_sum_bond_order
 _atom_site_pbe_magmom
Hg  Hg0  1  0.97421170  0.21891724  0.70648844  1  0  0.539195  0  2.174612  0  0  0.405718  0  2.665678  0  0  0.448042  0  2.643706  0  0  0.385906  0.377528  0  2.680015  0
Hg  Hg1  1  0.02576857  0.28108341  0.20647707  1  0  0.539328  0  2.174602  0  0  0.405851  0  2.665694  0  0  0.448174  0  2.643723  0  0  0.385958  0.377662  0  2.680044  0
Hg  Hg2  1  0.02579495  0.78109362  0.29351571  1  0  0.53927  0  2.17467  0  0  0.405781  0  2.665812  0  0  0.448102  0  2.643837  0  0  0.385927  0.377596  0  2.680145  0
Hg  Hg3  1  0.97421839  0.71891172  0.79351750  1  0  0.539281  0  2.174566  0  0  0.405811  0  2.665648  0  0  0.448136  0  2.643675  0  0  0.38594  0.377619  0  2.679994  0
H  H4  1  0.16835110  0.47119625  0.53438816  1  0  0.280384  0  0.941805  0  0  0.253197  0  1.018857  0  0  0.263062  0  1.011279  0  0  0.29857  0.246307  0  1.02407  0
H  H5  1  0.83164691  0.02880082  0.03439220  1  0  0.280311  0  0.941773  0  0  0.253155  0  1.018775  0  0  0.263016  0  1.0112  0  0  0.298563  0.246266  0  1.023988  0
H  H6  1  0.83164970  0.52880519  0.46560893  1  0  0.280377  0  0.941779  0  0  0.253237  0  1.018733  0  0  0.2631  0  1.011154  0  0  0.298592  0.246345  0  1.023946  0
H  H7  1  0.16836773  0.97120255  0.96561094  1  0  0.280227  0  0.941859  0  0  0.253122  0  1.018811  0  0  0.262988  0  1.011235  0  0  0.298551  0.24623  0  1.024022  0
H  H8  1  0.50400687  0.17560505  0.59474042  1  0  0.072825  0  0.967129  0  0  0.076777  0  1.038877  0  0  0.079779  0  1.03582  0  0  0.096496  0.07455  0  1.041134  0
H  H9  1  0.49597653  0.32438835  0.09473281  1  0  0.072777  0  0.967186  0  0  0.076802  0  1.038878  0  0  0.079796  0  1.035823  0  0  0.096524  0.074585  0  1.041135  0
H  H10  1  0.49601868  0.82440212  0.40526878  1  0  0.072768  0  0.9671  0  0  0.076679  0  1.038871  0  0  0.07968  0  1.03581  0  0  0.096506  0.074456  0  1.04113  0
H  H11  1  0.50400431  0.67560550  0.90526529  1  0  0.072821  0  0.967207  0  0  0.076789  0  1.038936  0  0  0.079789  0  1.035874  0  0  0.096537  0.074569  0  1.041194  0
H  H12  1  0.17983544  0.23766408  0.53263113  1  0  0.115381  0  0.95364  0  0  0.125669  0  1.011667  0  0  0.129293  0  1.01024  0  0  0.104833  0.123108  0  1.012817  0
H  H13  1  0.82015369  0.26232984  0.03262892  1  0  0.115313  0  0.953704  0  0  0.125615  0  1.011726  0  0  0.129232  0  1.010317  0  0  0.104786  0.123071  0  1.012848  0
H  H14  1  0.82019837  0.76233622  0.46737403  1  0  0.115311  0  0.953761  0  0  0.125671  0  1.01168  0  0  0.129283  0  1.010285  0  0  0.104839  0.123104  0  1.012828  0
H  H15  1  0.17982954  0.73766966  0.96736768  1  0  0.11537  0  0.953724  0  0  0.125697  0  1.011694  0  0  0.129313  0  1.010287  0  0  0.104825  0.123124  0  1.012852  0
H  H16  1  0.56251722  0.48265377  0.59399687  1  0  0.11686  0  0.960978  0  0  0.128154  0  1.017895  0  0  0.131192  0  1.01799  0  0  0.105902  0.125936  0  1.01811  0
H  H17  1  0.43748211  0.01734220  0.09399927  1  0  0.116905  0  0.96086  0  0  0.128171  0  1.017808  0  0  0.13122  0  1.017888  0  0  0.105907  0.125925  0  1.018067  0
H  H18  1  0.43746255  0.51734635  0.40599922  1  0  0.116772  0  0.960895  0  0  0.128037  0  1.017893  0  0  0.131056  0  1.018012  0  0  0.105858  0.125842  0  1.018081  0
H  H19  1  0.56254877  0.98265997  0.90600337  1  0  0.116929  0  0.960816  0  0  0.128149  0  1.017829  0  0  0.131233  0  1.017867  0  0  0.105881  0.125933  0  1.018042  0
H  H20  1  0.85243600  0.40797297  0.66106270  1  0  0.067322  0  0.962714  0  0  0.073623  0  1.034358  0  0  0.076789  0  1.030353  0  0  0.099915  0.07136  0  1.037145  0
H  H21  1  0.14756268  0.09202497  0.16106279  1  0  0.067306  0  0.962747  0  0  0.073637  0  1.034361  0  0  0.076807  0  1.030343  0  0  0.099924  0.071378  0  1.037148  0
H  H22  1  0.14755307  0.59204034  0.33893944  1  0  0.067415  0  0.962674  0  0  0.073663  0  1.034377  0  0  0.076822  0  1.030371  0  0  0.099958  0.071406  0  1.037141  0
H  H23  1  0.85245676  0.90797215  0.83894035  1  0  0.067329  0  0.962638  0  0  0.073643  0  1.034288  0  0  0.076802  0  1.030285  0  0  0.099929  0.071388  0  1.037061  0
H  H24  1  0.03651664  0.31097446  0.45621762  1  0  0.056344  0  0.92695  0  0  0.072254  0  0.986821  0  0  0.073525  0  0.983874  0  0  0.131591  0.071245  0  0.988963  0
H  H25  1  0.96346635  0.18902296  0.95621856  1  0  0.056422  0  0.926919  0  0  0.072346  0  0.986776  0  0  0.073621  0  0.98382  0  0  0.131631  0.07134  0  0.988916  0
H  H26  1  0.96348336  0.68902071  0.54377948  1  0  0.056417  0  0.926916  0  0  0.072263  0  0.986852  0  0  0.073537  0  0.983897  0  0  0.131662  0.071255  0  0.988992  0
H  H27  1  0.03653712  0.81097598  0.04378055  1  0  0.056413  0  0.926873  0  0  0.072334  0  0.986737  0  0  0.073608  0  0.983784  0  0  0.131658  0.071328  0  0.988871  0
H  H28  1  0.49098790  0.43470416  0.23621696  1  0  0.073643  0  0.970148  0  0  0.077903  0  1.04276  0  0  0.080882  0  1.039807  0  0  0.093867  0.075703  0  1.044984  0
H  H29  1  0.50898876  0.06529248  0.73622487  1  0  0.073627  0  0.970016  0  0  0.077833  0  1.042676  0  0  0.080809  0  1.039724  0  0  0.093846  0.075635  0  1.044903  0
H  H30  1  0.50897057  0.56529839  0.76378971  1  0  0.073559  0  0.969903  0  0  0.07782  0  1.042546  0  0  0.080803  0  1.039583  0  0  0.093823  0.075614  0  1.044767  0
H  H31  1  0.49102242  0.93470711  0.26377576  1  0  0.073646  0  0.969977  0  0  0.07785  0  1.042647  0  0  0.080825  0  1.039696  0  0  0.093873  0.075645  0  1.044879  0
H  H32  1  0.81095641  0.49182406  0.32107703  1  0  0.109496  0  0.978433  0  0  0.116899  0  1.046193  0  0  0.121012  0  1.043782  0  0  0.094371  0.113978  0  1.048041  0
H  H33  1  0.18903022  0.00817069  0.82108647  1  0  0.109562  0  0.978383  0  0  0.116908  0  1.046249  0  0  0.121017  0  1.043837  0  0  0.094355  0.113988  0  1.048102  0
H  H34  1  0.18902097  0.50817041  0.67892410  1  0  0.109479  0  0.978497  0  0  0.116887  0  1.046251  0  0  0.120997  0  1.043841  0  0  0.094351  0.113965  0  1.048105  0
H  H35  1  0.81098496  0.99182955  0.17891365  1  0  0.109527  0  0.978366  0  0  0.116874  0  1.046238  0  0  0.120982  0  1.043827  0  0  0.094327  0.113947  0  1.048088  0
H  H36  1  0.57787482  0.26846097  0.44044383  1  0  0.109563  0  0.963077  0  0  0.121573  0  1.019912  0  0  0.124394  0  1.020034  0  0  0.102728  0.119615  0  1.01993  0
H  H37  1  0.42207265  0.23153833  0.94044765  1  0  0.109549  0  0.963035  0  0  0.121524  0  1.019908  0  0  0.124344  0  1.02003  0  0  0.1027  0.119562  0  1.019927  0
H  H38  1  0.42213158  0.73153171  0.55954973  1  0  0.109511  0  0.963263  0  0  0.121504  0  1.020113  0  0  0.124326  0  1.020235  0  0  0.102757  0.119539  0  1.020129  0
H  H39  1  0.57790659  0.76846053  0.05955347  1  0  0.109542  0  0.963029  0  0  0.121527  0  1.019886  0  0  0.124348  0  1.020007  0  0  0.102697  0.119563  0  1.019905  0
H  H40  1  0.26913846  0.21975996  0.34893483  1  0  0.06997  0  0.962025  0  0  0.07566  0  1.03145  0  0  0.079062  0  1.027503  0  0  0.097878  0.073187  0  1.034304  0
H  H41  1  0.73079573  0.28024316  0.84894117  1  0  0.069904  0  0.962026  0  0  0.07564  0  1.031407  0  0  0.079044  0  1.027455  0  0  0.097837  0.073169  0  1.034254  0
H  H42  1  0.73084398  0.78023326  0.65106176  1  0  0.07002  0  0.962105  0  0  0.075703  0  1.031524  0  0  0.079106  0  1.027576  0  0  0.097901  0.073231  0  1.034374  0
H  H43  1  0.26918457  0.71976260  0.15106198  1  0  0.069911  0  0.962064  0  0  0.075643  0  1.031446  0  0  0.079044  0  1.027499  0  0  0.097849  0.073173  0  1.034292  0
C  C44  1  0.51121176  0.24375283  0.59316984  1  0  0.125959  0  3.758259  0  0  0.099856  0  4.008055  0  0  0.107998  0  4.026417  0  0  0.034228  0.094694  0  3.995448  0
C  C45  1  0.48877182  0.25624121  0.09316319  1  0  0.125862  0  3.758368  0  0  0.099716  0  4.008213  0  0  0.107867  0  4.026584  0  0  0.034157  0.094553  0  3.995611  0
C  C46  1  0.48879916  0.75625053  0.40683633  1  0  0.126051  0  3.758327  0  0  0.100024  0  4.008102  0  0  0.108173  0  4.02646  0  0  0.034266  0.094862  0  3.995491  0
C  C47  1  0.51121994  0.74375205  0.90683441  1  0  0.125913  0  3.758281  0  0  0.099815  0  4.008082  0  0  0.107966  0  4.026441  0  0  0.034186  0.094655  0  3.995469  0
C  C48  1  0.33185597  0.27921656  0.55702901  1  0  -0.237117  0  3.74626  0  0  -0.251672  0  3.997109  0  0  -0.262892  0  4.018354  0  0  -0.100919  -0.244473  0  3.982902  0
C  C49  1  0.66813696  0.22077843  0.05702794  1  0  -0.236953  0  3.746415  0  0  -0.251511  0  3.997278  0  0  -0.262736  0  4.018518  0  0  -0.100846  -0.244312  0  3.983068  0
C  C50  1  0.66816186  0.72078996  0.44297262  1  0  -0.237056  0  3.746482  0  0  -0.251656  0  3.997306  0  0  -0.262882  0  4.018551  0  0  -0.100948  -0.244442  0  3.983097  0
C  C51  1  0.33186731  0.77921800  0.94297420  1  0  -0.237137  0  3.74638  0  0  -0.2517  0  3.997204  0  0  -0.26293  0  4.018449  0  0  -0.100932  -0.244476  0  3.983  0
C  C52  1  0.34774051  0.36704009  0.55588638  1  0  0.282095  0  3.800261  0  0  0.269425  0  4.051803  0  0  0.282703  0  4.0717  0  0  0.1099  0.260732  0  4.038131  0
C  C53  1  0.65225901  0.13295305  0.05588738  1  0  0.281834  0  3.800599  0  0  0.269182  0  4.052127  0  0  0.28246  0  4.072029  0  0  0.109869  0.260496  0  4.038446  0
C  C54  1  0.65227998  0.63296392  0.44411223  1  0  0.281957  0  3.79999  0  0  0.269273  0  4.051592  0  0  0.282553  0  4.071483  0  0  0.109909  0.260581  0  4.037919  0
C  C55  1  0.34774818  0.86704591  0.94411324  1  0  0.281891  0  3.800426  0  0  0.269208  0  4.051999  0  0  0.282486  0  4.071915  0  0  0.109878  0.26052  0  4.03832  0
C  C56  1  0.54181355  0.41444806  0.59293034  1  0  -0.212107  0  3.698843  0  0  -0.231058  0  3.955105  0  0  -0.240365  0  3.974027  0  0  -0.097895  -0.225153  0  3.942559  0
C  C57  1  0.45817879  0.08554914  0.09293032  1  0  -0.21208  0  3.698885  0  0  -0.231038  0  3.955194  0  0  -0.240356  0  3.974115  0  0  -0.097881  -0.225107  0  3.942664  0
C  C58  1  0.45819017  0.58555590  0.40706877  1  0  -0.211935  0  3.698529  0  0  -0.230867  0  3.954785  0  0  -0.240158  0  3.973715  0  0  -0.097844  -0.224983  0  3.942231  0
C  C59  1  0.54183825  0.91445110  0.90706929  1  0  -0.212069  0  3.698832  0  0  -0.230981  0  3.955151  0  0  -0.240327  0  3.974056  0  0  -0.097822  -0.225077  0  3.942611  0
C  C60  1  0.70581841  0.37316906  0.62949915  1  0  0.144303  0  3.749575  0  0  0.111301  0  4.009921  0  0  0.120873  0  4.026135  0  0  0.036305  0.105149  0  3.998794  0
C  C61  1  0.29418403  0.12682914  0.12949863  1  0  0.144239  0  3.749624  0  0  0.111256  0  4.00995  0  0  0.120833  0  4.026167  0  0  0.036267  0.10511  0  3.998821  0
C  C62  1  0.29418904  0.62683491  0.37050298  1  0  0.144118  0  3.749694  0  0  0.111172  0  4.01004  0  0  0.120753  0  4.02624  0  0  0.036219  0.105025  0  3.998919  0
C  C63  1  0.70582636  0.87316857  0.87050602  1  0  0.14417  0  3.749772  0  0  0.111169  0  4.010099  0  0  0.120746  0  4.026324  0  0  0.03622  0.105021  0  3.998982  0
C  C64  1  0.02605710  0.37613846  0.47054765  1  0  0.338063  0  3.749703  0  0  0.274478  0  4.027745  0  0  0.296852  0  4.035272  0  0  0.191942  0.259661  0  4.022056  0
C  C65  1  0.97393524  0.12385700  0.97055365  1  0  0.337849  0  3.750077  0  0  0.274264  0  4.028111  0  0  0.296639  0  4.035637  0  0  0.191823  0.259448  0  4.022421  0
C  C66  1  0.97394024  0.62386360  0.52944591  1  0  0.338299  0  3.748949  0  0  0.274792  0  4.026994  0  0  0.297174  0  4.034505  0  0  0.191995  0.259973  0  4.021311  0
C  C67  1  0.02608526  0.87614263  0.02944496  1  0  0.337954  0  3.749889  0  0  0.274395  0  4.02792  0  0  0.296773  0  4.03545  0  0  0.19185  0.25958  0  4.022228  0
C  C68  1  0.51657485  0.39956562  0.28215817  1  0  0.127601  0  3.745276  0  0  0.100639  0  3.993188  0  0  0.108366  0  4.011799  0  0  0.033221  0.095717  0  3.98046  0
C  C69  1  0.48340660  0.10043129  0.78216571  1  0  0.127622  0  3.745265  0  0  0.100712  0  3.993205  0  0  0.108442  0  4.011806  0  0  0.03317  0.095788  0  3.980481  0
C  C70  1  0.48341238  0.60043452  0.71784246  1  0  0.127738  0  3.745341  0  0  0.100805  0  3.993264  0  0  0.10853  0  4.011872  0  0  0.033208  0.095889  0  3.980532  0
C  C71  1  0.51661044  0.89956895  0.21783289  1  0  0.127577  0  3.745541  0  0  0.100657  0  3.993431  0  0  0.108388  0  4.012037  0  0  0.033184  0.095731  0  3.980708  0
C  C72  1  0.69458982  0.43132712  0.32979837  1  0  -0.209854  0  3.721714  0  0  -0.225236  0  3.967779  0  0  -0.234775  0  3.987405  0  0  -0.097617  -0.219114  0  3.954658  0
C  C73  1  0.30538880  0.06866940  0.82980436  1  0  -0.209932  0  3.721589  0  0  -0.225263  0  3.967446  0  0  -0.234811  0  3.987096  0  0  -0.097537  -0.219144  0  3.954338  0
C  C74  1  0.30539981  0.56866550  0.67020275  1  0  -0.209897  0  3.721765  0  0  -0.225302  0  3.967785  0  0  -0.23484  0  3.987413  0  0  -0.097604  -0.219177  0  3.954648  0
C  C75  1  0.69462532  0.93132832  0.17019424  1  0  -0.209943  0  3.72162  0  0  -0.225221  0  3.967553  0  0  -0.23477  0  3.987203  0  0  -0.097553  -0.219098  0  3.954438  0
C  C76  1  0.71968620  0.38528523  0.38888875  1  0  0.268011  0  3.84252  0  0  0.264473  0  4.091663  0  0  0.2762  0  4.111654  0  0  0.099994  0.256775  0  4.077987  0
C  C77  1  0.28029343  0.11470957  0.88889379  1  0  0.267991  0  3.842256  0  0  0.26462  0  4.091148  0  0  0.276344  0  4.111136  0  0  0.100049  0.25692  0  4.077479  0
C  C78  1  0.28029278  0.61470422  0.61111087  1  0  0.268172  0  3.842318  0  0  0.264725  0  4.091376  0  0  0.276455  0  4.111363  0  0  0.10016  0.257028  0  4.077702  0
C  C79  1  0.71971961  0.88529003  0.11110431  1  0  0.268264  0  3.842386  0  0  0.264707  0  4.091512  0  0  0.276434  0  4.111501  0  0  0.100105  0.257008  0  4.077837  0
C  C80  1  0.56641429  0.30692827  0.39571859  1  0  -0.229898  0  3.737517  0  0  -0.246154  0  3.986827  0  0  -0.256604  0  4.00856  0  0  -0.10307  -0.239458  0  3.972262  0
C  C81  1  0.43356254  0.19307212  0.89572476  1  0  -0.22984  0  3.737429  0  0  -0.246119  0  3.986736  0  0  -0.256567  0  4.008467  0  0  -0.103054  -0.239422  0  3.972172  0
C  C82  1  0.43356815  0.69306496  0.60427396  1  0  -0.229928  0  3.737167  0  0  -0.24618  0  3.986458  0  0  -0.256632  0  4.008193  0  0  -0.103214  -0.239481  0  3.971887  0
C  C83  1  0.56644838  0.80692685  0.10427687  1  0  -0.230011  0  3.737163  0  0  -0.246232  0  3.986539  0  0  -0.256683  0  4.008269  0  0  -0.103158  -0.239536  0  3.971973  0
C  C84  1  0.39330431  0.27994101  0.34526888  1  0  0.127915  0  3.770551  0  0  0.098329  0  4.024851  0  0  0.107018  0  4.042095  0  0  0.031081  0.092771  0  4.013061  0
C  C85  1  0.60666189  0.22005912  0.84527611  1  0  0.127892  0  3.770506  0  0  0.098289  0  4.024824  0  0  0.106974  0  4.042065  0  0  0.031054  0.092732  0  4.01302  0
C  C86  1  0.60668185  0.72005662  0.65472569  1  0  0.127896  0  3.770372  0  0  0.09834  0  4.024678  0  0  0.107026  0  4.041917  0  0  0.031053  0.092778  0  4.012881  0
C  C87  1  0.39332720  0.77994542  0.15472451  1  0  0.128058  0  3.770267  0  0  0.098449  0  4.024578  0  0  0.107136  0  4.041819  0  0  0.031192  0.092891  0  4.012769  0
I  I88  1  0.95365936  0.07284489  0.63830382  1  0  -0.367062  0  1.032428  0  0  -0.3262  0  1.316394  0  0  -0.34271  0  1.298178  0  0  -0.205992  -0.315004  0  1.328924  0
I  I89  1  0.04634386  0.42715387  0.13829201  1  0  -0.367145  0  1.032423  0  0  -0.326295  0  1.316411  0  0  -0.342804  0  1.298193  0  0  -0.20604  -0.315092  0  1.328938  0
I  I90  1  0.04636167  0.92716038  0.36170134  1  0  -0.367092  0  1.032496  0  0  -0.326236  0  1.316481  0  0  -0.342743  0  1.298265  0  0  -0.20601  -0.315051  0  1.329013  0
I  I91  1  0.95364603  0.57284377  0.86170610  1  0  -0.367107  0  1.032482  0  0  -0.326255  0  1.316475  0  0  -0.342764  0  1.298258  0  0  -0.206028  -0.315069  0  1.329002  0
I  I92  1  0.20323805  0.35672678  0.77129825  1  0  -0.341231  0  1.124729  0  0  -0.299229  0  1.446076  0  0  -0.317321  0  1.429106  0  0  -0.174232  -0.287029  0  1.457745  0
I  I93  1  0.79672653  0.14327581  0.27129124  1  0  -0.341267  0  1.124687  0  0  -0.299238  0  1.446034  0  0  -0.317333  0  1.429065  0  0  -0.174206  -0.287004  0  1.457705  0
I  I94  1  0.79676647  0.64328345  0.22870691  1  0  -0.341242  0  1.124721  0  0  -0.299231  0  1.446072  0  0  -0.317324  0  1.429101  0  0  -0.174222  -0.287044  0  1.457739  0
I  I95  1  0.20326788  0.85671933  0.72870435  1  0  -0.341259  0  1.124645  0  0  -0.299256  0  1.446016  0  0  -0.317344  0  1.429043  0  0  -0.174228  -0.287051  0  1.457689  0
N  N96  1  0.69504732  0.28938494  0.62901194  1  0  -0.309587  0  3.238471  0  0  -0.24022  0  3.50547  0  0  -0.260817  0  3.526969  0  0  -0.325529  -0.22634  0  3.490518  0
N  N97  1  0.30492634  0.21061568  0.12900784  1  0  -0.309515  0  3.238169  0  0  -0.240213  0  3.505266  0  0  -0.260817  0  3.526763  0  0  -0.325551  -0.226336  0  3.490327  0
N  N98  1  0.30495667  0.71062403  0.37099070  1  0  -0.309545  0  3.238381  0  0  -0.240208  0  3.505343  0  0  -0.260804  0  3.526837  0  0  -0.325541  -0.226333  0  3.490394  0
N  N99  1  0.69506408  0.78938322  0.87099026  1  0  -0.309449  0  3.238289  0  0  -0.240121  0  3.505319  0  0  -0.260725  0  3.526818  0  0  -0.325509  -0.226243  0  3.490373  0
N  N100  1  0.17976374  0.40896806  0.52089900  1  0  -0.377869  0  3.407413  0  0  -0.312916  0  3.65221  0  0  -0.33642  0  3.662775  0  0  -0.387086  -0.296694  0  3.644176  0
N  N101  1  0.82021779  0.09102718  0.02090456  1  0  -0.3775  0  3.407215  0  0  -0.312597  0  3.652052  0  0  -0.336097  0  3.662635  0  0  -0.386985  -0.296391  0  3.644049  0
N  N102  1  0.82023280  0.59102772  0.47909759  1  0  -0.377876  0  3.407336  0  0  -0.312968  0  3.652163  0  0  -0.336471  0  3.662738  0  0  -0.387123  -0.296764  0  3.644167  0
N  N103  1  0.17978914  0.90897115  0.97909657  1  0  -0.377577  0  3.407591  0  0  -0.3127  0  3.652382  0  0  -0.336182  0  3.662904  0  0  -0.387047  -0.296491  0  3.644368  0
N  N104  1  0.88296439  0.42148869  0.43913070  1  0  -0.437588  0  3.113046  0  0  -0.384132  0  3.379988  0  0  -0.405228  0  3.392666  0  0  -0.332898  -0.369692  0  3.370862  0
N  N105  1  0.11700750  0.07850255  0.93913832  1  0  -0.437599  0  3.113466  0  0  -0.384212  0  3.380356  0  0  -0.405311  0  3.393038  0  0  -0.332901  -0.36977  0  3.371236  0
N  N106  1  0.11704468  0.57849710  0.56086639  1  0  -0.437946  0  3.112659  0  0  -0.384555  0  3.379604  0  0  -0.40566  0  3.392282  0  0  -0.333047  -0.370109  0  3.370463  0
N  N107  1  0.88298239  0.92149509  0.06086180  1  0  -0.437679  0  3.113428  0  0  -0.384257  0  3.380404  0  0  -0.405361  0  3.393091  0  0  -0.332871  -0.369818  0  3.37128  0
N  N108  1  0.36529456  0.32584342  0.29009910  1  0  -0.302632  0  3.258158  0  0  -0.229129  0  3.520884  0  0  -0.249916  0  3.543045  0  0  -0.323517  -0.215096  0  3.505392  0
N  N109  1  0.63465647  0.17415521  0.79010779  1  0  -0.302427  0  3.258208  0  0  -0.228983  0  3.520973  0  0  -0.249771  0  3.543141  0  0  -0.323382  -0.214942  0  3.50547  0
N  N110  1  0.63465912  0.67415660  0.70989598  1  0  -0.302594  0  3.258538  0  0  -0.229149  0  3.521279  0  0  -0.249945  0  3.543461  0  0  -0.323415  -0.215111  0  3.505778  0
N  N111  1  0.36533368  0.82585184  0.20989233  1  0  -0.30263  0  3.258462  0  0  -0.229174  0  3.52125  0  0  -0.249956  0  3.543399  0  0  -0.323563  -0.215132  0  3.505743  0
