# generated using pymatgen
data_Dy2CuH14C10S(N2O9)2
_symmetry_space_group_name_H-M   'P 1'
_cell_length_a   6.99620619
_cell_length_b   10.22158827
_cell_length_c   15.41329938
_cell_angle_alpha   80.87925661
_cell_angle_beta   80.20495479
_cell_angle_gamma   77.80828594
_symmetry_Int_Tables_number   1
_chemical_formula_structural   Dy2CuH14C10S(N2O9)2
_chemical_formula_sum   'Dy4 Cu2 H28 C20 S2 N8 O36'
_cell_volume   1053.04252330
_cell_formula_units_Z   2
loop_
 _symmetry_equiv_pos_site_id
 _symmetry_equiv_pos_as_xyz
  1  'x, y, z'
loop_
 _atom_site_type_symbol
 _atom_site_label
 _atom_site_symmetry_multiplicity
 _atom_site_fract_x
 _atom_site_fract_y
 _atom_site_fract_z
 _atom_site_occupancy
 _atom_site_hle17_ddec_charge
 _atom_site_hle17_ddec_spin_density
 _atom_site_hle17_ddec_sum_bond_order
 _atom_site_hle17_magmom
 _atom_site_hse06_10hf_ddec_charge
 _atom_site_hse06_10hf_ddec_spin_density
 _atom_site_hse06_10hf_ddec_sum_bond_order
 _atom_site_hse06_10hf_magmom
 _atom_site_hse06_ddec_charge
 _atom_site_hse06_ddec_spin_density
 _atom_site_hse06_ddec_sum_bond_order
 _atom_site_hse06_magmom
 _atom_site_pbe_cm5_charge
 _atom_site_pbe_ddec_charge
 _atom_site_pbe_ddec_spin_density
 _atom_site_pbe_ddec_sum_bond_order
 _atom_site_pbe_magmom
Dy  Dy0  1  0.35225735  0.21433806  0.26462860  1  2.218491  0.000273  1.670349  0.0  2.047539  -0.000395  2.163523  -0.001  2.09228  -0.000129  2.124981  0.0  1.546139  2.013475  -0.000766  2.192882  -0.001
Dy  Dy1  1  0.64773539  0.78566174  0.73537146  1  2.218512  0.00027  1.67032  0.0  2.047578  -0.000395  2.16346  -0.001  2.092322  -0.00013  2.124919  0.0  1.546151  2.013519  -0.000753  2.19282  -0.001
Dy  Dy2  1  0.74083102  0.81074710  0.37060178  1  2.334206  -0.000115  1.519374  0.0  2.265468  -0.000131  1.839068  0.0  2.308283  -5.9e-05  1.798955  0.0  1.526246  2.16155  -0.000287  2.002047  0.0
Dy  Dy3  1  0.25916926  0.18925173  0.62939777  1  2.334204  -0.000117  1.519344  0.0  2.26548  -0.00013  1.839035  0.0  2.308297  -5.9e-05  1.798922  0.0  1.526223  2.161622  -0.000243  2.001947  0.0
Cu  Cu4  1  0.38983879  0.36770173  0.96981471  1  0.82491  -0.673155  1.826767  -0.504  0.780021  -0.757548  2.237671  -0.608  0.866004  -0.817476  2.170876  -0.685  0.775436  0.725403  -0.717484  2.286562  -0.559
Cu  Cu5  1  0.61016237  0.63229913  0.03018651  1  0.824929  -0.673156  1.826796  -0.504  0.780071  -0.757549  2.237685  -0.608  0.866009  -0.817464  2.170905  -0.685  0.775402  0.725374  -0.717732  2.286618  -0.559
H  H6  1  0.95081237  0.71762794  0.14073679  1  0.156017  -0.000358  0.994857  -0.001  0.163538  -0.000232  1.054937  -0.001  0.167817  -0.000148  1.051998  0.0  0.11801  0.160138  -0.000323  1.05754  -0.001
H  H7  1  0.04919341  0.28237699  0.85926233  1  0.156049  -0.000354  0.994819  -0.001  0.163571  -0.000231  1.054909  -0.001  0.167859  -0.000147  1.051958  0.0  0.118058  0.160195  -0.000302  1.057524  -0.001
H  H8  1  0.85349127  0.92485559  0.00751524  1  0.148096  -0.00051  0.947105  -0.001  0.153525  -0.000427  1.01364  -0.001  0.157074  -0.000305  1.011433  0.0  0.116813  0.150868  -0.000549  1.01548  -0.001
H  H9  1  0.14651313  0.07514428  0.99248907  1  0.148058  -0.000514  0.94715  -0.001  0.153481  -0.000427  1.013691  -0.001  0.157033  -0.000306  1.011485  0.0  0.116793  0.150797  -0.00055  1.015555  -0.001
H  H10  1  0.69690109  0.30997213  0.29674802  1  0.455052  2e-05  0.824817  0.0  0.426424  8e-06  0.882136  0.0  0.436662  1e-05  0.867065  0.0  0.313372  0.419141  -7e-06  0.892897  0.0
H  H11  1  0.30309250  0.69002970  0.70324980  1  0.455052  1.8e-05  0.824816  0.0  0.426405  8e-06  0.882168  0.0  0.436645  1e-05  0.867095  0.0  0.313365  0.41914  9e-06  0.892906  0.0
H  H12  1  0.67089401  0.38033930  0.19508508  1  0.454761  -0.000338  0.836719  0.0  0.424545  -0.000399  0.896753  0.0  0.436706  -0.000272  0.879129  0.0  0.301668  0.416032  -0.000532  0.909089  0.0
H  H13  1  0.32909756  0.61966454  0.80491335  1  0.454731  -0.000338  0.836774  0.0  0.424551  -0.000399  0.89675  0.0  0.436697  -0.000272  0.879146  0.0  0.301684  0.41605  -0.000528  0.909072  0.0
H  H14  1  0.03645351  0.20686212  0.15499031  1  0.446326  0.000144  0.855747  0.0  0.412828  8.4e-05  0.922612  0.0  0.424919  6.8e-05  0.905043  0.0  0.296142  0.404325  8.3e-05  0.934944  0.0
H  H15  1  0.96354356  0.79313771  0.84500875  1  0.446313  0.000144  0.855779  0.0  0.412831  8.4e-05  0.922631  0.0  0.424903  6.8e-05  0.905083  0.0  0.296137  0.404329  8.8e-05  0.934962  0.0
H  H16  1  0.14425348  0.05880404  0.18778917  1  0.436117  -0.000119  0.864475  0.0  0.406467  -0.000134  0.925424  0.0  0.417386  -7.5e-05  0.909571  0.0  0.300991  0.398824  -0.000214  0.936562  0.0
H  H17  1  0.85574270  0.94119377  0.81220758  1  0.436123  -0.000119  0.864475  0.0  0.406437  -0.000134  0.925497  0.0  0.417359  -7.5e-05  0.909639  0.0  0.300958  0.398793  -0.00021  0.936636  0.0
H  H18  1  0.00856850  0.14237566  0.39096047  1  0.438913  -0.0  0.864634  0.0  0.404233  1e-06  0.933953  0.0  0.415206  1e-06  0.918099  0.0  0.303488  0.396535  1.7e-05  0.945092  0.0
H  H19  1  0.99143293  0.85761914  0.60903812  1  0.43891  -1e-06  0.864643  0.0  0.404225  1e-06  0.933968  0.0  0.4152  1e-06  0.918112  0.0  0.30343  0.396479  -1.2e-05  0.945164  0.0
H  H20  1  0.19907801  0.06961344  0.43720450  1  0.444931  -1e-06  0.835408  0.0  0.413985  1e-06  0.907066  0.0  0.423959  1e-06  0.892418  0.0  0.313063  0.406809  -2e-06  0.917561  0.0
H  H21  1  0.80092313  0.93038237  0.56279466  1  0.444925  -1e-06  0.835408  0.0  0.413982  1e-06  0.907063  0.0  0.423958  1e-06  0.892414  0.0  0.313027  0.406751  -2e-05  0.917628  0.0
H  H22  1  0.51483937  0.70086098  0.25187421  1  0.454734  -0.000391  0.828878  0.0  0.425786  -0.000424  0.887348  0.0  0.437438  -0.000288  0.870411  0.0  0.306406  0.417018  -0.000576  0.899987  0.0
H  H23  1  0.48516581  0.29913586  0.74812387  1  0.454772  -0.000394  0.828811  0.0  0.425809  -0.000424  0.887309  0.0  0.437465  -0.000288  0.870365  0.0  0.306385  0.417023  -0.000569  0.89997  0.0
H  H24  1  0.39071096  0.72634026  0.34592109  1  0.454862  2.6e-05  0.806272  0.0  0.431406  1e-05  0.864286  0.0  0.440982  1e-05  0.85001  0.0  0.323965  0.424067  -4e-06  0.875078  0.0
H  H25  1  0.60928988  0.27365656  0.65407733  1  0.455085  2.4e-05  0.806002  0.0  0.431592  1e-05  0.864048  0.0  0.441172  1e-05  0.849768  0.0  0.323989  0.424209  -2.1e-05  0.8749  0.0
H  H26  1  0.13078079  0.85579739  0.28026360  1  0.438646  0.000108  0.863113  0.0  0.407064  7.3e-05  0.927876  0.0  0.418422  5.9e-05  0.911244  0.0  0.303049  0.398897  6.9e-05  0.939589  0.0
H  H27  1  0.86922351  0.14419742  0.71973347  1  0.438736  0.000109  0.863  0.0  0.407159  7.3e-05  0.927753  0.0  0.418516  5.9e-05  0.91112  0.0  0.303091  0.398999  6.8e-05  0.939452  0.0
H  H28  1  0.09397261  0.93646498  0.36256998  1  0.447013  -1e-06  0.845034  0.0  0.419025  3e-06  0.903327  0.0  0.429873  2e-06  0.887498  0.0  0.30252  0.411157  -1.6e-05  0.914602  0.0
H  H29  1  0.90603345  0.06352884  0.63742834  1  0.447053  -0.0  0.844961  0.0  0.418997  3e-06  0.903358  0.0  0.429845  2e-06  0.887529  0.0  0.30251  0.411148  -6e-06  0.914613  0.0
H  H30  1  0.85418115  0.64507024  0.55697705  1  0.469023  -1.3e-05  0.81983  0.0  0.435996  -7e-06  0.884109  0.0  0.44825  -3e-06  0.866193  0.0  0.306483  0.426699  -1.2e-05  0.897774  0.0
H  H31  1  0.14581712  0.35493060  0.44302440  1  0.469028  -1.2e-05  0.819816  0.0  0.435995  -7e-06  0.884107  0.0  0.448251  -3e-06  0.86619  0.0  0.306447  0.426667  -1.6e-05  0.897816  0.0
H  H32  1  0.94721952  0.60066374  0.45909635  1  0.429885  -4.1e-05  0.858837  0.0  0.404646  -3e-05  0.91362  0.0  0.415624  -1.5e-05  0.8971  0.0  0.311475  0.396963  -5.4e-05  0.924992  0.0
H  H33  1  0.05277960  0.39933913  0.54090417  1  0.429862  -3.9e-05  0.85883  0.0  0.404623  -3e-05  0.913642  0.0  0.415601  -1.5e-05  0.897122  0.0  0.311424  0.396888  -6.1e-05  0.925088  0.0
C  C34  1  0.06699235  0.50559648  0.29558596  1  0.712404  -0.000418  3.856347  -0.001  0.6655  -0.000467  4.142989  -0.001  0.702141  -0.00029  4.129069  -0.001  0.243893  0.639579  -0.00076  4.151812  -0.001
C  C35  1  0.93300736  0.49440437  0.70441472  1  0.712474  -0.000423  3.85637  -0.001  0.665563  -0.000468  4.142984  -0.001  0.702206  -0.000289  4.129058  -0.001  0.243973  0.639644  -0.000732  4.151826  -0.001
C  C36  1  0.11354936  0.51975804  0.19820748  1  0.02355  -0.001539  3.758316  -0.006  0.027824  -0.001899  4.011213  -0.005  0.025768  -0.000216  4.026337  -0.003  0.078946  0.02914  -0.003194  4.001366  -0.006
C  C37  1  0.88644977  0.48023977  0.80179292  1  0.023508  -0.001522  3.758443  -0.006  0.027857  -0.001902  4.011251  -0.005  0.025798  -0.000213  4.026378  -0.003  0.078944  0.029167  -0.003226  4.001418  -0.006
C  C38  1  0.05104235  0.62281747  0.13201737  1  -0.147337  0.000424  3.647634  0.0  -0.190639  7.5e-05  3.912377  0.0  -0.19182  0.000158  3.928436  0.0  -0.094249  -0.189895  -1.9e-05  3.902328  0.0
C  C39  1  0.94895793  0.37718642  0.86798230  1  -0.147349  0.000388  3.647728  0.0  -0.190656  7.6e-05  3.912427  0.0  -0.191844  0.000157  3.928486  0.0  -0.094272  -0.189916  8e-06  3.902402  0.0
C  C40  1  0.15001337  0.57480527  0.05381581  1  -0.02265  0.001702  3.853533  -0.003  -0.027677  0.000609  4.137373  -0.003  -0.031829  0.002604  4.161471  0.0  0.057555  -0.02505  -0.000838  4.121809  -0.004
C  C41  1  0.84998285  0.42519759  0.94618429  1  -0.022687  0.001727  3.853645  -0.003  -0.027712  0.000608  4.137501  -0.003  -0.031869  0.002605  4.16161  0.0  0.057553  -0.025102  -0.000858  4.121965  -0.004
C  C42  1  0.15102740  0.62377811  0.95917120  1  0.627048  0.006051  3.921999  0.005  0.571358  0.001959  4.231482  0.002  0.606638  0.001969  4.225795  0.002  0.21015  0.547324  0.001732  4.234592  0.002
C  C43  1  0.84897376  0.37622276  0.04082937  1  0.627048  0.00605  3.922052  0.005  0.571375  0.001959  4.231516  0.002  0.606654  0.001969  4.225832  0.002  0.210141  0.54734  0.001729  4.234651  0.002
C  C44  1  0.64789389  0.16811801  0.88090490  1  0.639586  0.006053  3.900639  0.005  0.586554  0.001858  4.202696  0.002  0.62224  0.001917  4.196681  0.002  0.222228  0.562412  0.001661  4.206052  0.002
C  C45  1  0.35210728  0.83188286  0.11909632  1  0.63962  0.006067  3.900532  0.005  0.586552  0.001858  4.202592  0.002  0.622245  0.001919  4.196579  0.002  0.222202  0.562392  0.00156  4.205956  0.002
C  C46  1  0.64850915  0.12105486  0.97619206  1  0.002646  0.000477  3.784584  -0.003  0.003596  -0.000674  4.048059  -0.003  0.000711  0.001352  4.071413  -0.001  0.070405  0.005625  -0.002112  4.032461  -0.004
C  C47  1  0.35149868  0.87894805  0.02380906  1  0.002528  0.000431  3.784761  -0.003  0.003601  -0.000673  4.048085  -0.003  0.000695  0.001345  4.071464  -0.001  0.070365  0.005607  -0.002111  4.032509  -0.004
C  C48  1  0.74437799  0.01061805  0.02863056  1  -0.137085  -0.000163  3.602213  -0.001  -0.17447  -0.000402  3.858828  -0.001  -0.175228  -0.000411  3.875713  -0.001  -0.082403  -0.174075  -0.000342  3.848326  0.0
C  C49  1  0.25562813  0.98938082  0.97137176  1  -0.136995  -9.9e-05  3.602323  0.0  -0.174413  -0.000403  3.85889  -0.001  -0.175161  -0.00041  3.875766  -0.001  -0.082407  -0.174043  -0.000351  3.848453  0.0
C  C50  1  0.66248312  0.03595783  0.11564072  1  0.028809  -0.001246  3.77598  -0.005  0.035364  -0.001711  4.02725  -0.004  0.03141  -0.000136  4.044816  -0.003  0.079707  0.037204  -0.002917  4.016874  -0.006
C  C51  1  0.33752068  0.96404406  0.88436213  1  0.028679  -0.001287  3.776128  -0.005  0.035267  -0.001711  4.027353  -0.004  0.031316  -0.000134  4.044921  -0.003  0.079674  0.037094  -0.002909  4.017018  -0.006
C  C52  1  0.68931775  0.96103464  0.20279380  1  0.654488  -3e-05  3.935823  -0.001  0.60471  -0.000274  4.233554  -0.001  0.641027  -0.000117  4.220089  -0.001  0.210001  0.58113  -0.000426  4.234019  -0.001
C  C53  1  0.31068083  0.03896520  0.79720903  1  0.654551  -3.1e-05  3.935854  -0.001  0.604812  -0.000275  4.233559  -0.001  0.641124  -0.000117  4.220101  -0.001  0.210082  0.581211  -0.000461  4.234057  -0.001
S  S54  1  0.63820762  0.14310982  0.44835144  1  1.682149  -9e-06  5.731579  0.0  1.555553  1.5e-05  6.277463  0.0  1.613038  -1e-06  6.237402  0.0  0.611978  1.515125  -2e-05  6.298868  0.0
S  S55  1  0.36178975  0.85688900  0.55164770  1  1.682203  7e-06  5.73167  0.0  1.555607  1.4e-05  6.277556  0.0  1.613095  -3e-06  6.237491  0.0  0.611982  1.515196  4e-06  6.29897  0.0
N  N56  1  0.24215977  0.41589276  0.16108352  1  -0.331833  -0.003871  3.194734  -0.005  -0.292149  -0.004146  3.47961  -0.005  -0.298319  -0.001984  3.501092  -0.003  -0.309842  -0.287106  -0.005979  3.464947  -0.007
N  N57  1  0.75783181  0.58410603  0.83891673  1  -0.33182  -0.003886  3.19469  -0.006  -0.292145  -0.004146  3.479545  -0.005  -0.298319  -0.001987  3.501031  -0.003  -0.309833  -0.287109  -0.005969  3.464887  -0.007
N  N58  1  0.26287699  0.45129294  0.07385721  1  -0.221708  -0.094179  3.422291  -0.123  -0.203206  -0.066932  3.766494  -0.092  -0.230901  -0.055274  3.792412  -0.082  -0.277925  -0.186795  -0.073517  3.751521  -0.096
N  N59  1  0.73711401  0.54870786  0.92614288  1  -0.221718  -0.094183  3.422402  -0.123  -0.203252  -0.066932  3.766667  -0.092  -0.230935  -0.055278  3.792568  -0.082  -0.277981  -0.186834  -0.073516  3.751693  -0.096
N  N60  1  0.52100116  0.20347922  0.03053972  1  -0.205369  -0.09272  3.411331  -0.12  -0.181479  -0.066791  3.742669  -0.091  -0.208577  -0.05579  3.768069  -0.081  -0.271291  -0.165341  -0.072596  3.727681  -0.095
N  N61  1  0.47900670  0.79652370  0.96946269  1  -0.20528  -0.092719  3.411306  -0.12  -0.181439  -0.066788  3.742628  -0.091  -0.208519  -0.055789  3.768015  -0.081  -0.271324  -0.165339  -0.072645  3.727687  -0.095
N  N62  1  0.52742389  0.15402152  0.11487099  1  -0.322018  -0.002659  3.188304  -0.004  -0.286799  -0.003444  3.472872  -0.004  -0.29228  -0.001309  3.494262  -0.002  -0.28859  -0.282453  -0.005167  3.458977  -0.006
N  N63  1  0.47257991  0.84598037  0.88513186  1  -0.321998  -0.002624  3.18825  -0.004  -0.286792  -0.003445  3.472825  -0.004  -0.292276  -0.001307  3.494213  -0.002  -0.288633  -0.282502  -0.005227  3.458987  -0.006
O  O64  1  0.95878061  0.59995147  0.33501031  1  -0.693774  -0.001737  2.015625  -0.003  -0.645659  -0.000575  2.252067  -0.001  -0.670845  -2e-06  2.238061  0.0  -0.355071  -0.618414  -0.001349  2.263887  -0.002
O  O65  1  0.04122404  0.40005245  0.66499096  1  -0.693769  -0.001731  2.015656  -0.003  -0.645653  -0.000576  2.252085  -0.001  -0.67084  -3e-06  2.238083  0.0  -0.355055  -0.618389  -0.00136  2.263919  -0.002
O  O66  1  0.14592219  0.39134501  0.33626772  1  -0.728747  0.00049  2.038744  0.0  -0.663448  0.000325  2.27596  0.0  -0.689638  0.000336  2.262369  0.0  -0.380522  -0.645813  0.000134  2.28651  0.0
O  O67  1  0.85407054  0.60865480  0.66373169  1  -0.728784  0.000492  2.038723  0.0  -0.66351  0.000326  2.275955  0.0  -0.689699  0.000338  2.262361  0.0  -0.380551  -0.645845  0.000219  2.286495  0.0
O  O68  1  0.04896582  0.73501268  0.93447006  1  -0.570222  -0.007169  1.996472  -0.01  -0.515318  -0.004046  2.223246  -0.006  -0.539871  -0.001904  2.214471  -0.003  -0.28595  -0.497807  -0.006449  2.2287  -0.009
O  O69  1  0.95103762  0.26499022  0.06552816  1  -0.570154  -0.007163  1.99649  -0.01  -0.515278  -0.004046  2.223288  -0.006  -0.539839  -0.001902  2.214518  -0.003  -0.285926  -0.49778  -0.006422  2.228756  -0.009
O  O70  1  0.26331560  0.54183672  0.90555805  1  -0.608878  -0.06331  2.054923  -0.089  -0.560508  -0.043642  2.327036  -0.066  -0.599563  -0.034367  2.316654  -0.056  -0.318736  -0.534008  -0.049776  2.334599  -0.071
O  O71  1  0.73668614  0.45816718  0.09444215  1  -0.608958  -0.063313  2.055004  -0.089  -0.560571  -0.043641  2.327119  -0.066  -0.599624  -0.034368  2.31673  -0.056  -0.318801  -0.534086  -0.049797  2.334681  -0.071
O  O72  1  0.52554919  0.28068358  0.86175731  1  -0.599874  -0.062911  2.017516  -0.089  -0.554479  -0.044629  2.283358  -0.067  -0.593382  -0.035281  2.27252  -0.058  -0.315761  -0.528456  -0.050848  2.291593  -0.073
O  O73  1  0.47444911  0.71931727  0.13824608  1  -0.599836  -0.062913  2.017563  -0.089  -0.554454  -0.044628  2.283411  -0.067  -0.593344  -0.035283  2.272565  -0.058  -0.315722  -0.528445  -0.050781  2.291663  -0.073
O  O74  1  0.75708671  0.10342413  0.82230210  1  -0.596015  -0.006312  2.052762  -0.009  -0.528316  -0.004022  2.266741  -0.006  -0.554112  -0.002173  2.257183  -0.003  -0.280272  -0.510579  -0.005706  2.273361  -0.008
O  O75  1  0.24290489  0.89657466  0.17769945  1  -0.596023  -0.006319  2.052727  -0.009  -0.528342  -0.004023  2.26671  -0.006  -0.554143  -0.002172  2.257157  -0.003  -0.280422  -0.510765  -0.005912  2.273395  -0.008
O  O76  1  0.81684067  0.85441465  0.21362459  1  -0.657506  -0.000736  2.07063  -0.001  -0.61349  -0.000354  2.309505  -0.001  -0.638085  0.000119  2.300639  0.0  -0.360058  -0.588098  -0.000907  2.314731  -0.001
O  O77  1  0.18315907  0.14558620  0.78637804  1  -0.657405  -0.000742  2.070464  -0.001  -0.613497  -0.000353  2.30941  -0.001  -0.638097  0.000116  2.300558  0.0  -0.360179  -0.588231  -0.001049  2.314693  -0.001
O  O78  1  0.57562223  0.00612372  0.27195861  1  -0.820881  0.000534  2.102577  0.0  -0.774373  0.000348  2.371961  0.0  -0.799029  0.000332  2.359393  0.0  -0.437744  -0.748484  0.000279  2.378177  0.0
O  O79  1  0.42437344  0.99387610  0.72804381  1  -0.820929  0.000541  2.102672  0.0  -0.774443  0.000347  2.372068  0.0  -0.799093  0.000337  2.359492  0.0  -0.437876  -0.748644  0.000155  2.378324  0.0
O  O80  1  0.61131876  0.32857400  0.24992687  1  -0.945187  -0.001137  1.867565  -0.002  -0.893858  -0.000782  2.063644  -0.001  -0.913508  -0.000472  2.030493  -0.001  -0.660964  -0.879831  -0.001136  2.087095  -0.002
O  O81  1  0.38867482  0.67142784  0.75007096  1  -0.945179  -0.001135  1.867609  -0.002  -0.89387  -0.000782  2.063658  -0.001  -0.913512  -0.000472  2.030533  -0.001  -0.660958  -0.879838  -0.001123  2.087074  -0.002
O  O82  1  0.10583741  0.15180318  0.20479446  1  -0.940009  -0.000241  1.846935  0.0  -0.890206  -0.000174  2.050916  0.0  -0.91056  -5.9e-05  2.018493  0.0  -0.67046  -0.87555  -0.000381  2.073466  0.0
O  O83  1  0.89416168  0.84819464  0.79520335  1  -0.940016  -0.00024  1.846985  0.0  -0.890203  -0.000174  2.050879  0.0  -0.910542  -5.9e-05  2.018494  0.0  -0.67035  -0.875443  -0.000287  2.073406  0.0
O  O84  1  0.14705737  0.08816796  0.37985245  1  -0.879505  1.6e-05  1.900579  0.0  -0.81627  1.4e-05  2.097591  0.0  -0.837126  5e-06  2.067124  0.0  -0.608057  -0.802097  0.000154  2.119698  0.0
O  O85  1  0.85294319  0.91182986  0.62014718  1  -0.879503  1.8e-05  1.900592  0.0  -0.816249  1.4e-05  2.097621  0.0  -0.83711  5e-06  2.067158  0.0  -0.608171  -0.802226  -7.8e-05  2.119858  0.0
O  O86  1  0.46460999  0.17685566  0.40072424  1  -0.823468  -3.1e-05  2.120417  0.0  -0.760031  -1.1e-05  2.404068  0.0  -0.783253  -6e-06  2.38637  0.0  -0.426725  -0.742491  -0.0  2.413014  0.0
O  O87  1  0.53538881  0.82314317  0.59927349  1  -0.823438  -3.3e-05  2.120403  0.0  -0.759978  -1.3e-05  2.403996  0.0  -0.783202  -7e-06  2.386299  0.0  -0.426711  -0.742438  1e-05  2.412941  0.0
O  O88  1  0.57130539  0.16756740  0.54244243  1  -0.823577  -1e-05  1.994684  0.0  -0.77933  -1.9e-05  2.268988  0.0  -0.801608  -7e-06  2.248624  0.0  -0.424726  -0.753184  -1.2e-05  2.28405  0.0
O  O89  1  0.42869196  0.83243142  0.45755541  1  -0.823562  -3.2e-05  1.994604  0.0  -0.779322  -1.6e-05  2.26889  0.0  -0.801601  -1e-05  2.248526  0.0  -0.42473  -0.753235  -1.5e-05  2.283995  0.0
O  O90  1  0.78591674  0.22663820  0.40544581  1  -0.704968  -5e-06  1.918512  0.0  -0.643329  3e-06  2.143633  0.0  -0.665386  3e-06  2.124518  0.0  -0.327838  -0.628497  2.9e-05  2.157709  0.0
O  O91  1  0.21408352  0.77336064  0.59455310  1  -0.705021  1.4e-05  1.918576  0.0  -0.643369  -1e-06  2.143696  0.0  -0.665427  1.2e-05  2.124578  0.0  -0.327916  -0.628613  -8.5e-05  2.157812  0.0
O  O92  1  0.73146286  0.99592361  0.44778103  1  -0.859739  4e-06  2.013648  0.0  -0.808193  -5e-06  2.286031  0.0  -0.830248  2e-06  2.265603  0.0  -0.421501  -0.781788  6e-06  2.300616  0.0
O  O93  1  0.26853798  0.00407321  0.55221804  1  -0.859792  1.1e-05  2.013791  0.0  -0.808219  -5e-06  2.286102  0.0  -0.830266  3e-06  2.265659  0.0  -0.421522  -0.781826  4e-06  2.300672  0.0
O  O94  1  0.52550666  0.70329868  0.31521267  1  -0.904585  -0.000865  1.818355  -0.001  -0.866891  -0.000674  1.992069  -0.001  -0.884514  -0.000418  1.958668  -0.001  -0.634969  -0.844138  -0.001191  2.02224  -0.001
O  O95  1  0.47449882  0.29669715  0.68478614  1  -0.904836  -0.000859  1.818126  -0.001  -0.867106  -0.000675  1.991813  -0.001  -0.884732  -0.000418  1.958402  -0.001  -0.63504  -0.844397  -0.001258  2.022078  -0.001
O  O96  1  0.06565883  0.85451346  0.34318333  1  -0.936846  0.000103  1.855293  0.0  -0.901475  8.2e-05  2.046995  0.0  -0.920778  6.6e-05  2.012983  0.0  -0.653532  -0.877616  -0.000158  2.075992  0.0
O  O97  1  0.93434578  0.14548035  0.65681511  1  -0.936959  9.9e-05  1.855102  0.0  -0.901544  8.2e-05  2.046902  0.0  -0.920863  6.5e-05  2.012927  0.0  -0.653501  -0.877639  -0.000111  2.075856  0.0
O  O98  1  0.85217171  0.66780392  0.49116198  1  -0.940927  -9.9e-05  1.854854  0.0  -0.901406  -6.2e-05  2.040742  0.0  -0.919427  -3.4e-05  2.004057  0.0  -0.662444  -0.877309  1.3e-05  2.072855  0.0
O  O99  1  0.14783119  0.33220099  0.50883867  1  -0.940894  -0.000101  1.854847  0.0  -0.901364  -6.2e-05  2.040742  0.0  -0.919383  -3.4e-05  2.004057  0.0  -0.662604  -0.877515  -0.000261  2.073025  0.0
