# generated using pymatgen
data_ZnH13C14N2O5
_symmetry_space_group_name_H-M   'P 1'
_cell_length_a   7.83301083
_cell_length_b   12.02025689
_cell_length_c   15.79400000
_cell_angle_alpha   90.00000000
_cell_angle_beta   98.18278131
_cell_angle_gamma   90.00000000
_symmetry_Int_Tables_number   1
_chemical_formula_structural   ZnH13C14N2O5
_chemical_formula_sum   'Zn4 H52 C56 N8 O20'
_cell_volume   1471.94105141
_cell_formula_units_Z   4
loop_
 _symmetry_equiv_pos_site_id
 _symmetry_equiv_pos_as_xyz
  1  'x, y, z'
loop_
 _atom_site_type_symbol
 _atom_site_label
 _atom_site_symmetry_multiplicity
 _atom_site_fract_x
 _atom_site_fract_y
 _atom_site_fract_z
 _atom_site_occupancy
 _atom_site_hle17_bader_spin_density
 _atom_site_hle17_ddec_charge
 _atom_site_hle17_ddec_spin_density
 _atom_site_hle17_ddec_sum_bond_order
 _atom_site_hle17_magmom
 _atom_site_hse06_10hf_bader_spin_density
 _atom_site_hse06_10hf_ddec_charge
 _atom_site_hse06_10hf_ddec_spin_density
 _atom_site_hse06_10hf_ddec_sum_bond_order
 _atom_site_hse06_10hf_magmom
 _atom_site_hse06_bader_spin_density
 _atom_site_hse06_ddec_charge
 _atom_site_hse06_ddec_spin_density
 _atom_site_hse06_ddec_sum_bond_order
 _atom_site_hse06_magmom
 _atom_site_pbe_bader_charge
 _atom_site_pbe_bader_spin_density
 _atom_site_pbe_cm5_charge
 _atom_site_pbe_ddec_charge
 _atom_site_pbe_ddec_spin_density
 _atom_site_pbe_ddec_sum_bond_order
 _atom_site_pbe_magmom
Zn  Zn0  1  0.49835661  0.81060414  0.24838608  1  0  1.087886  0  1.733205  0  0  0.89877  0  2.203761  0  0  0.949786  0  2.143698  0  1.291013  0  0.689934  0.862889  0  2.245209  0
Zn  Zn1  1  0.50164554  0.31060484  0.25161369  1  0  1.087959  0  1.733127  0  0  0.898844  0  2.203679  0  0  0.949856  0  2.143618  0  1.291053  0  0.689959  0.862966  0  2.245127  0
Zn  Zn2  1  0.50164167  0.18939612  0.75161405  1  0  1.087907  0  1.733181  0  0  0.898821  0  2.203732  0  0  0.949835  0  2.143671  0  1.291015  0  0.689959  0.862945  0  2.245184  0
Zn  Zn3  1  0.49835790  0.68939708  0.74838681  1  0  1.087918  0  1.733201  0  0  0.898796  0  2.203756  0  0  0.949811  0  2.143696  0  1.291019  0  0.689948  0.862914  0  2.245205  0
H  H4  1  0.35050015  0.63996303  0.31650481  1  0  0.430577  0  0.88064  0  0  0.395038  0  0.951093  0  0  0.407101  0  0.934032  0  0.66621  0  0.286909  0.386597  0  0.963002  0
H  H5  1  0.64949813  0.13996290  0.18349595  1  0  0.430532  0  0.880703  0  0  0.394992  0  0.95116  0  0  0.407054  0  0.9341  0  0.666207  0  0.286899  0.38655  0  0.963068  0
H  H6  1  0.64950328  0.36003973  0.68349948  1  0  0.43067  0  0.880497  0  0  0.39517  0  0.9509  0  0  0.407232  0  0.93384  0  0.666184  0  0.286983  0.386729  0  0.962809  0
H  H7  1  0.35049758  0.86003736  0.81650273  1  0  0.430629  0  0.880559  0  0  0.395112  0  0.950986  0  0  0.407174  0  0.933925  0  0.666203  0  0.286961  0.38667  0  0.962894  0
H  H8  1  0.27231888  0.75370602  0.35087590  1  0  0.427301  0  0.815885  0  0  0.409904  0  0.869936  0  0  0.418356  0  0.860069  0  0.610716  0  0.327441  0.40376  0  0.877262  0
H  H9  1  0.72768327  0.25370672  0.14912577  1  0  0.427275  0  0.815852  0  0  0.409879  0  0.869909  0  0  0.418331  0  0.860041  0  0.61075  0  0.327436  0.403735  0  0.877236  0
H  H10  1  0.72768069  0.24629673  0.64912496  1  0  0.427331  0  0.815859  0  0  0.40993  0  0.86992  0  0  0.418383  0  0.860048  0  0.610745  0  0.327454  0.403786  0  0.877246  0
H  H11  1  0.27231888  0.74629353  0.85087527  1  0  0.427293  0  0.815846  0  0  0.409897  0  0.869904  0  0  0.418349  0  0.860036  0  0.610727  0  0.327442  0.403752  0  0.877232  0
H  H12  1  0.03391217  0.59467947  0.26279715  1  0  0.089824  0  0.989621  0  0  0.097621  0  1.059937  0  0  0.101166  0  1.056516  0  0.109771  0  0.102291  0.095017  0  1.062413  0
H  H13  1  0.96607837  0.09467934  0.23720244  1  0  0.08982  0  0.989781  0  0  0.097536  0  1.060158  0  0  0.101077  0  1.056746  0  0.1097  0  0.102284  0.094939  0  1.062639  0
H  H14  1  0.96608224  0.40532412  0.73720524  1  0  0.089835  0  0.989625  0  0  0.097568  0  1.060005  0  0  0.101112  0  1.056586  0  0.10981  0  0.102264  0.094968  0  1.062487  0
H  H15  1  0.03391733  0.90531925  0.76279371  1  0  0.089855  0  0.989671  0  0  0.097598  0  1.06003  0  0  0.101142  0  1.056611  0  0.109799  0  0.102268  0.094995  0  1.062508  0
H  H16  1  0.80751675  0.75135249  0.93832959  1  0  0.140653  0  0.946731  0  0  0.157937  0  1.009906  0  0  0.161273  0  1.006783  0  0.10156  0  0.094153  0.155543  0  1.01211  0
H  H17  1  0.19248411  0.25135237  0.56167009  1  0  0.14062  0  0.946644  0  0  0.1579  0  1.009842  0  0  0.161236  0  1.006718  0  0.101627  0  0.094135  0.155504  0  1.012048  0
H  H18  1  0.19248669  0.24864444  0.06166964  1  0  0.14065  0  0.946807  0  0  0.157907  0  1.010011  0  0  0.161243  0  1.006889  0  0.101893  0  0.094132  0.155514  0  1.012214  0
H  H19  1  0.80751159  0.74864540  0.43832669  1  0  0.140641  0  0.946733  0  0  0.157924  0  1.009925  0  0  0.16126  0  1.006801  0  0.101871  0  0.094148  0.155529  0  1.01213  0
H  H20  1  0.74413183  0.82700479  0.02675007  1  0  0.104698  0  0.972706  0  0  0.123563  0  1.041728  0  0  0.124493  0  1.042257  0  0.031966  0  0.086346  0.122998  0  1.04123  0
H  H21  1  0.25586645  0.32700299  0.47324563  1  0  0.104644  0  0.972721  0  0  0.123513  0  1.041748  0  0  0.124443  0  1.042277  0  0.032003  0  0.086322  0.122948  0  1.041249  0
H  H22  1  0.25586903  0.17299547  0.97324707  1  0  0.104665  0  0.972695  0  0  0.123527  0  1.04172  0  0  0.124457  0  1.04225  0  0.031964  0  0.086325  0.122963  0  1.041222  0
H  H23  1  0.74413183  0.67299726  0.52675261  1  0  0.104656  0  0.972705  0  0  0.123527  0  1.041732  0  0  0.124458  0  1.042261  0  0.031961  0  0.086319  0.122962  0  1.041234  0
H  H24  1  0.64489103  0.69996258  0.99660559  1  0  0.124222  0  0.958026  0  0  0.144665  0  1.020343  0  0  0.146537  0  1.019098  0  0.069771  0  0.095164  0.143321  0  1.021243  0
H  H25  1  0.35511241  0.19996162  0.50339237  1  0  0.124213  0  0.958101  0  0  0.144668  0  1.020391  0  0  0.146541  0  1.019144  0  0.069779  0  0.095152  0.143325  0  1.021292  0
H  H26  1  0.35511499  0.30003519  0.00339509  1  0  0.1242  0  0.958061  0  0  0.144665  0  1.020342  0  0  0.146537  0  1.019096  0  0.069813  0  0.095158  0.143321  0  1.021244  0
H  H27  1  0.64488716  0.80003781  0.49660532  1  0  0.124206  0  0.958059  0  0  0.144659  0  1.020358  0  0  0.146532  0  1.019112  0  0.069809  0  0.095143  0.143316  0  1.021259  0
H  H28  1  0.29622236  0.59738324  0.95669137  1  0  0.111334  0  0.949343  0  0  0.129522  0  1.014802  0  0  0.13218  0  1.012393  0  0.034147  0  0.088819  0.127637  0  1.016505  0
H  H29  1  0.70377721  0.09738394  0.54331075  1  0  0.111269  0  0.949401  0  0  0.129457  0  1.014866  0  0  0.132114  0  1.012456  0  0.034084  0  0.088834  0.127571  0  1.01657  0
H  H30  1  0.70377978  0.40261619  0.04331283  1  0  0.111292  0  0.94944  0  0  0.12948  0  1.0149  0  0  0.132132  0  1.012496  0  0.03403  0  0.088839  0.127595  0  1.016604  0
H  H31  1  0.29622494  0.90261465  0.45668776  1  0  0.111265  0  0.949411  0  0  0.129446  0  1.014889  0  0  0.132103  0  1.012479  0  0.034061  0  0.088801  0.127561  0  1.016592  0
H  H32  1  0.34738147  0.47927428  0.02472268  1  0  0.131044  0  0.966635  0  0  0.152579  0  1.024838  0  0  0.15385  0  1.025466  0  0.049162  0  0.098585  0.151673  0  1.02439  0
H  H33  1  0.65261552  0.97927358  0.47528052  1  0  0.131021  0  0.966678  0  0  0.152531  0  1.024909  0  0  0.153801  0  1.025538  0  0.049146  0  0.098557  0.151625  0  1.02446  0
H  H34  1  0.65261810  0.52072514  0.97528261  1  0  0.131071  0  0.966633  0  0  0.152586  0  1.024869  0  0  0.153857  0  1.025495  0  0.049175  0  0.098574  0.15168  0  1.024421  0
H  H35  1  0.34738663  0.02072418  0.52471861  1  0  0.131053  0  0.966708  0  0  0.15257  0  1.024914  0  0  0.15384  0  1.025542  0  0.049144  0  0.098571  0.151665  0  1.024463  0
H  H36  1  0.44258138  0.60855771  0.05468956  1  0  0.127816  0  0.957229  0  0  0.147157  0  1.020566  0  0  0.149199  0  1.019946  0  0.090346  0  0.09557  0.145697  0  1.021002  0
H  H37  1  0.55741819  0.10855758  0.44531320  1  0  0.127801  0  0.957234  0  0  0.147117  0  1.020603  0  0  0.149163  0  1.01998  0  0.090349  0  0.095562  0.145662  0  1.021035  0
H  H38  1  0.55741819  0.39144005  0.94531510  1  0  0.127833  0  0.957216  0  0  0.147163  0  1.020567  0  0  0.149188  0  1.019962  0  0.090366  0  0.095598  0.145711  0  1.020992  0
H  H39  1  0.44258396  0.89144018  0.55468594  1  0  0.127835  0  0.957177  0  0  0.147159  0  1.02053  0  0  0.149195  0  1.019916  0  0.090335  0  0.095595  0.145704  0  1.02096  0
H  H40  1  0.11567774  0.88538873  0.24026069  1  0  0.074668  0  0.923683  0  0  0.087413  0  0.980517  0  0  0.089408  0  0.979027  0  0.094858  0  0.120929  0.085872  0  0.98175  0
H  H41  1  0.88432570  0.38539193  0.25973854  1  0  0.074686  0  0.923716  0  0  0.087443  0  0.980544  0  0  0.089438  0  0.979054  0  0.094823  0  0.120945  0.085904  0  0.981777  0
H  H42  1  0.88431796  0.11460570  0.75973547  1  0  0.074671  0  0.923657  0  0  0.087476  0  0.980422  0  0  0.089471  0  0.978932  0  0.094651  0  0.120951  0.085934  0  0.981656  0
H  H43  1  0.11568161  0.61460334  0.74026602  1  0  0.074669  0  0.923641  0  0  0.087481  0  0.980425  0  0  0.089475  0  0.978935  0  0.094699  0  0.120965  0.085941  0  0.981658  0
H  H44  1  0.89667663  0.96982703  0.13336650  1  0  0.111677  0  0.975881  0  0  0.119449  0  1.039762  0  0  0.122781  0  1.038477  0  0.122945  0  0.109796  0.117013  0  1.040937  0
H  H45  1  0.10332681  0.46983189  0.36663210  1  0  0.111689  0  0.975817  0  0  0.119448  0  1.039721  0  0  0.12278  0  1.038439  0  0.123005  0  0.109785  0.117011  0  1.040894  0
H  H46  1  0.10332294  0.03016741  0.86662930  1  0  0.111699  0  0.975847  0  0  0.119473  0  1.039721  0  0  0.122806  0  1.038438  0  0.12298  0  0.109785  0.117036  0  1.040893  0
H  H47  1  0.89667791  0.53016671  0.63337038  1  0  0.111717  0  0.975827  0  0  0.119491  0  1.039699  0  0  0.122823  0  1.038416  0  0.122973  0  0.109784  0.117053  0  1.040872  0
H  H48  1  0.27129351  0.95855189  0.95537614  1  0  0.113063  0  0.958265  0  0  0.12402  0  1.016225  0  0  0.127206  0  1.015131  0  0.092666  0  0.113867  0.121708  0  1.017233  0
H  H49  1  0.72870864  0.45855426  0.54462173  1  0  0.11304  0  0.958306  0  0  0.123981  0  1.016277  0  0  0.127166  0  1.015184  0  0.092721  0  0.113857  0.12167  0  1.017285  0
H  H50  1  0.72871251  0.04145003  0.04462200  1  0  0.113093  0  0.958273  0  0  0.124066  0  1.016209  0  0  0.127253  0  1.015113  0  0.092695  0  0.113897  0.121754  0  1.017218  0
H  H51  1  0.27129093  0.54145182  0.45537849  1  0  0.113076  0  0.958301  0  0  0.124038  0  1.016253  0  0  0.127224  0  1.015158  0  0.092754  0  0.113875  0.121725  0  1.017262  0
H  H52  1  0.47441185  0.87305289  0.07130013  1  0  0.091453  0  0.949991  0  0  0.098998  0  1.013475  0  0  0.101834  0  1.010789  0  0.161469  0  0.122904  0.096857  0  1.015527  0
H  H53  1  0.52559288  0.37305526  0.42869856  1  0  0.091463  0  0.949942  0  0  0.098988  0  1.013457  0  0  0.101826  0  1.010766  0  0.161515  0  0.122918  0.096846  0  1.01551  0
H  H54  1  0.52559546  0.12695153  0.92870064  1  0  0.091495  0  0.949913  0  0  0.099037  0  1.013403  0  0  0.101874  0  1.010713  0  0.161458  0  0.122928  0.096893  0  1.015453  0
H  H55  1  0.47441056  0.62694916  0.57130193  1  0  0.091425  0  0.949912  0  0  0.098972  0  1.013413  0  0  0.10181  0  1.01072  0  0.161453  0  0.122877  0.096827  0  1.015465  0
C  C56  1  0.90624163  0.68496706  0.06103548  1  0  0.331249  0  3.680564  0  0  0.330426  0  3.935682  0  0  0.343206  0  3.952959  0  0.502188  0  0.132966  0.322152  0  3.923663  0
C  C57  1  0.09375794  0.18496111  0.43896222  1  0  0.3313  0  3.680377  0  0  0.33036  0  3.935609  0  0  0.343138  0  3.952895  0  0.502157  0  0.132979  0.322087  0  3.92359  0
C  C58  1  0.09376181  0.31503237  0.93896629  1  0  0.331386  0  3.680395  0  0  0.330498  0  3.935546  0  0  0.343277  0  3.952822  0  0.502204  0  0.133041  0.322224  0  3.923528  0
C  C59  1  0.90624034  0.81503749  0.56103348  1  0  0.331219  0  3.680527  0  0  0.33039  0  3.935632  0  0  0.343165  0  3.952916  0  0.502331  0  0.133047  0.322116  0  3.923613  0
C  C60  1  0.89955025  0.66519543  0.14893087  1  0  -0.18344  0  3.7172  0  0  -0.164271  0  3.953967  0  0  -0.179995  0  3.978371  0  -0.028031  0  -0.026666  -0.154349  0  3.93767  0
C  C61  1  0.10044932  0.16519530  0.35106555  1  0  -0.183436  0  3.717004  0  0  -0.164175  0  3.953682  0  0  -0.179896  0  3.978088  0  -0.027916  0  -0.026587  -0.154253  0  3.937387  0
C  C62  1  0.10044416  0.33480732  0.85106962  1  0  -0.183482  0  3.717248  0  0  -0.164225  0  3.953917  0  0  -0.179938  0  3.978311  0  -0.02795  0  -0.026666  -0.154304  0  3.937622  0
C  C63  1  0.89955154  0.83480329  0.64893096  1  0  -0.183371  0  3.717092  0  0  -0.164188  0  3.953813  0  0  -0.179908  0  3.978225  0  -0.02793  0  -0.026643  -0.154266  0  3.937516  0
C  C64  1  0.03791823  0.60867751  0.19505853  1  0  -0.038365  0  3.787531  0  0  -0.079733  0  4.042396  0  0  -0.072558  0  4.060797  0  -0.024975  0  -0.075699  -0.083813  0  4.029648  0
C  C65  1  0.96207876  0.10867155  0.30493708  1  0  -0.038414  0  3.787538  0  0  -0.079733  0  4.042392  0  0  -0.072558  0  4.060794  0  -0.026732  0  -0.07575  -0.083824  0  4.029652  0
C  C66  1  0.96208521  0.39132358  0.80494260  1  0  -0.03839  0  3.78763  0  0  -0.079729  0  4.042479  0  0  -0.072557  0  4.060887  0  -0.024958  0  -0.075682  -0.083817  0  4.029737  0
C  C67  1  0.03791952  0.89132621  0.69505862  1  0  -0.038518  0  3.787713  0  0  -0.079847  0  4.042576  0  0  -0.072677  0  4.060983  0  -0.024958  0  -0.075763  -0.083928  0  4.029826  0
C  C68  1  0.17628577  0.57056185  0.15686895  1  0  -0.19452  0  3.728524  0  0  -0.17343  0  3.966478  0  0  -0.189  0  3.989456  0  -0.041763  0  -0.026796  -0.163597  0  3.951176  0
C  C69  1  0.82370993  0.07056172  0.34313290  1  0  -0.194544  0  3.728205  0  0  -0.173401  0  3.966162  0  0  -0.188966  0  3.989135  0  -0.039552  0  -0.026824  -0.163568  0  3.950861  0
C  C70  1  0.82371380  0.42944257  0.84313444  1  0  -0.194537  0  3.728243  0  0  -0.173403  0  3.966231  0  0  -0.188973  0  3.989212  0  -0.041783  0  -0.026823  -0.16357  0  3.950929  0
C  C71  1  0.17628706  0.92943937  0.65686587  1  0  -0.194423  0  3.728301  0  0  -0.173295  0  3.966272  0  0  -0.188861  0  3.989251  0  -0.041764  0  -0.026801  -0.163464  0  3.950969  0
C  C72  1  0.17615292  0.59708874  0.06957579  1  0  0.344204  0  3.687781  0  0  0.341401  0  3.942773  0  0  0.354848  0  3.958776  0  0.549519  0  0.135318  0.332661  0  3.931626  0
C  C73  1  0.82384923  0.09709027  0.43042525  1  0  0.344176  0  3.687699  0  0  0.341256  0  3.942833  0  0  0.354702  0  3.958837  0  0.549532  0  0.13527  0.332519  0  3.931683  0
C  C74  1  0.82384923  0.40290903  0.93042841  1  0  0.344247  0  3.687743  0  0  0.341355  0  3.942846  0  0  0.354802  0  3.958849  0  0.54956  0  0.135314  0.332617  0  3.931698  0
C  C75  1  0.17615034  0.90290832  0.56957181  1  0  0.344217  0  3.687604  0  0  0.341277  0  3.942767  0  0  0.354723  0  3.958772  0  0.549563  0  0.135307  0.332539  0  3.931618  0
C  C76  1  0.76865956  0.74398576  0.00200875  1  0  -0.376136  0  3.692047  0  0  -0.461298  0  3.934025  0  0  -0.464324  0  3.939058  0  -0.081471  0  -0.245457  -0.458991  0  3.930222  0
C  C77  1  0.23134259  0.24398314  0.49798785  1  0  -0.376041  0  3.691972  0  0  -0.461186  0  3.933969  0  0  -0.464209  0  3.939002  0  -0.081797  0  -0.245419  -0.458878  0  3.930164  0
C  C78  1  0.23134517  0.25601283  0.99799120  1  0  -0.376121  0  3.692127  0  0  -0.461268  0  3.934131  0  0  -0.464294  0  3.939165  0  -0.081903  0  -0.245433  -0.458963  0  3.930329  0
C  C79  1  0.76865569  0.75601462  0.50200911  1  0  -0.376053  0  3.692023  0  0  -0.461229  0  3.933992  0  0  -0.464254  0  3.939028  0  -0.081912  0  -0.245416  -0.458923  0  3.930189  0
C  C80  1  0.76277172  0.70392339  0.19987919  1  0  0.63747  0  3.930894  0  0  0.593905  0  4.213443  0  0  0.628208  0  4.208262  0  1.511095  0  0.190745  0.57068  0  4.216156  0
C  C81  1  0.23721624  0.20392077  0.30010881  1  0  0.637316  0  3.931046  0  0  0.593725  0  4.213624  0  0  0.628024  0  4.208445  0  1.51134  0  0.190643  0.570503  0  4.216337  0
C  C82  1  0.23722656  0.29607687  0.80011967  1  0  0.637476  0  3.930744  0  0  0.593909  0  4.213273  0  0  0.628206  0  4.208097  0  1.511186  0  0.1908  0.570684  0  4.215988  0
C  C83  1  0.76278075  0.79607866  0.69988616  1  0  0.637296  0  3.93085  0  0  0.593717  0  4.21342  0  0  0.628013  0  4.208244  0  1.511323  0  0.190682  0.570493  0  4.216134  0
C  C84  1  0.30969153  0.50239193  0.21098836  1  0  0.678667  0  3.858376  0  0  0.627362  0  4.146056  0  0  0.663316  0  4.138352  0  1.546129  0  0.218517  0.602948  0  4.150659  0
C  C85  1  0.69029643  0.00239429  0.28900978  1  0  0.678639  0  3.858539  0  0  0.627311  0  4.146258  0  0  0.663266  0  4.138549  0  1.546659  0  0.218504  0.602897  0  4.15086  0
C  C86  1  0.69030933  0.49761249  0.78901575  1  0  0.678592  0  3.85854  0  0  0.627263  0  4.146247  0  0  0.66322  0  4.138541  0  1.546127  0  0.218498  0.602848  0  4.150852  0
C  C87  1  0.30969669  0.99760680  0.71099062  1  0  0.678558  0  3.85865  0  0  0.627281  0  4.146296  0  0  0.663236  0  4.138591  0  1.546545  0  0.218518  0.602867  0  4.1509  0
C  C88  1  0.32370628  0.56901696  0.02308503  1  0  -0.378336  0  3.698179  0  0  -0.461874  0  3.936611  0  0  -0.466002  0  3.942959  0  -0.056574  0  -0.244315  -0.458753  0  3.931963  0
C  C89  1  0.67629200  0.06901683  0.47691700  1  0  -0.378197  0  3.698105  0  0  -0.461675  0  3.936611  0  0  -0.465805  0  3.942955  0  -0.056541  0  -0.244286  -0.458558  0  3.931953  0
C  C90  1  0.67629587  0.43098164  0.97691917  1  0  -0.378371  0  3.698195  0  0  -0.46186  0  3.936671  0  0  -0.465968  0  3.943033  0  -0.05657  0  -0.244382  -0.458744  0  3.932019  0
C  C91  1  0.32370886  0.93098260  0.52308268  1  0  -0.378305  0  3.698096  0  0  -0.461772  0  3.936592  0  0  -0.465893  0  3.942945  0  -0.056513  0  -0.244316  -0.458655  0  3.931939  0
C  C92  1  0.14563545  0.90325357  0.17627179  1  0  0.148182  0  3.70643  0  0  0.114637  0  3.961299  0  0  0.121711  0  3.980841  0  0.436643  0  0.057795  0.110059  0  3.948012  0
C  C93  1  0.85436799  0.40325760  0.32372681  1  0  0.148186  0  3.706541  0  0  0.11459  0  3.961435  0  0  0.121663  0  3.98098  0  0.436571  0  0.057805  0.110012  0  3.948148  0
C  C94  1  0.85436025  0.09674252  0.82372626  1  0  0.148222  0  3.706416  0  0  0.114628  0  3.961269  0  0  0.121699  0  3.980817  0  0.436744  0  0.057828  0.110056  0  3.947984  0
C  C95  1  0.14563932  0.59674016  0.67627586  1  0  0.148283  0  3.706381  0  0  0.11465  0  3.961267  0  0  0.121723  0  3.980814  0  0.436641  0  0.057809  0.110072  0  3.94798  0
C  C96  1  0.02282007  0.95146136  0.11532048  1  0  -0.137275  0  3.66551  0  0  -0.155463  0  3.913801  0  0  -0.163197  0  3.934524  0  -0.008266  0  -0.069455  -0.150553  0  3.900053  0
C  C97  1  0.97717950  0.45146539  0.38468100  1  0  -0.137262  0  3.665689  0  0  -0.155435  0  3.913966  0  0  -0.163172  0  3.934692  0  -0.008324  0  -0.069464  -0.150523  0  3.900216  0
C  C98  1  0.97717434  0.04853474  0.88467684  1  0  -0.137443  0  3.665666  0  0  -0.155608  0  3.913934  0  0  -0.163344  0  3.934661  0  -0.00819  0  -0.069596  -0.150693  0  3.90018  0
C  C99  1  0.02282523  0.54853570  0.61532211  1  0  -0.137413  0  3.665737  0  0  -0.155579  0  3.913991  0  0  -0.163314  0  3.934717  0  -0.008176  0  -0.069531  -0.150665  0  3.90024  0
C  C100  1  0.06332301  0.97415472  0.03333277  1  0  0.112388  0  3.71302  0  0  0.123159  0  3.941358  0  0  0.12752  0  3.962555  0  -0.024367  0  0.026145  0.120377  0  3.926932  0
C  C101  1  0.93667785  0.47415626  0.46666564  1  0  0.112301  0  3.713136  0  0  0.123088  0  3.941396  0  0  0.127449  0  3.962593  0  -0.024384  0  0.026144  0.120306  0  3.926972  0
C  C102  1  0.93667656  0.02584304  0.96666365  1  0  0.112376  0  3.713265  0  0  0.123109  0  3.941615  0  0  0.127467  0  3.962814  0  0.009441  0  0.02621  0.120328  0  3.927189  0
C  C103  1  0.06332559  0.52584317  0.53333675  1  0  0.11228  0  3.713267  0  0  0.123048  0  3.941553  0  0  0.127406  0  3.962751  0  0.009461  0  0.026161  0.120266  0  3.927128  0
C  C104  1  0.22942469  0.94493571  0.01741813  1  0  -0.145558  0  3.673417  0  0  -0.162253  0  3.915822  0  0  -0.169888  0  3.936181  0  0.005887  0  -0.071239  -0.157408  0  3.902262  0
C  C105  1  0.77057488  0.44493891  0.48258146  1  0  -0.145424  0  3.673278  0  0  -0.162103  0  3.915644  0  0  -0.169737  0  3.936006  0  0.005885  0  -0.071188  -0.157255  0  3.902075  0
C  C106  1  0.77057617  0.05506122  0.98258092  1  0  -0.145594  0  3.673374  0  0  -0.162309  0  3.915794  0  0  -0.169942  0  3.93615  0  0.005945  0  -0.071271  -0.157463  0  3.90223  0
C  C107  1  0.22942726  0.55506301  0.51742021  1  0  -0.145505  0  3.673417  0  0  -0.16223  0  3.91583  0  0  -0.169864  0  3.936188  0  0.005897  0  -0.071233  -0.157384  0  3.902268  0
C  C108  1  0.34504568  0.89718465  0.08165353  1  0  0.155246  0  3.673901  0  0  0.123631  0  3.921911  0  0  0.13151  0  3.938992  0  0.476276  0  0.057199  0.118487  0  3.910359  0
C  C109  1  0.65495647  0.39718702  0.41834434  1  0  0.155236  0  3.673909  0  0  0.123625  0  3.921896  0  0  0.131503  0  3.938979  0  0.476318  0  0.057152  0.118482  0  3.910347  0
C  C110  1  0.65495647  0.10281893  0.91834624  1  0  0.155222  0  3.673722  0  0  0.123619  0  3.921722  0  0  0.131497  0  3.938804  0  0.476489  0  0.057161  0.118485  0  3.910169  0
C  C111  1  0.34504439  0.60281740  0.58165597  1  0  0.155313  0  3.673958  0  0  0.123701  0  3.92194  0  0  0.13158  0  3.939024  0  0.476297  0  0.057223  0.118563  0  3.910385  0
N  N112  1  0.04482500  0.65328887  0.02491672  1  0  -0.421487  0  2.965865  0  0  -0.393732  0  3.231038  0  0  -0.409106  0  3.242715  0  -1.190801  0  -0.324826  -0.383419  0  3.222874  0
N  N113  1  0.95517715  0.15328624  0.47508432  1  0  -0.42149  0  2.965792  0  0  -0.393646  0  3.231019  0  0  -0.409017  0  3.242699  0  -1.190848  0  -0.3248  -0.383334  0  3.222853  0
N  N114  1  0.95517586  0.34671389  0.97508549  1  0  -0.42158  0  2.965797  0  0  -0.39378  0  3.231032  0  0  -0.409152  0  3.242707  0  -1.190893  0  -0.324865  -0.383468  0  3.222868  0
N  N115  1  0.04482242  0.84671235  0.52491337  1  0  -0.421484  0  2.965824  0  0  -0.393661  0  3.231014  0  0  -0.40903  0  3.242691  0  -1.190968  0  -0.324853  -0.383351  0  3.22285  0
N  N116  1  0.30454273  0.87660190  0.16035519  1  0  -0.343475  0  3.310438  0  0  -0.262136  0  3.591352  0  0  -0.282109  0  3.606187  0  -1.242736  0  -0.324429  -0.248653  0  3.581176  0
N  N117  1  0.69545942  0.37660510  0.33964332  1  0  -0.343566  0  3.310579  0  0  -0.262202  0  3.591472  0  0  -0.282175  0  3.606307  0  -1.242705  0  -0.324456  -0.248723  0  3.581304  0
N  N118  1  0.69545426  0.12339587  0.83964295  1  0  -0.343444  0  3.310467  0  0  -0.262109  0  3.591365  0  0  -0.282083  0  3.606203  0  -1.242971  0  -0.3244  -0.248645  0  3.581211  0
N  N119  1  0.30454531  0.62339433  0.66035790  1  0  -0.343583  0  3.310646  0  0  -0.26223  0  3.591551  0  0  -0.282206  0  3.606389  0  -1.242783  0  -0.324455  -0.248749  0  3.581379  0
O  O120  1  0.61659585  0.73860568  0.15874527  1  0  -0.664557  0  2.047354  0  0  -0.588191  0  2.311854  0  0  -0.619139  0  2.299051  0  -1.164881  0  -0.329204  -0.566492  0  2.319883  0
O  O121  1  0.38341017  0.23860721  0.34125414  1  0  -0.664545  0  2.046998  0  0  -0.588161  0  2.311486  0  0  -0.619116  0  2.298689  0  -1.164696  0  -0.329203  -0.566457  0  2.31951  0
O  O122  1  0.38339985  0.26139624  0.84125151  1  0  -0.664482  0  2.047384  0  0  -0.588157  0  2.311927  0  0  -0.619103  0  2.29912  0  -1.164895  0  -0.329218  -0.566457  0  2.319956  0
O  O123  1  0.61659456  0.76139471  0.65874392  1  0  -0.664477  0  2.047116  0  0  -0.588106  0  2.311626  0  0  -0.619059  0  2.29883  0  -1.164778  0  -0.329151  -0.566401  0  2.319649  0
O  O124  1  0.79311507  0.70369045  0.28004187  1  0  -0.611127  0  1.887787  0  0  -0.564186  0  2.101169  0  0  -0.588191  0  2.09266  0  -1.133743  0  -0.326746  -0.547326  0  2.106429  0
O  O125  1  0.20688321  0.20368949  0.21996396  1  0  -0.610984  0  1.888387  0  0  -0.564014  0  2.101752  0  0  -0.588008  0  2.093238  0  -1.134196  0  -0.326645  -0.547164  0  2.107017  0
O  O126  1  0.20687805  0.29630898  0.71995853  1  0  -0.611176  0  1.887786  0  0  -0.564232  0  2.10116  0  0  -0.588236  0  2.092652  0  -1.1338  0  -0.326801  -0.547374  0  2.106423  0
O  O127  1  0.79311765  0.79631160  0.78003572  1  0  -0.611023  0  1.888028  0  0  -0.564053  0  2.10139  0  0  -0.588048  0  2.09288  0  -1.134083  0  -0.326718  -0.547199  0  2.106655  0
O  O128  1  0.38686936  0.42608158  0.17439499  1  0  -0.613023  0  2.043701  0  0  -0.533417  0  2.303191  0  0  -0.563868  0  2.28947  0  -1.1527  0  -0.305177  -0.512286  0  2.312009  0
O  O129  1  0.61311989  0.92608254  0.32560767  1  0  -0.613023  0  2.043831  0  0  -0.533411  0  2.303355  0  0  -0.563866  0  2.289636  0  -1.153164  0  -0.305191  -0.51228  0  2.312172  0
O  O130  1  0.61313021  0.57392035  0.82561030  1  0  -0.613044  0  2.043827  0  0  -0.533439  0  2.303362  0  0  -0.563891  0  2.289641  0  -1.152433  0  -0.305256  -0.512306  0  2.31218  0
O  O131  1  0.38687452  0.07391772  0.67439155  1  0  -0.613025  0  2.043723  0  0  -0.533442  0  2.303219  0  0  -0.563898  0  2.289501  0  -1.15265  0  -0.305255  -0.512311  0  2.312035  0
O  O132  1  0.33509632  0.51866695  0.29172556  1  0  -0.650792  0  1.973096  0  0  -0.596829  0  2.198772  0  0  -0.622006  0  2.187244  0  -1.175252  0  -0.324516  -0.579188  0  2.20616  0
O  O133  1  0.66489293  0.01866849  0.20827773  1  0  -0.650707  0  1.973439  0  0  -0.596732  0  2.199126  0  0  -0.621916  0  2.187612  0  -1.175288  0  -0.324437  -0.579091  0  2.206515  0
O  O134  1  0.66490841  0.48133497  0.70828009  1  0  -0.650658  0  1.973184  0  0  -0.596706  0  2.198884  0  0  -0.621882  0  2.18735  0  -1.175432  0  -0.324373  -0.579064  0  2.206272  0
O  O135  1  0.33509503  0.98133344  0.79172041  1  0  -0.650686  0  1.973539  0  0  -0.596751  0  2.199237  0  0  -0.621923  0  2.187699  0  -1.175641  0  -0.32441  -0.579109  0  2.206625  0
O  O136  1  0.37562764  0.72262183  0.33237123  1  0  -0.815531  0  1.881464  0  0  -0.744328  0  2.093576  0  0  -0.766085  0  2.059667  0  -1.245809  0  -0.556866  -0.729103  0  2.117195  0
O  O137  1  0.62437193  0.22262170  0.16763026  1  0  -0.81549  0  1.881494  0  0  -0.744299  0  2.093614  0  0  -0.766054  0  2.059707  0  -1.245851  0  -0.556869  -0.729073  0  2.117231  0
O  O138  1  0.62437193  0.27738259  0.66763216  1  0  -0.815655  0  1.881409  0  0  -0.744489  0  2.093473  0  0  -0.766245  0  2.059564  0  -1.245813  0  -0.556943  -0.729262  0  2.117093  0
O  O139  1  0.37562893  0.77738022  0.83237006  1  0  -0.815566  0  1.881404  0  0  -0.744385  0  2.093496  0  0  -0.766141  0  2.059587  0  -1.245797  0  -0.556913  -0.729158  0  2.117115  0
