# generated using pymatgen
data_Zr3H36C54SO19
_symmetry_space_group_name_H-M   'P 1'
_cell_length_a   19.01494906
_cell_length_b   19.01049943
_cell_length_c   19.01032699
_cell_angle_alpha   60.09353106
_cell_angle_beta   59.99086984
_cell_angle_gamma   59.98754849
_symmetry_Int_Tables_number   1
_chemical_formula_structural   Zr3H36C54SO19
_chemical_formula_sum   'Zr6 H72 C108 S2 O38'
_cell_volume   4861.81436464
_cell_formula_units_Z   2
loop_
 _symmetry_equiv_pos_site_id
 _symmetry_equiv_pos_as_xyz
  1  'x, y, z'
loop_
 _atom_site_type_symbol
 _atom_site_label
 _atom_site_symmetry_multiplicity
 _atom_site_fract_x
 _atom_site_fract_y
 _atom_site_fract_z
 _atom_site_occupancy
 _atom_site_pbe_bader_charge
 _atom_site_pbe_bader_spin_density
 _atom_site_pbe_cm5_charge
 _atom_site_pbe_ddec_charge
 _atom_site_pbe_ddec_spin_density
 _atom_site_pbe_ddec_sum_bond_order
 _atom_site_pbe_magmom
Zr  Zr0  1  0.90665132  0.90708374  0.59253426  1  2.636829  0  1.62633  2.371778  0  2.768652  0
Zr  Zr1  1  0.09372891  0.09133636  0.40824089  1  2.63416  0  1.626807  2.37235  0  2.767707  0
Zr  Zr2  1  0.09282569  0.90635155  0.59354495  1  2.633292  0  1.625179  2.371743  0  2.768606  0
Zr  Zr3  1  0.90731756  0.09235813  0.40751734  1  2.632808  0  1.625846  2.372426  0  2.768584  0
Zr  Zr4  1  0.09321441  0.90614865  0.40741413  1  2.637905  0  1.625664  2.372535  0  2.757688  0
Zr  Zr5  1  0.90706282  0.09233290  0.59355342  1  2.637254  0  1.626232  2.372876  0  2.758688  0
H  H6  1  0.07320376  0.77986204  0.57243211  1  0.598132  0  0.329946  0.420874  0  0.859627  0
H  H7  1  0.07446532  0.07135674  0.28105230  1  0.60113  0  0.329096  0.419754  0  0.860923  0
H  H8  1  0.07313632  0.07187784  0.57449045  1  0.602045  0  0.332207  0.424153  0  0.853355  0
H  H9  1  0.78050497  0.07332121  0.57300759  1  0.599809  0  0.331672  0.423444  0  0.853993  0
H  H10  1  0.12169438  0.31137802  0.39748086  1  0.068374  0  0.104162  0.113184  0  1.006953  0
H  H11  1  0.87533475  0.33438370  0.59808976  1  0.08059  0  0.105521  0.115329  0  1.004324  0
H  H12  1  0.89682838  0.66899055  0.62099296  1  0.079192  0  0.103256  0.111714  0  1.009336  0
H  H13  1  0.09777376  0.69141733  0.37492891  1  0.089123  0  0.105681  0.115173  0  1.004018  0
H  H14  1  0.18762554  0.42491045  0.42142908  1  0.02722  0  0.095558  0.094353  0  0.966417  0
H  H15  1  0.18321373  0.42670195  0.32977699  1  0.025671  0  0.096419  0.096672  0  0.973261  0
H  H16  1  0.80915978  0.53500225  0.57906189  1  0.026486  0  0.096217  0.09577  0  0.966474  0
H  H17  1  0.81662612  0.44000208  0.66949326  1  0.020428  0  0.097056  0.09746  0  0.97274  0
H  H18  1  0.92168984  0.46519292  0.68730804  1  0.054175  0  0.096372  0.095883  0  0.964819  0
H  H19  1  0.82985577  0.55923560  0.68311338  1  0.030329  0  0.096572  0.09677  0  0.973616  0
H  H20  1  0.07893095  0.57536832  0.30921848  1  0.025718  0  0.097155  0.097491  0  0.963594  0
H  H21  1  0.16939186  0.57290014  0.31634699  1  0.020775  0  0.097012  0.097292  0  0.972803  0
H  H22  1  0.31269897  0.12002680  0.17020401  1  0.07771  0  0.103302  0.111803  0  1.009311  0
H  H23  1  0.33567826  0.87396307  0.19235021  1  0.040278  0  0.105781  0.115778  0  1.003945  0
H  H24  1  0.66885016  0.89694290  0.81217789  1  0.074873  0  0.104344  0.113377  0  1.006352  0
H  H25  1  0.69165052  0.09749313  0.83523641  1  0.081292  0  0.105296  0.11499  0  1.004105  0
H  H26  1  0.42485782  0.18666731  0.96614183  1  0.056623  0  0.096377  0.095698  0  0.965589  0
H  H27  1  0.42695668  0.18259527  0.06006634  1  0.019125  0  0.096648  0.096924  0  0.973444  0
H  H28  1  0.53595185  0.80858776  0.07585193  1  0.020823  0  0.097252  0.097783  0  0.963847  0
H  H29  1  0.44071212  0.81589413  0.07346959  1  0.00925  0  0.096882  0.097051  0  0.972857  0
H  H30  1  0.46515031  0.92122512  0.92565669  1  0.048923  0  0.095823  0.094565  0  0.966342  0
H  H31  1  0.55945283  0.82956857  0.92712653  1  0.033882  0  0.096464  0.096813  0  0.973435  0
H  H32  1  0.57605487  0.07878378  0.03559433  1  0.025218  0  0.096255  0.095854  0  0.966018  0
H  H33  1  0.57291329  0.16923459  0.94063814  1  0.033743  0  0.097132  0.097616  0  0.972281  0
H  H34  1  0.89788876  0.12007735  0.81244293  1  0.0842  0  0.104065  0.113215  0  1.007655  0
H  H35  1  0.09640204  0.87197877  0.83797370  1  0.089588  0  0.106261  0.122225  0  1.001314  0
H  H36  1  0.12107648  0.89762093  0.16904399  1  0.114276  0  0.104879  0.113969  0  1.006121  0
H  H37  1  0.87465817  0.09824017  0.19193768  1  0.069434  0  0.101152  0.109136  0  1.012487  0
H  H38  1  0.92267302  0.18700942  0.92478193  1  0.037829  0  0.095878  0.096032  0  0.964636  0
H  H39  1  0.83077639  0.18311431  0.92665715  1  0.032877  0  0.096558  0.096589  0  0.973091  0
H  H40  1  0.07697404  0.80869519  0.03796310  1  0.033787  0  0.096866  0.098769  0  0.962796  0
H  H41  1  0.16748802  0.81365750  0.94330521  1  0.042436  0  0.098366  0.107391  0  0.972122  0
H  H42  1  0.18715852  0.92009428  0.96570419  1  0.034045  0  0.09461  0.093212  0  0.968855  0
H  H43  1  0.18239492  0.82921769  0.06046658  1  0.026346  0  0.096567  0.096864  0  0.973684  0
H  H44  1  0.80929575  0.07980142  0.07571800  1  0.034913  0  0.095848  0.095466  0  0.965412  0
H  H45  1  0.81693214  0.17056782  0.07230850  1  0.04164  0  0.093755  0.095978  0  0.981138  0
H  H46  1  0.31274927  0.66822932  0.39834059  1  0.090889  0  0.104513  0.114089  0  1.005682  0
H  H47  1  0.33556809  0.69102464  0.59906523  1  0.069636  0  0.10106  0.108697  0  1.012285  0
H  H48  1  0.66988106  0.31141952  0.62094288  1  0.088515  0  0.104342  0.113631  0  1.007504  0
H  H49  1  0.69409135  0.33694005  0.37279968  1  0.121929  0  0.106355  0.122019  0  1.001225  0
H  H50  1  0.42774360  0.46514960  0.42035500  1  0.046116  0  0.094832  0.09289  0  0.968253  0
H  H51  1  0.42881558  0.55994097  0.32954304  1  0.070216  0  0.096268  0.096243  0  0.974168  0
H  H52  1  0.53596555  0.57497081  0.58010452  1  0.068707  0  0.095876  0.095156  0  0.96526  0
H  H53  1  0.44102490  0.57174845  0.67093998  1  0.035337  0  0.093676  0.095664  0  0.980947  0
H  H54  1  0.46614370  0.42415912  0.68772501  1  0.04995  0  0.095968  0.096761  0  0.964346  0
H  H55  1  0.56018324  0.42601435  0.68358546  1  0.005142  0  0.096766  0.096944  0  0.972511  0
H  H56  1  0.57723563  0.53720008  0.30932889  1  0.031172  0  0.09709  0.09873  0  0.962501  0
H  H57  1  0.57635215  0.44262313  0.31414813  1  0.057986  0  0.098202  0.107208  0  0.972539  0
H  H58  1  0.11202296  0.32330956  0.18017313  1  0.075861  0  0.116116  0.126002  0  0.986211  0
H  H59  1  0.17768504  0.43566895  0.06682520  1  0.113405  0  0.118699  0.131965  0  0.984743  0
H  H60  1  0.88178678  0.32668770  0.18857019  1  0.081996  0  0.107399  0.111043  0  1.045577  0
H  H61  1  0.88461822  0.67903898  0.82411886  1  0.095908  0  0.11646  0.126541  0  0.986241  0
H  H62  1  0.82011625  0.56556096  0.93629304  1  0.128218  0  0.118717  0.131647  0  0.984766  0
H  H63  1  0.10303429  0.68747219  0.82749914  1  0.096933  0  0.107469  0.112641  0  1.042925  0
H  H64  1  0.31265031  0.89624581  0.62279693  1  0.085089  0  0.105393  0.114998  0  1.003399  0
H  H65  1  0.33484553  0.09611753  0.37647560  1  0.102237  0  0.104695  0.114128  0  1.005383  0
H  H66  1  0.66862264  0.12131446  0.39723004  1  0.121248  0  0.105276  0.115017  0  1.004448  0
H  H67  1  0.69274480  0.87504204  0.59721813  1  0.08536  0  0.105057  0.114245  0  1.005351  0
H  H68  1  0.42602877  0.92152302  0.68814514  1  0.042216  0  0.095983  0.095203  0  0.965773  0
H  H69  1  0.42782894  0.82962476  0.68419979  1  0.060635  0  0.097182  0.097859  0  0.972362  0
H  H70  1  0.53503313  0.07814624  0.31018640  1  0.029675  0  0.09645  0.095955  0  0.965682  0
H  H71  1  0.43960293  0.16840559  0.31778766  1  0.025705  0  0.096485  0.096376  0  0.974134  0
H  H72  1  0.46453072  0.18683882  0.42275243  1  0.046061  0  0.095931  0.094599  0  0.965426  0
H  H73  1  0.55848536  0.18287428  0.33074622  1  0.000477  0  0.096932  0.097141  0  0.972622  0
H  H74  1  0.57650950  0.80890695  0.57937174  1  0.03716  0  0.096025  0.095686  0  0.96624  0
H  H75  1  0.57431361  0.81642878  0.66954674  1  -0.016288  0  0.096181  0.095856  0  0.973777  0
H  H76  1  0.24288796  0.61143773  0.79058659  1  0.628275  0  0.347333  0.397542  0  0.853856  0
H  H77  1  0.85562688  0.28950027  0.11289199  1  0.645774  0  0.347057  0.397525  0  0.855713  0
C  C78  1  0.99707703  0.76572780  0.49791782  1  1.555924  0  0.233298  0.639346  0  4.098065  0
C  C79  1  0.23915951  0.99671594  0.26695022  1  1.530392  0  0.23269  0.63908  0  4.09673  0
C  C80  1  0.99833795  0.23763119  0.49777267  1  1.540973  0  0.233766  0.639921  0  4.095975  0
C  C81  1  0.76598213  0.99686541  0.73869944  1  1.529126  0  0.23354  0.640568  0  4.097461  0
C  C82  1  0.99640133  0.76594947  0.73929656  1  1.56622  0  0.235978  0.637439  0  4.110474  0
C  C83  1  0.76637877  0.99793778  0.49665706  1  1.553711  0  0.233498  0.64016  0  4.098218  0
C  C84  1  0.99827156  0.23824763  0.26704237  1  1.577044  0  0.236199  0.638349  0  4.110724  0
C  C85  1  0.23896696  0.99553365  0.49924978  1  1.530529  0  0.23401  0.641615  0  4.09693  0
C  C86  1  0.23845627  0.76475272  0.49896969  1  1.536809  0  0.232947  0.640495  0  4.09634  0
C  C87  1  0.99692354  0.99612672  0.73983434  1  1.556293  0  0.23312  0.639565  0  4.096336  0
C  C88  1  0.76727195  0.23864711  0.49719343  1  1.51082  0  0.233431  0.640467  0  4.095352  0
C  C89  1  0.99794185  0.99786531  0.26590714  1  1.536118  0  0.232045  0.637857  0  4.09948  0
C  C90  1  0.14486288  0.45089857  0.38448906  1  0.037103  0  -0.154218  -0.18449  0  3.984811  0
C  C91  1  0.85346312  0.48163680  0.61438128  1  0.016721  0  -0.154196  -0.185557  0  3.983309  0
C  C92  1  0.88458131  0.51874503  0.64468505  1  -0.013795  0  -0.154318  -0.184238  0  3.98278  0
C  C93  1  0.11434003  0.54938815  0.35337285  1  -0.028181  0  -0.15379  -0.185325  0  3.982065  0
C  C94  1  0.06817517  0.34610803  0.44113501  1  -0.012962  0  -0.089485  -0.162902  0  3.974176  0
C  C95  1  0.06951112  0.41836588  0.44164952  1  -0.05271  0  -0.007167  0.08063  0  3.963228  0
C  C96  1  0.92888498  0.35907577  0.55469375  1  -0.028721  0  -0.088192  -0.160897  0  3.971906  0
C  C97  1  0.92824724  0.43210749  0.55565773  1  -0.047471  0  -0.006526  0.081373  0  3.96082  0
C  C98  1  0.94081754  0.64385992  0.56768856  1  -0.043332  0  -0.090628  -0.164654  0  3.979698  0
C  C99  1  0.94155661  0.56955727  0.56923778  1  -0.019352  0  -0.008294  0.079296  0  3.965989  0
C  C100  1  0.05445695  0.65652870  0.42851820  1  -0.022951  0  -0.088368  -0.160846  0  3.970301  0
C  C101  1  0.05559212  0.58300306  0.42803698  1  -0.007862  0  -0.006988  0.081083  0  3.961382  0
C  C102  1  0.99829055  0.31603662  0.49752041  1  0.02619  0  -0.022718  -0.035859  0  4.017452  0
C  C103  1  0.99896197  0.46201265  0.49885156  1  -0.012217  0  -0.006919  -0.022246  0  3.944845  0
C  C104  1  0.99713549  0.68748436  0.49781336  1  -0.054222  0  -0.022148  -0.034525  0  4.015162  0
C  C105  1  0.99886835  0.53914087  0.49877825  1  -0.045821  0  -0.005764  -0.020145  0  3.943452  0
C  C106  1  0.45117194  0.14413291  0.01960409  1  0.006044  0  -0.154154  -0.184213  0  3.983298  0
C  C107  1  0.48231247  0.85284957  0.04997667  1  0.011441  0  -0.15392  -0.185626  0  3.981932  0
C  C108  1  0.51898137  0.88416698  0.95149454  1  -0.026255  0  -0.154585  -0.185188  0  3.984477  0
C  C109  1  0.54971063  0.11402275  0.98230258  1  -0.015915  0  -0.154272  -0.185484  0  3.982287  0
C  C110  1  0.34715915  0.06682254  0.14493423  1  0.029095  0  -0.090332  -0.164651  0  3.978489  0
C  C111  1  0.41900660  0.06857552  0.07046787  1  -0.060574  0  -0.007859  0.080056  0  3.964212  0
C  C112  1  0.36016743  0.92764455  0.15744936  1  -0.027814  0  -0.088512  -0.162323  0  3.971589  0
C  C113  1  0.43287109  0.92738561  0.08376194  1  -0.010078  0  -0.00659  0.082327  0  3.959649  0
C  C114  1  0.64392789  0.94068149  0.84683196  1  -0.024878  0  -0.089864  -0.163611  0  3.974757  0
C  C115  1  0.56974698  0.94127005  0.91901468  1  -0.02504  0  -0.007199  0.08116  0  3.964393  0
C  C116  1  0.65673629  0.05418571  0.85984610  1  -0.020937  0  -0.087723  -0.160794  0  3.970788  0
C  C117  1  0.58326904  0.05525589  0.93278450  1  -0.01782  0  -0.006914  0.081024  0  3.961706  0
C  C118  1  0.31725494  0.99683413  0.18854263  1  -0.068347  0  -0.022845  -0.034918  0  4.017335  0
C  C119  1  0.46256155  0.99823078  0.03989723  1  0.050307  0  -0.006405  -0.020801  0  3.944728  0
C  C120  1  0.68760334  0.99694423  0.81685198  1  -0.038271  0  -0.02271  -0.03495  0  4.015326  0
C  C121  1  0.53944955  0.99845398  0.96267827  1  -0.016049  0  -0.006468  -0.022501  0  3.946664  0
C  C122  1  0.88530262  0.14460655  0.95100580  1  -0.017966  0  -0.154005  -0.182081  0  3.979037  0
C  C123  1  0.11304685  0.85201473  0.98393231  1  0.014992  0  -0.154491  -0.186881  0  3.970622  0
C  C124  1  0.14415565  0.88362765  0.01982098  1  0.016241  0  -0.154619  -0.186101  0  3.986917  0
C  C125  1  0.85375199  0.11497798  0.04946454  1  -0.005686  0  -0.155294  -0.185155  0  3.978144  0
C  C126  1  0.94121104  0.06663165  0.84739288  1  -0.025893  0  -0.090263  -0.163784  0  3.978501  0
C  C127  1  0.94190187  0.06865920  0.91916852  1  -0.022139  0  -0.008551  0.078869  0  3.968379  0
C  C128  1  0.05361613  0.92646389  0.86148863  1  -0.025533  0  -0.086583  -0.157744  0  3.958408  0
C  C129  1  0.05481123  0.92663362  0.93404015  1  -0.027045  0  -0.00551  0.083581  0  3.958572  0
C  C130  1  0.06779575  0.94143790  0.14401647  1  -0.06306  0  -0.089652  -0.163048  0  3.973016  0
C  C131  1  0.06920306  0.94159105  0.07005200  1  -0.021728  0  -0.006298  0.083113  0  3.962289  0
C  C132  1  0.92873736  0.05531274  0.15659231  1  -0.08512  0  -0.093408  -0.169277  0  3.984622  0
C  C133  1  0.92826136  0.05619672  0.08317558  1  0.000694  0  -0.007758  0.080976  0  3.961158  0
C  C134  1  0.99699735  0.99605126  0.81806747  1  -0.073254  0  -0.02235  -0.037592  0  4.01924  0
C  C135  1  0.99871207  0.99815095  0.96304051  1  -0.020388  0  -0.007033  -0.024487  0  3.948554  0
C  C136  1  0.99796384  0.99805428  0.18754842  1  -0.011803  0  -0.024358  -0.035675  0  4.018333  0
C  C137  1  0.99886431  0.99887553  0.03964838  1  -0.021483  0  -0.005364  -0.018877  0  3.94157  0
C  C138  1  0.45317893  0.51919753  0.38402373  1  -0.041719  0  -0.154821  -0.18497  0  3.986295  0
C  C139  1  0.48251846  0.54879514  0.61541804  1  -0.019096  0  -0.155172  -0.183618  0  3.978037  0
C  C140  1  0.51972341  0.45033227  0.64518089  1  -0.001411  0  -0.154467  -0.184169  0  3.98121  0
C  C141  1  0.55178671  0.48321635  0.35254501  1  -0.02277  0  -0.15427  -0.186013  0  3.969171  0
C  C142  1  0.34728466  0.64320870  0.44211765  1  -0.035548  0  -0.089072  -0.162842  0  3.973253  0
C  C143  1  0.41981439  0.56935167  0.44210956  1  -0.026908  0  -0.006733  0.082617  0  3.961619  0
C  C144  1  0.35982635  0.65573187  0.55607018  1  -0.03972  0  -0.093271  -0.167772  0  3.984702  0
C  C145  1  0.43297106  0.58243553  0.55677622  1  -0.049293  0  -0.007798  0.080162  0  3.963027  0
C  C146  1  0.64513186  0.34643040  0.56743958  1  -0.052409  0  -0.090818  -0.16457  0  3.978594  0
C  C147  1  0.57078774  0.41837536  0.56932112  1  -0.013898  0  -0.007563  0.079732  0  3.967788  0
C  C148  1  0.65889102  0.36051649  0.42723585  1  -0.056569  0  -0.086984  -0.158102  0  3.957348  0
C  C149  1  0.58512023  0.43322769  0.42727030  1  -0.022778  0  -0.004989  0.083937  0  3.956549  0
C  C150  1  0.31682372  0.68660065  0.49890702  1  0.002592  0  -0.024311  -0.036884  0  4.019872  0
C  C151  1  0.46325586  0.53893164  0.49941471  1  -0.035233  0  -0.005315  -0.019842  0  3.942653  0
C  C152  1  0.68919430  0.31701911  0.49693116  1  0.050176  0  -0.023019  -0.037879  0  4.019774  0
C  C153  1  0.54070538  0.46227856  0.49874954  1  -0.094373  0  -0.007206  -0.023665  0  3.946925  0
C  C154  1  0.06216887  0.35333075  0.15144889  1  0.030548  0  -0.06707  -0.121973  0  3.903761  0
C  C155  1  0.06219885  0.42707779  0.07800629  1  -0.04155  0  -0.002678  0.078746  0  4.030397  0
C  C156  1  0.12715241  0.46521710  0.03909633  1  0.023192  0  -0.066441  -0.112881  0  3.953362  0
C  C157  1  0.93258998  0.35486697  0.15412781  1  -0.027151  0  -0.078005  -0.140233  0  3.931968  0
C  C158  1  0.93097715  0.42750965  0.07966012  1  0.023745  0  -0.002882  0.0649  0  4.011784  0
C  C159  1  0.86739557  0.46700422  0.03857800  1  -0.169779  0  -0.016569  -0.142803  0  3.975533  0
C  C160  1  0.93314850  0.65029601  0.85417892  1  -0.006269  0  -0.066688  -0.122447  0  3.904784  0
C  C161  1  0.93282243  0.57686678  0.92792604  1  0.006201  0  -0.002442  0.079575  0  4.032399  0
C  C162  1  0.86871946  0.53790058  0.96596247  1  -0.029566  0  -0.065987  -0.111632  0  3.953994  0
C  C163  1  0.05844641  0.65305868  0.85578212  1  -0.101736  0  -0.078504  -0.141657  0  3.929217  0
C  C164  1  0.06179911  0.57868306  0.92850520  1  0.083873  0  -0.002076  0.065426  0  4.01187  0
C  C165  1  0.12680536  0.53777737  0.96814879  1  -0.208575  0  -0.016731  -0.142012  0  3.974064  0
C  C166  1  0.99774456  0.31766401  0.18900703  1  0.040489  0  -0.010875  -0.020404  0  3.983685  0
C  C167  1  0.99672499  0.46500501  0.04074698  1  0.012701  0  0.01294  0.015331  0  3.890725  0
C  C168  1  0.99563475  0.68787194  0.81859940  1  0.084788  0  -0.011524  -0.020347  0  3.985572  0
C  C169  1  0.99751206  0.53972170  0.96597013  1  -0.052435  0  0.012541  0.014066  0  3.891291  0
C  C170  1  0.45193480  0.88429096  0.64559347  1  -0.045081  0  -0.154708  -0.185814  0  3.983516  0
C  C171  1  0.48147043  0.11352634  0.35452349  1  0.010487  0  -0.154856  -0.18609  0  3.985391  0
C  C172  1  0.51831410  0.14429624  0.38545703  1  -0.01834  0  -0.154044  -0.183124  0  3.980807  0
C  C173  1  0.55051867  0.85322984  0.61471430  1  0.046672  0  -0.154356  -0.185076  0  3.983389  0
C  C174  1  0.34703160  0.94003574  0.56928981  1  -0.060634  0  -0.089164  -0.162419  0  3.972517  0
C  C175  1  0.41909380  0.94106805  0.57047523  1  0.008367  0  -0.006876  0.08067  0  3.963864  0
C  C176  1  0.35957645  0.05316825  0.43000785  1  -0.081143  0  -0.08832  -0.160901  0  3.973848  0
C  C177  1  0.43230505  0.05473048  0.42930702  1  0.013221  0  -0.007656  0.079411  0  3.965337  0
C  C178  1  0.64393487  0.06782695  0.44101984  1  -0.078571  0  -0.089419  -0.163563  0  3.97272  0
C  C179  1  0.56956838  0.06910672  0.44214268  1  0.024688  0  -0.00738  0.080378  0  3.963358  0
C  C180  1  0.65747356  0.92857741  0.55422483  1  -0.047409  0  -0.088504  -0.160407  0  3.970889  0
C  C181  1  0.58381944  0.92793871  0.55583294  1  -0.003639  0  -0.006746  0.080789  0  3.960628  0
C  C182  1  0.31691146  0.99590988  0.49941973  1  0.003742  0  -0.021976  -0.03445  0  4.017609  0
C  C183  1  0.46238985  0.99832938  0.49989984  1  -0.068415  0  -0.006135  -0.020254  0  3.944428  0
C  C184  1  0.68802115  0.99796350  0.49692192  1  -0.0507  0  -0.022595  -0.03505  0  4.015072  0
C  C185  1  0.53951213  0.99858395  0.49948035  1  -0.016552  0  -0.006232  -0.021656  0  3.945125  0
S  S186  1  0.21109955  0.57907849  0.92654018  1  3.030171  0  0.538521  1.155872  0  5.993753  0
S  S187  1  0.78350143  0.42536280  0.07975158  1  3.032603  0  0.538009  1.156345  0  5.99593  0
O  O188  1  0.93816561  0.79566955  0.55877665  1  -1.185864  0  -0.360471  -0.623551  0  2.284409  0
O  O189  1  0.20736709  0.05749727  0.29697097  1  -1.182579  0  -0.360374  -0.623021  0  2.284864  0
O  O190  1  0.05910840  0.20563090  0.43886658  1  -1.182506  0  -0.361753  -0.624758  0  2.283572  0
O  O191  1  0.79625689  0.93780532  0.70686230  1  -1.182188  0  -0.361338  -0.62518  0  2.284755  0
O  O192  1  0.05748826  0.79466426  0.70855040  1  -1.179105  0  -0.350843  -0.610459  0  2.284192  0
O  O193  1  0.79651858  0.05846847  0.43789626  1  -1.188833  0  -0.358816  -0.621379  0  2.282726  0
O  O194  1  0.93923817  0.20747603  0.29578270  1  -1.181094  0  -0.35094  -0.611499  0  2.285497  0
O  O195  1  0.20709946  0.93672947  0.55977336  1  -1.181901  0  -0.359751  -0.622879  0  2.282281  0
O  O196  1  0.20703682  0.79507287  0.43977355  1  -1.182918  0  -0.358212  -0.621657  0  2.282348  0
O  O197  1  0.93838217  0.05714880  0.70775307  1  -1.183694  0  -0.358846  -0.621544  0  2.284539  0
O  O198  1  0.79684497  0.20658480  0.55821926  1  -1.176893  0  -0.35894  -0.621993  0  2.285567  0
O  O199  1  0.05813452  0.93853645  0.29632442  1  -1.180999  0  -0.357495  -0.619661  0  2.281612  0
O  O200  1  0.05633190  0.93597199  0.70903536  1  -1.193454  0  -0.361296  -0.623933  0  2.282276  0
O  O201  1  0.79869748  0.20771512  0.43716859  1  -1.179211  0  -0.361227  -0.624231  0  2.283891  0
O  O202  1  0.93836187  0.05809515  0.29657151  1  -1.182391  0  -0.362677  -0.627896  0  2.285876  0
O  O203  1  0.20706938  0.79535864  0.55926197  1  -1.186342  0  -0.362944  -0.628594  0  2.28393  0
O  O204  1  0.93707249  0.79575026  0.70869345  1  -1.177264  0  -0.347538  -0.609727  0  2.283908  0
O  O205  1  0.20834839  0.05495332  0.43924869  1  -1.184677  0  -0.359661  -0.623237  0  2.288274  0
O  O206  1  0.05848172  0.20755543  0.29677615  1  -1.175877  0  -0.347599  -0.610683  0  2.283612  0
O  O207  1  0.79747048  0.93799120  0.55617686  1  -1.186879  0  -0.359692  -0.622679  0  2.28887  0
O  O208  1  0.79689660  0.05650371  0.70802842  1  -1.181317  0  -0.357657  -0.620867  0  2.284387  0
O  O209  1  0.05673707  0.79674139  0.43812504  1  -1.187544  0  -0.358495  -0.622125  0  2.282157  0
O  O210  1  0.20835887  0.93685675  0.29801250  1  -1.184725  0  -0.35838  -0.622036  0  2.281992  0
O  O211  1  0.93853689  0.20690316  0.55752996  1  -1.184913  0  -0.357643  -0.620072  0  2.283408  0
O  O212  1  0.84296660  0.05213188  0.55232767  1  -1.229597  0  -0.695611  -1.066574  0  2.363345  0
O  O213  1  0.05257090  0.05115272  0.55332157  1  -1.227338  0  -0.696022  -1.068002  0  2.36466  0
O  O214  1  0.05282777  0.05179378  0.34343555  1  -1.232318  0  -0.694499  -1.067328  0  2.363705  0
O  O215  1  0.05194731  0.84224572  0.55301695  1  -1.23064  0  -0.69522  -1.068339  0  2.362676  0
O  O216  1  0.11600727  0.96023074  0.46220744  1  -1.199788  0  -0.792792  -1.146525  0  2.13178  0
O  O217  1  0.96154780  0.96103140  0.46142635  1  -1.198202  0  -0.793053  -1.146875  0  2.13217  0
O  O218  1  0.96203435  0.11487077  0.46180699  1  -1.203737  0  -0.791458  -1.149168  0  2.125156  0
O  O219  1  0.96129229  0.96060571  0.61607548  1  -1.197634  0  -0.79128  -1.149336  0  2.125652  0
O  O220  1  0.26732074  0.56258413  0.83462500  1  -1.182918  0  -0.364184  -0.53822  0  2.124785  0
O  O221  1  0.26682367  0.52323458  0.97722562  1  -1.286496  0  -0.310714  -0.511609  0  2.10006  0
O  O222  1  0.17549247  0.67073459  0.90996168  1  -1.278537  0  -0.308803  -0.536711  0  2.139749  0
O  O223  1  0.83581178  0.33307971  0.06403505  1  -1.193125  0  -0.364214  -0.538894  0  2.128188  0
O  O224  1  0.73343094  0.47556690  0.02343754  1  -1.277042  0  -0.310356  -0.511745  0  2.100703  0
O  O225  1  0.74350091  0.40953252  0.17125250  1  -1.29466  0  -0.308992  -0.536482  0  2.138686  0
