# generated using pymatgen
data_ZnH14C15NO5
_symmetry_space_group_name_H-M   'P 1'
_cell_length_a   8.04398965
_cell_length_b   9.81939763
_cell_length_c   11.26565821
_cell_angle_alpha   66.09824372
_cell_angle_beta   67.19367913
_cell_angle_gamma   64.61702786
_symmetry_Int_Tables_number   1
_chemical_formula_structural   ZnH14C15NO5
_chemical_formula_sum   'Zn2 H28 C30 N2 O10'
_cell_volume   709.91337386
_cell_formula_units_Z   2
loop_
 _symmetry_equiv_pos_site_id
 _symmetry_equiv_pos_as_xyz
  1  'x, y, z'
loop_
 _atom_site_type_symbol
 _atom_site_label
 _atom_site_symmetry_multiplicity
 _atom_site_fract_x
 _atom_site_fract_y
 _atom_site_fract_z
 _atom_site_occupancy
 _atom_site_hle17_bader_spin_density
 _atom_site_hle17_ddec_charge
 _atom_site_hle17_ddec_spin_density
 _atom_site_hle17_ddec_sum_bond_order
 _atom_site_hle17_magmom
 _atom_site_hse06_10hf_bader_spin_density
 _atom_site_hse06_10hf_ddec_charge
 _atom_site_hse06_10hf_ddec_spin_density
 _atom_site_hse06_10hf_ddec_sum_bond_order
 _atom_site_hse06_10hf_magmom
 _atom_site_hse06_bader_spin_density
 _atom_site_hse06_ddec_charge
 _atom_site_hse06_ddec_spin_density
 _atom_site_hse06_ddec_sum_bond_order
 _atom_site_hse06_magmom
 _atom_site_pbe_bader_spin_density
 _atom_site_pbe_cm5_charge
 _atom_site_pbe_ddec_charge
 _atom_site_pbe_ddec_spin_density
 _atom_site_pbe_ddec_sum_bond_order
 _atom_site_pbe_magmom
Zn  Zn0  1  0.84588215  0.43049013  0.91770382  1  0  1.14349  0  1.633253  0  0  0.963731  0  2.078778  0  0  1.015238  0  2.020087  0  0  0.692492  0.926286  0  2.120005  0
Zn  Zn1  1  0.15412303  0.56950724  0.08229633  1  0  1.143514  0  1.633282  0  0  0.963739  0  2.078812  0  0  1.015244  0  2.020124  0  0  0.692498  0.926298  0  2.120039  0
H  H2  1  0.14047790  0.06958952  0.01191298  1  0  0.11532  0  0.952134  0  0  0.122156  0  1.017013  0  0  0.125934  0  1.014299  0  0  0.107615  0.119371  0  1.019023  0
H  H3  1  0.85952726  0.93040780  0.98808986  1  0  0.115351  0  0.952062  0  0  0.122173  0  1.016965  0  0  0.125952  0  1.014251  0  0  0.107618  0.119386  0  1.018977  0
H  H4  1  0.60775973  0.86736702  0.71689798  1  0  0.095224  0  0.945773  0  0  0.106801  0  1.005474  0  0  0.110711  0  1.002342  0  0  0.100502  0.104031  0  1.007566  0
H  H5  1  0.39223555  0.13263513  0.28310412  1  0  0.095202  0  0.945833  0  0  0.10678  0  1.005533  0  0  0.110694  0  1.002397  0  0  0.100481  0.10401  0  1.007627  0
H  H6  1  0.59790227  0.26682757  0.79224996  1  0  0.1  0  0.964853  0  0  0.111283  0  1.029613  0  0  0.114425  0  1.027332  0  0  0.102806  0.109087  0  1.031139  0
H  H7  1  0.40209709  0.73317459  0.20774837  1  0  0.100002  0  0.964846  0  0  0.11128  0  1.029616  0  0  0.114418  0  1.027335  0  0  0.102814  0.109083  0  1.031145  0
H  H8  1  0.89696196  0.10583459  0.66253441  1  0  0.113179  0  0.971111  0  0  0.137771  0  1.028017  0  0  0.138771  0  1.028343  0  0  0.093607  0.137014  0  1.027854  0
H  H9  1  0.10303697  0.89416535  0.33745947  1  0  0.113186  0  0.971097  0  0  0.137778  0  1.027997  0  0  0.138779  0  1.028321  0  0  0.093617  0.137021  0  1.027834  0
H  H10  1  0.79553339  0.12759717  0.53900790  1  0  0.101622  0  0.969399  0  0  0.121703  0  1.03526  0  0  0.122117  0  1.03658  0  0  0.086362  0.121381  0  1.034378  0
H  H11  1  0.20445421  0.87240045  0.46099426  1  0  0.10161  0  0.969264  0  0  0.12169  0  1.035136  0  0  0.122103  0  1.036456  0  0  0.086339  0.121367  0  1.034254  0
H  H12  1  0.89787611  0.93723414  0.63928691  1  0  0.106597  0  0.95205  0  0  0.12822  0  1.012198  0  0  0.129369  0  1.012167  0  0  0.090527  0.127375  0  1.012271  0
H  H13  1  0.10212097  0.06276683  0.36071421  1  0  0.106593  0  0.952048  0  0  0.128213  0  1.012194  0  0  0.129362  0  1.012163  0  0  0.090511  0.127368  0  1.012265  0
H  H14  1  0.37262820  0.33126641  0.48450092  1  0  0.114735  0  0.948458  0  0  0.12828  0  1.001926  0  0  0.131671  0  1.000547  0  0  0.112215  0.125873  0  1.00301  0
H  H15  1  0.62737295  0.66873455  0.51549823  1  0  0.114709  0  0.94849  0  0  0.128246  0  1.001972  0  0  0.131637  0  1.000592  0  0  0.112211  0.125841  0  1.003055  0
H  H16  1  0.36904870  0.67152252  0.63896430  1  0  0.121032  0  0.968546  0  0  0.131133  0  1.027572  0  0  0.134949  0  1.025106  0  0  0.112467  0.128323  0  1.029651  0
H  H17  1  0.63095192  0.32846905  0.36103905  1  0  0.121114  0  0.9685  0  0  0.131192  0  1.027537  0  0  0.135007  0  1.025073  0  0  0.112484  0.128381  0  1.029619  0
H  H18  1  0.06847926  0.64789541  0.79868876  1  0  0.099634  0  1.004385  0  0  0.105785  0  1.068022  0  0  0.10921  0  1.064855  0  0  0.119666  0.103236  0  1.070355  0
H  H19  1  0.93152095  0.35210430  0.20131461  1  0  0.09958  0  1.004372  0  0  0.105677  0  1.068068  0  0  0.109099  0  1.064908  0  0  0.119652  0.103129  0  1.070399  0
H  H20  1  0.03996254  0.19698915  0.75011081  1  0  0.138118  0  0.942652  0  0  0.159053  0  1.003318  0  0  0.160478  0  1.003161  0  0  0.103259  0.157889  0  1.003652  0
H  H21  1  0.96003996  0.80300835  0.24988558  1  0  0.13812  0  0.942652  0  0  0.159031  0  1.003329  0  0  0.160456  0  1.00317  0  0  0.103223  0.157867  0  1.003664  0
H  H22  1  0.11439941  0.23948955  0.57127805  1  0  0.12  0  0.93498  0  0  0.143141  0  0.988986  0  0  0.144862  0  0.988278  0  0  0.09723  0.141889  0  0.989415  0
H  H23  1  0.88560272  0.76051619  0.42871388  1  0  0.120016  0  0.93504  0  0  0.143154  0  0.989029  0  0  0.144873  0  0.988324  0  0  0.097268  0.141903  0  0.989459  0
H  H24  1  0.89220683  0.35885738  0.65263517  1  0  0.130495  0  0.953558  0  0  0.149474  0  1.018695  0  0  0.150907  0  1.018772  0  0  0.097133  0.148475  0  1.018549  0
H  H25  1  0.10779484  0.64114604  0.34735678  1  0  0.1305  0  0.953576  0  0  0.149467  0  1.018726  0  0  0.150901  0  1.018802  0  0  0.097136  0.14847  0  1.018578  0
H  H26  1  0.53268385  0.60431895  0.81212472  1  0  0.423657  0  0.88734  0  0  0.39329  0  0.950888  0  0  0.403635  0  0.936  0  0  0.288181  0.386006  0  0.961399  0
H  H27  1  0.46732304  0.39567011  0.18788222  1  0  0.423641  0  0.887334  0  0  0.393259  0  0.950902  0  0  0.403606  0  0.93601  0  0  0.288174  0.385973  0  0.961415  0
H  H28  1  0.54189806  0.43111200  0.88432370  1  0  0.417418  0  0.881475  0  0  0.385375  0  0.955428  0  0  0.39606  0  0.939833  0  0  0.290591  0.377826  0  0.966414  0
H  H29  1  0.45811163  0.56888416  0.11567565  1  0  0.417422  0  0.88147  0  0  0.385373  0  0.955433  0  0  0.396062  0  0.939834  0  0  0.290562  0.377824  0  0.966419  0
C  C30  1  0.35471469  0.18501618  0.90648374  1  0  -0.082365  0  3.773952  0  0  -0.057065  0  4.016479  0  0  -0.06727  0  4.041745  0  0  -0.022967  -0.050862  0  3.999666  0
C  C31  1  0.64528690  0.81498358  0.09351658  1  0  -0.082214  0  3.773806  0  0  -0.056978  0  4.016405  0  0  -0.067181  0  4.041663  0  0  -0.02292  -0.050775  0  3.99959  0
C  C32  1  0.27474739  0.06933511  0.93598692  1  0  -0.06579  0  3.693559  0  0  -0.105857  0  3.948819  0  0  -0.103121  0  3.967475  0  0  -0.077711  -0.107219  0  3.936267  0
C  C33  1  0.72525638  0.93066211  0.06402166  1  0  -0.065928  0  3.693813  0  0  -0.105958  0  3.949065  0  0  -0.103224  0  3.967723  0  0  -0.077749  -0.107318  0  3.936512  0
C  C34  1  0.36607820  0.95521607  0.86764444  1  0  -0.067882  0  3.783988  0  0  -0.042948  0  4.024552  0  0  -0.051834  0  4.047762  0  0  -0.021941  -0.037204  0  4.00821  0
C  C35  1  0.63391575  0.04478618  0.13235443  1  0  -0.067841  0  3.78405  0  0  -0.042911  0  4.0246  0  0  -0.0518  0  4.047815  0  0  -0.021915  -0.037165  0  4.008255  0
C  C36  1  0.53797669  0.95742219  0.76951415  1  0  -0.114542  0  3.70024  0  0  -0.14848  0  3.942046  0  0  -0.147919  0  3.961516  0  0  -0.084406  -0.14836  0  3.928184  0
C  C37  1  0.46201722  0.04257991  0.23049100  1  0  -0.114519  0  3.700098  0  0  -0.148462  0  3.941895  0  0  -0.147903  0  3.961364  0  0  -0.08437  -0.148342  0  3.928033  0
C  C38  1  0.62475186  0.06684543  0.74267618  1  0  0.131976  0  3.761973  0  0  0.164509  0  3.998891  0  0  0.162364  0  4.024417  0  0  -0.012795  0.165719  0  3.981601  0
C  C39  1  0.37524346  0.93316027  0.25732293  1  0  0.131946  0  3.761936  0  0  0.164485  0  3.998837  0  0  0.162338  0  4.024364  0  0  -0.012849  0.165695  0  3.981545  0
C  C40  1  0.53172968  0.18067822  0.81247844  1  0  -0.105572  0  3.667506  0  0  -0.142292  0  3.916107  0  0  -0.140836  0  3.935954  0  0  -0.080433  -0.1428  0  3.902398  0
C  C41  1  0.46827325  0.81932147  0.18752420  1  0  -0.105588  0  3.667428  0  0  -0.142281  0  3.916031  0  0  -0.140817  0  3.93587  0  0  -0.080399  -0.14279  0  3.902325  0
C  C42  1  0.24033509  0.31000354  0.97709301  1  0  0.671536  0  3.855123  0  0  0.612993  0  4.151197  0  0  0.648537  0  4.14419  0  0  0.22032  0.589373  0  4.154544  0
C  C43  1  0.75966602  0.68999386  0.02290912  1  0  0.671559  0  3.855026  0  0  0.612996  0  4.151158  0  0  0.648548  0  4.144144  0  0  0.220308  0.589379  0  4.154505  0
C  C44  1  0.29294637  0.82356151  0.90091854  1  0  0.663271  0  3.888431  0  0  0.608933  0  4.183379  0  0  0.644234  0  4.174187  0  0  0.2117  0.585302  0  4.188449  0
C  C45  1  0.70705838  0.17643364  0.09907716  1  0  0.663302  0  3.888275  0  0  0.608947  0  4.183246  0  0  0.644249  0  4.174051  0  0  0.211665  0.585314  0  4.188317  0
C  C46  1  0.81390412  0.05918140  0.64077472  1  0  -0.334657  0  3.729656  0  0  -0.414043  0  3.954669  0  0  -0.415972  0  3.965618  0  0  -0.241414  -0.412625  0  3.947274  0
C  C47  1  0.18609164  0.94081971  0.35922139  1  0  -0.334648  0  3.729531  0  0  -0.414031  0  3.954538  0  0  -0.41596  0  3.965489  0  0  -0.24137  -0.412612  0  3.947142  0
C  C48  1  0.13847080  0.39642935  0.64684324  1  0  0.331302  0  3.708948  0  0  0.338575  0  3.951339  0  0  0.348062  0  3.972704  0  0  0.128052  0.332046  0  3.936957  0
C  C49  1  0.86153037  0.60357165  0.35315411  1  0  0.331239  0  3.70869  0  0  0.338568  0  3.950994  0  0  0.348054  0  3.972362  0  0  0.128041  0.332037  0  3.936612  0
C  C50  1  0.31124473  0.40420604  0.55207020  1  0  -0.206103  0  3.651188  0  0  -0.22931  0  3.891331  0  0  -0.238552  0  3.912863  0  0  -0.078367  -0.223451  0  3.877105  0
C  C51  1  0.68875147  0.59579731  0.44792947  1  0  -0.205957  0  3.651356  0  0  -0.229241  0  3.89144  0  0  -0.238482  0  3.912972  0  0  -0.078343  -0.223385  0  3.877216  0
C  C52  1  0.40524061  0.49935161  0.54642684  1  0  0.107383  0  3.753298  0  0  0.117756  0  3.988893  0  0  0.122414  0  4.009894  0  0  0.016185  0.114804  0  3.974605  0
C  C53  1  0.59475145  0.50065153  0.45358556  1  0  0.107163  0  3.753531  0  0  0.117752  0  3.98891  0  0  0.122411  0  4.009912  0  0  0.016212  0.1148  0  3.974622  0
C  C54  1  0.31078211  0.59281345  0.63443157  1  0  -0.157319  0  3.701545  0  0  -0.180133  0  3.958061  0  0  -0.187667  0  3.977489  0  0  -0.081876  -0.175393  0  3.94511  0
C  C55  1  0.68922031  0.40718034  0.36557498  1  0  -0.157481  0  3.701593  0  0  -0.180299  0  3.957998  0  0  -0.187828  0  3.977416  0  0  -0.081936  -0.175558  0  3.945046  0
C  C56  1  0.13904927  0.58124185  0.72558934  1  0  0.131733  0  3.704776  0  0  0.097579  0  3.963096  0  0  0.105487  0  3.979525  0  0  0.039422  0.092408  0  3.951721  0
C  C57  1  0.86094824  0.41875793  0.27441295  1  0  0.131945  0  3.704976  0  0  0.097832  0  3.963277  0  0  0.105739  0  3.979711  0  0  0.039552  0.09266  0  3.951898  0
C  C58  1  0.04142120  0.29193299  0.65483169  1  0  -0.392174  0  3.706163  0  0  -0.477044  0  3.942733  0  0  -0.48046  0  3.950391  0  0  -0.241999  -0.474347  0  3.937344  0
C  C59  1  0.95858134  0.70807153  0.34516321  1  0  -0.392191  0  3.706163  0  0  -0.477042  0  3.942734  0  0  -0.480456  0  3.950391  0  0  -0.242017  -0.474349  0  3.937349  0
N  N60  1  0.05524312  0.48222289  0.73589213  1  0  -0.402106  0  3.201259  0  0  -0.322376  0  3.464538  0  0  -0.344306  0  3.479837  0  0  -0.32116  -0.30735  0  3.453911  0
N  N61  1  0.94475622  0.51777234  0.26410411  1  0  -0.402153  0  3.20121  0  0  -0.322419  0  3.464427  0  0  -0.344349  0  3.479729  0  0  -0.321222  -0.307391  0  3.453796  0
O  O62  1  0.32165243  0.38983498  0.99002697  1  0  -0.657422  0  2.056406  0  0  -0.574941  0  2.318131  0  0  -0.604845  0  2.303741  0  0  -0.304424  -0.554521  0  2.327716  0
O  O63  1  0.67834643  0.61016477  0.00997586  1  0  -0.657437  0  2.056416  0  0  -0.57496  0  2.318166  0  0  -0.604889  0  2.303788  0  0  -0.304413  -0.554545  0  2.327752  0
O  O64  1  0.06296326  0.33242962  0.02338750  1  0  -0.651953  0  2.139426  0  0  -0.583891  0  2.404005  0  0  -0.611089  0  2.390904  0  0  -0.309711  -0.564331  0  2.41197  0
O  O65  1  0.93703656  0.66757141  0.97660932  1  0  -0.651969  0  2.139316  0  0  -0.583903  0  2.403935  0  0  -0.611101  0  2.390832  0  0  -0.309704  -0.564334  0  2.41188  0
O  O66  1  0.18759265  0.78408667  0.02037871  1  0  -0.64434  0  2.039049  0  0  -0.566414  0  2.301267  0  0  -0.59674  0  2.28838  0  0  -0.316547  -0.545147  0  2.309284  0
O  O67  1  0.81241841  0.21590953  0.97961759  1  0  -0.644402  0  2.039101  0  0  -0.566454  0  2.301328  0  0  -0.596779  0  2.288436  0  0  -0.316544  -0.545182  0  2.309344  0
O  O68  1  0.34391747  0.75488830  0.81265763  1  0  -0.652364  0  1.980493  0  0  -0.598944  0  2.206628  0  0  -0.622033  0  2.194052  0  0  -0.332865  -0.582554  0  2.21462  0
O  O69  1  0.65608867  0.24511383  0.18733710  1  0  -0.652349  0  1.980314  0  0  -0.598926  0  2.206472  0  0  -0.622012  0  2.193883  0  0  -0.332852  -0.582535  0  2.214465  0
O  O70  1  0.62701509  0.49492229  0.82414080  1  0  -0.843075  0  1.902349  0  0  -0.783785  0  2.118042  0  0  -0.806768  0  2.084547  0  0  -0.581755  -0.767539  0  2.141334  0
O  O71  1  0.37297748  0.50507987  0.17586292  1  0  -0.843096  0  1.90229  0  0  -0.783787  0  2.118031  0  0  -0.806775  0  2.084533  0  0  -0.581726  -0.767535  0  2.141318  0
