# generated using pymatgen
data_CdH16C22(NO2)2
_symmetry_space_group_name_H-M   'P 1'
_cell_length_a   7.36723492
_cell_length_b   10.21016194
_cell_length_c   12.96765849
_cell_angle_alpha   85.03780046
_cell_angle_beta   77.44643723
_cell_angle_gamma   73.99102979
_symmetry_Int_Tables_number   1
_chemical_formula_structural   CdH16C22(NO2)2
_chemical_formula_sum   'Cd2 H32 C44 N4 O8'
_cell_volume   914.82522485
_cell_formula_units_Z   2
loop_
 _symmetry_equiv_pos_site_id
 _symmetry_equiv_pos_as_xyz
  1  'x, y, z'
loop_
 _atom_site_type_symbol
 _atom_site_label
 _atom_site_symmetry_multiplicity
 _atom_site_fract_x
 _atom_site_fract_y
 _atom_site_fract_z
 _atom_site_occupancy
 _atom_site_hle17_bader_spin_density
 _atom_site_hle17_ddec_charge
 _atom_site_hle17_ddec_spin_density
 _atom_site_hle17_ddec_sum_bond_order
 _atom_site_hle17_magmom
 _atom_site_hse06_10hf_bader_spin_density
 _atom_site_hse06_10hf_ddec_charge
 _atom_site_hse06_10hf_ddec_spin_density
 _atom_site_hse06_10hf_ddec_sum_bond_order
 _atom_site_hse06_10hf_magmom
 _atom_site_hse06_bader_spin_density
 _atom_site_hse06_ddec_charge
 _atom_site_hse06_ddec_spin_density
 _atom_site_hse06_ddec_sum_bond_order
 _atom_site_hse06_magmom
 _atom_site_pbe_bader_spin_density
 _atom_site_pbe_cm5_charge
 _atom_site_pbe_ddec_charge
 _atom_site_pbe_ddec_spin_density
 _atom_site_pbe_ddec_sum_bond_order
 _atom_site_pbe_magmom
Cd  Cd0  1  0.25023561  0.95567472  0.51538635  1  0  1.16093  0  1.697613  0  0  0.967874  0  2.149729  0  0  1.025108  0  2.0973  0  0  0.785511  0.926653  0  2.185825  0
Cd  Cd1  1  0.74976420  0.04432817  0.48461148  1  0  1.160926  0  1.697638  0  0  0.967865  0  2.149758  0  0  1.0251  0  2.09733  0  0  0.785488  0.926645  0  2.185851  0
H  H2  1  0.44514969  0.92444407  0.27677395  1  0  0.066356  0  0.982337  0  0  0.074611  0  1.049942  0  0  0.075254  0  1.050516  0  0  0.108377  0.074359  0  1.049247  0
H  H3  1  0.55484913  0.07555777  0.72322715  1  0  0.066368  0  0.982365  0  0  0.074604  0  1.049991  0  0  0.075248  0  1.050563  0  0  0.108385  0.074353  0  1.049294  0
H  H4  1  0.61600307  0.75106275  0.14294968  1  0  0.092433  0  0.987059  0  0  0.105359  0  1.048052  0  0  0.107476  0  1.048197  0  0  0.101576  0.10381  0  1.048087  0
H  H5  1  0.38399372  0.24893705  0.85705103  1  0  0.092407  0  0.987039  0  0  0.105349  0  1.048016  0  0  0.107464  0  1.048166  0  0  0.101568  0.103801  0  1.04805  0
H  H6  1  0.46930346  0.44554260  0.37312077  1  0  0.115127  0  0.948142  0  0  0.126622  0  1.003985  0  0  0.129421  0  1.003987  0  0  0.110648  0.12472  0  1.004081  0
H  H7  1  0.53068559  0.55445928  0.62687770  1  0  0.115153  0  0.948134  0  0  0.126689  0  1.003939  0  0  0.12949  0  1.003939  0  0  0.110661  0.124785  0  1.004034  0
H  H8  1  0.29870520  0.63473370  0.49914319  1  0  0.091989  0  0.968786  0  0  0.097319  0  1.036965  0  0  0.100769  0  1.03331  0  0  0.116096  0.094761  0  1.039532  0
H  H9  1  0.70128425  0.36526715  0.50085606  1  0  0.091979  0  0.968761  0  0  0.09729  0  1.036949  0  0  0.100745  0  1.033288  0  0  0.11608  0.094735  0  1.039515  0
H  H10  1  0.66282030  0.36962636  0.20305048  1  0  0.103997  0  0.987064  0  0  0.110861  0  1.056025  0  0  0.114237  0  1.054463  0  0  0.099904  0.108561  0  1.05676  0
H  H11  1  0.33717573  0.63037549  0.79694943  1  0  0.103992  0  0.987086  0  0  0.110866  0  1.056031  0  0  0.114242  0  1.054471  0  0  0.099903  0.108566  0  1.056762  0
H  H12  1  0.69340227  0.59916605  0.03253951  1  0  0.074959  0  0.986511  0  0  0.08893  0  1.047157  0  0  0.090513  0  1.047561  0  0  0.096219  0.087728  0  1.047002  0
H  H13  1  0.30660466  0.40083272  0.96746154  1  0  0.074952  0  0.986528  0  0  0.088915  0  1.047188  0  0  0.090497  0  1.047591  0  0  0.096214  0.087712  0  1.047035  0
H  H14  1  0.81586745  0.28460464  0.02054244  1  0  0.072307  0  0.966027  0  0  0.088254  0  1.025094  0  0  0.089715  0  1.024748  0  0  0.097787  0.087237  0  1.025303  0
H  H15  1  0.18413353  0.71539516  0.97945852  1  0  0.07225  0  0.966082  0  0  0.088185  0  1.025153  0  0  0.089647  0  1.024805  0  0  0.097787  0.087169  0  1.025362  0
H  H16  1  0.84351289  0.52147630  0.85795037  1  0  0.099512  0  0.948196  0  0  0.111941  0  1.007596  0  0  0.11387  0  1.008491  0  0  0.104141  0.11072  0  1.006785  0
H  H17  1  0.15649543  0.47852245  0.14205127  1  0  0.099502  0  0.948186  0  0  0.111936  0  1.007581  0  0  0.113853  0  1.008504  0  0  0.104145  0.110714  0  1.00677  0
H  H18  1  0.01564188  0.46169640  0.68089173  1  0  0.125878  0  0.968646  0  0  0.132517  0  1.032396  0  0  0.137052  0  1.029692  0  0  0.106774  0.129095  0  1.034581  0
H  H19  1  0.98436201  0.53829931  0.31910912  1  0  0.125869  0  0.968631  0  0  0.132499  0  1.032395  0  0  0.137039  0  1.029685  0  0  0.106765  0.129078  0  1.03458  0
H  H20  1  0.17251751  0.28567981  0.54475719  1  0  0.08977  0  0.935856  0  0  0.099314  0  0.99522  0  0  0.101569  0  0.993275  0  0  0.118484  0.097557  0  0.996716  0
H  H21  1  0.82747842  0.71431489  0.45524472  1  0  0.089753  0  0.935898  0  0  0.099292  0  0.995269  0  0  0.101564  0  0.993305  0  0  0.118497  0.097533  0  0.996765  0
H  H22  1  0.07003569  0.97457154  0.75569701  1  0  0.069189  0  0.999658  0  0  0.076458  0  1.070246  0  0  0.077891  0  1.069232  0  0  0.108001  0.075559  0  1.070674  0
H  H23  1  0.92996927  0.02542512  0.24430981  1  0  0.069169  0  0.999654  0  0  0.076446  0  1.070215  0  0  0.077868  0  1.069232  0  0  0.108008  0.075549  0  1.070645  0
H  H24  1  0.90882168  0.13334627  0.90155592  1  0  0.092417  0  0.961074  0  0  0.107243  0  1.016336  0  0  0.109744  0  1.016098  0  0  0.100483  0.105434  0  1.016628  0
H  H25  1  0.09118389  0.86665245  0.09844916  1  0  0.092469  0  0.961002  0  0  0.107262  0  1.016299  0  0  0.109743  0  1.016082  0  0  0.100471  0.105453  0  1.016591  0
H  H26  1  0.02907007  0.77876151  0.82385230  1  0  0.098446  0  0.964222  0  0  0.107665  0  1.02966  0  0  0.11122  0  1.027285  0  0  0.102618  0.105057  0  1.031534  0
H  H27  1  0.97093745  0.22123935  0.17614391  1  0  0.098454  0  0.964286  0  0  0.107677  0  1.029719  0  0  0.111233  0  1.027341  0  0  0.10263  0.105071  0  1.031593  0
H  H28  1  0.81776448  0.82329820  0.00225269  1  0  0.078871  0  0.970045  0  0  0.088727  0  1.036019  0  0  0.091606  0  1.034613  0  0  0.095499  0.086669  0  1.037062  0
H  H29  1  0.18224231  0.17669345  0.99774650  1  0  0.078897  0  0.970007  0  0  0.088718  0  1.036013  0  0  0.091596  0  1.034608  0  0  0.095519  0.086659  0  1.037059  0
H  H30  1  0.46006557  0.86774183  0.02261417  1  0  0.08495  0  0.967565  0  0  0.095938  0  1.028876  0  0  0.098814  0  1.028044  0  0  0.096695  0.09388  0  1.029615  0
H  H31  1  0.53994084  0.13225085  0.97738424  1  0  0.084909  0  0.967535  0  0  0.096014  0  1.028717  0  0  0.098892  0  1.027882  0  0  0.096725  0.093951  0  1.029455  0
H  H32  1  0.32199012  0.86565316  0.86373384  1  0  0.084601  0  0.967953  0  0  0.093482  0  1.03482  0  0  0.096913  0  1.032272  0  0  0.097744  0.091072  0  1.036507  0
H  H33  1  0.67801300  0.13434461  0.13626543  1  0  0.084593  0  0.967937  0  0  0.093464  0  1.034819  0  0  0.096896  0  1.032268  0  0  0.097749  0.091055  0  1.036505  0
C  C34  1  0.45333349  0.81716435  0.29512215  1  0  0.126456  0  3.7455  0  0  0.095281  0  3.998226  0  0  0.102936  0  4.018678  0  0  0.035533  0.090149  0  3.983993  0
C  C35  1  0.54666369  0.18283442  0.70487934  1  0  0.12647  0  3.745653  0  0  0.095306  0  3.99838  0  0  0.10296  0  4.018835  0  0  0.035533  0.090175  0  3.984149  0
C  C36  1  0.54668586  0.71957841  0.22021117  1  0  -0.173246  0  3.723414  0  0  -0.188686  0  3.965758  0  0  -0.197675  0  3.988468  0  0  -0.087876  -0.18282  0  3.950499  0
C  C37  1  0.45330852  0.28042039  0.77978836  1  0  -0.17321  0  3.723483  0  0  -0.188665  0  3.965823  0  0  -0.197654  0  3.988534  0  0  -0.087899  -0.182799  0  3.950566  0
C  C38  1  0.55540547  0.58127896  0.24534860  1  0  0.148334  0  3.794501  0  0  0.162521  0  4.024279  0  0  0.169616  0  4.045796  0  0  0.010572  0.157995  0  4.009471  0
C  C39  1  0.44458753  0.41871984  0.75465188  1  0  0.148293  0  3.794399  0  0  0.162482  0  4.024182  0  0  0.169579  0  4.045697  0  0  0.010569  0.157955  0  4.009376  0
C  C40  1  0.46672037  0.55076604  0.34879364  1  0  -0.152199  0  3.655316  0  0  -0.166079  0  3.894782  0  0  -0.17496  0  3.915755  0  0  -0.075939  -0.160522  0  3.880691  0
C  C41  1  0.53326768  0.44923482  0.65120578  1  0  -0.152216  0  3.655161  0  0  -0.166138  0  3.894614  0  0  -0.175023  0  3.915588  0  0  -0.075926  -0.160578  0  3.880522  0
C  C42  1  0.37518478  0.65464210  0.41982710  1  0  0.133203  0  3.694324  0  0  0.100564  0  3.948407  0  0  0.109052  0  3.965586  0  0  0.047097  0.095066  0  3.936723  0
C  C43  1  0.62480606  0.34535875  0.58017198  1  0  0.133207  0  3.694228  0  0  0.100572  0  3.94832  0  0  0.109062  0  3.965498  0  0  0.047058  0.095074  0  3.936641  0
C  C44  1  0.64843888  0.47352629  0.17021910  1  0  -0.118019  0  3.678915  0  0  -0.137461  0  3.926867  0  0  -0.143516  0  3.948714  0  0  -0.083918  -0.133252  0  3.911589  0
C  C45  1  0.35155791  0.52647351  0.82978161  1  0  -0.118009  0  3.678847  0  0  -0.137457  0  3.926792  0  0  -0.143515  0  3.948641  0  0  -0.083871  -0.133247  0  3.911511  0
C  C46  1  0.71146931  0.49521306  0.06522254  1  0  -0.048855  0  3.787144  0  0  -0.062778  0  4.034711  0  0  -0.064057  0  4.059176  0  0  -0.084312  -0.061768  0  4.018009  0
C  C47  1  0.28853270  0.50478773  0.93477977  1  0  -0.048898  0  3.787238  0  0  -0.062818  0  4.034797  0  0  -0.064096  0  4.059262  0  0  -0.084381  -0.061808  0  4.018094  0
C  C48  1  0.79919216  0.38966487  0.99029470  1  0  -0.053537  0  3.783935  0  0  -0.068499  0  4.033645  0  0  -0.070231  0  4.057147  0  0  -0.085051  -0.067243  0  4.017626  0
C  C49  1  0.20081022  0.61033491  0.00970763  1  0  -0.053425  0  3.784139  0  0  -0.068374  0  4.033835  0  0  -0.070103  0  4.057333  0  0  -0.084991  -0.067119  0  4.017813  0
C  C50  1  0.86026243  0.41530463  0.88563839  1  0  -0.111975  0  3.694166  0  0  -0.129366  0  3.940133  0  0  -0.133427  0  3.961986  0  0  -0.081631  -0.126636  0  3.925129  0
C  C51  1  0.13974133  0.58469515  0.11436299  1  0  -0.11194  0  3.694235  0  0  -0.129334  0  3.940198  0  0  -0.133396  0  3.962047  0  0  -0.08161  -0.126604  0  3.925195  0
C  C52  1  0.95019117  0.31370384  0.80528420  1  0  0.134502  0  3.816097  0  0  0.147591  0  4.048779  0  0  0.153836  0  4.070947  0  0  0.004351  0.143663  0  4.033451  0
C  C53  1  0.04981715  0.68629491  0.19471744  1  0  0.134642  0  3.81598  0  0  0.147727  0  4.048668  0  0  0.153975  0  4.070827  0  0  0.004376  0.143798  0  4.033337  0
C  C54  1  0.02538449  0.35426080  0.70180933  1  0  -0.159594  0  3.653137  0  0  -0.174002  0  3.896157  0  0  -0.182601  0  3.915575  0  0  -0.079308  -0.168287  0  3.883045  0
C  C55  1  0.97461726  0.64573695  0.29819243  1  0  -0.159698  0  3.653039  0  0  -0.174106  0  3.89608  0  0  -0.182704  0  3.915495  0  0  -0.079324  -0.168391  0  3.882962  0
C  C56  1  0.11379043  0.25666255  0.62523803  1  0  0.149131  0  3.682849  0  0  0.115184  0  3.939088  0  0  0.124515  0  3.955659  0  0  0.050019  0.109147  0  3.927686  0
C  C57  1  0.88621208  0.74333315  0.37476453  1  0  0.149272  0  3.682931  0  0  0.115339  0  3.939166  0  0  0.124654  0  3.955732  0  0  0.050068  0.109304  0  3.92776  0
C  C58  1  0.05681488  0.08312421  0.74357296  1  0  0.11844  0  3.75885  0  0  0.086383  0  4.01044  0  0  0.093152  0  4.032075  0  0  0.031608  0.081876  0  3.995625  0
C  C59  1  0.94318905  0.91687147  0.25643174  1  0  0.118432  0  3.758959  0  0  0.086399  0  4.010527  0  0  0.093167  0  4.032142  0  0  0.031611  0.081887  0  3.995719  0
C  C60  1  0.96768587  0.17314389  0.82457357  1  0  -0.188815  0  3.741184  0  0  -0.202685  0  3.985224  0  0  -0.21197  0  4.00831  0  0  -0.095264  -0.196525  0  3.969656  0
C  C61  1  0.03231971  0.82685483  0.17543151  1  0  -0.188931  0  3.741297  0  0  -0.202787  0  3.985347  0  0  -0.21205  0  4.008431  0  0  -0.095264  -0.196626  0  3.96978  0
C  C62  1  0.59415273  0.82863404  0.75528030  1  0  -0.086987  0  3.736964  0  0  -0.070034  0  3.968655  0  0  -0.076176  0  3.988053  0  0  -0.019347  -0.066095  0  3.955315  0
C  C63  1  0.40584710  0.17136882  0.24471984  1  0  -0.087127  0  3.737095  0  0  -0.07023  0  3.968816  0  0  -0.076372  0  3.98821  0  0  -0.019387  -0.066293  0  3.955483  0
C  C64  1  0.79459299  0.80661224  0.74333468  1  0  -0.037009  0  3.679883  0  0  -0.025213  0  3.915582  0  0  -0.025933  0  3.931936  0  0  -0.002664  -0.025322  0  3.905145  0
C  C65  1  0.20540594  0.19339675  0.25666442  1  0  -0.037074  0  3.67984  0  0  -0.025119  0  3.91554  0  0  -0.025826  0  3.931876  0  0  -0.002625  -0.025211  0  3.905073  0
C  C66  1  0.87287043  0.80125104  0.83364870  1  0  -0.098823  0  3.735575  0  0  -0.118964  0  3.985606  0  0  -0.121254  0  4.003925  0  0  -0.090009  -0.117259  0  3.973168  0
C  C67  1  0.12713419  0.19875387  0.16634994  1  0  -0.098863  0  3.735653  0  0  -0.11903  0  3.985637  0  0  -0.121313  0  4.003945  0  0  -0.090041  -0.117327  0  3.973206  0
C  C68  1  0.75425159  0.82456256  0.93342276  1  0  -0.069129  0  3.791446  0  0  -0.084126  0  4.045501  0  0  -0.083307  0  4.062922  0  0  -0.094943  -0.084832  0  4.033809  0
C  C69  1  0.24575052  0.17543419  0.06657670  1  0  -0.069138  0  3.79124  0  0  -0.08411  0  4.045328  0  0  -0.083288  0  4.062745  0  0  -0.094987  -0.08482  0  4.033638  0
C  C70  1  0.55456102  0.84856850  0.94517250  1  0  -0.093724  0  3.811428  0  0  -0.108046  0  4.065305  0  0  -0.109937  0  4.084366  0  0  -0.102939  -0.106829  0  4.052586  0
C  C71  1  0.44544285  0.15142724  0.05482603  1  0  -0.093722  0  3.811183  0  0  -0.108139  0  4.065039  0  0  -0.110031  0  4.084098  0  0  -0.102945  -0.106914  0  4.052316  0
C  C72  1  0.47695622  0.84783211  0.85674471  1  0  -0.074764  0  3.761513  0  0  -0.097458  0  4.012113  0  0  -0.097068  0  4.031126  0  0  -0.088474  -0.09753  0  3.99886  0
C  C73  1  0.52304651  0.15216668  0.14325455  1  0  -0.07464  0  3.761327  0  0  -0.097317  0  4.011969  0  0  -0.096927  0  4.030981  0  0  -0.08844  -0.097391  0  3.998716  0
C  C74  1  0.93397388  0.78641775  0.63791476  1  0  0.684412  0  3.898468  0  0  0.627793  0  4.207692  0  0  0.66229  0  4.197437  0  0  0.21135  0.60417  0  4.213966  0
C  C75  1  0.06601802  0.21359133  0.36207750  1  0  0.684735  0  3.897437  0  0  0.627751  0  4.207254  0  0  0.662238  0  4.197013  0  0  0.211304  0.604131  0  4.213527  0
C  C76  1  0.49468351  0.83999118  0.66404276  1  0  0.637291  0  3.930326  0  0  0.584983  0  4.22655  0  0  0.619688  0  4.218622  0  0  0.19857  0.561753  0  4.230657  0
C  C77  1  0.50531566  0.16000969  0.33595373  1  0  0.637319  0  3.930028  0  0  0.585017  0  4.226256  0  0  0.619722  0  4.218324  0  0  0.198583  0.561786  0  4.230368  0
N  N78  1  0.36877642  0.78637955  0.39383250  1  0  -0.338918  0  3.250562  0  0  -0.260272  0  3.523005  0  0  -0.281517  0  3.540459  0  0  -0.332403  -0.245707  0  3.510817  0
N  N79  1  0.63121758  0.21362027  0.60616701  1  0  -0.33894  0  3.250644  0  0  -0.260279  0  3.523039  0  0  -0.281524  0  3.540498  0  0  -0.33238  -0.245706  0  3.510831  0
N  N80  1  0.13059730  0.12268448  0.64511708  1  0  -0.332568  0  3.225692  0  0  -0.255735  0  3.491648  0  0  -0.276819  0  3.511059  0  0  -0.329663  -0.241127  0  3.478188  0
N  N81  1  0.86940206  0.87731222  0.35488658  1  0  -0.332666  0  3.225807  0  0  -0.255819  0  3.491715  0  0  -0.276918  0  3.511182  0  0  -0.329748  -0.241211  0  3.478255  0
O  O82  1  0.33891402  0.80484736  0.67942327  1  0  -0.623281  0  1.965024  0  0  -0.567362  0  2.203489  0  0  -0.592903  0  2.194335  0  0  -0.318352  -0.550101  0  2.209066  0
O  O83  1  0.66108757  0.19515449  0.32057594  1  0  -0.623226  0  1.964892  0  0  -0.567324  0  2.203395  0  0  -0.59286  0  2.194236  0  0  -0.31831  -0.550063  0  2.208978  0
O  O84  1  0.56399223  0.89133837  0.57524694  1  0  -0.67858  0  2.078816  0  0  -0.605941  0  2.346782  0  0  -0.636667  0  2.335021  0  0  -0.332136  -0.58404  0  2.353239  0
O  O85  1  0.43600659  0.10866348  0.42475339  1  0  -0.678608  0  2.078554  0  0  -0.605961  0  2.346511  0  0  -0.636688  0  2.334751  0  0  -0.332176  -0.584058  0  2.352969  0
O  O86  1  0.96062472  0.89804066  0.58918547  1  0  -0.716183  0  2.098512  0  0  -0.638495  0  2.381968  0  0  -0.67087  0  2.367351  0  0  -0.349869  -0.615502  0  2.391388  0
O  O87  1  0.03937446  0.10197138  0.41081342  1  0  -0.716383  0  2.098217  0  0  -0.63859  0  2.381855  0  0  -0.670955  0  2.367237  0  0  -0.349928  -0.615598  0  2.391277  0
O  O88  1  0.01737646  0.66787939  0.60954670  1  0  -0.577277  0  1.890873  0  0  -0.532215  0  2.102919  0  0  -0.555362  0  2.094506  0  0  -0.301555  -0.515304  0  2.107873  0
O  O89  1  0.98260452  0.33213281  0.39044134  1  0  -0.577322  0  1.89038  0  0  -0.532066  0  2.102541  0  0  -0.555237  0  2.09417  0  0  -0.30147  -0.515165  0  2.107507  0
