# generated using pymatgen
data_CdH10C9N2Cl2O3
_symmetry_space_group_name_H-M   'P 1'
_cell_length_a   6.99699522
_cell_length_b   12.69053673
_cell_length_c   14.11148820
_cell_angle_alpha   90.00013739
_cell_angle_beta   94.06684582
_cell_angle_gamma   89.99991570
_symmetry_Int_Tables_number   1
_chemical_formula_structural   CdH10C9N2Cl2O3
_chemical_formula_sum   'Cd4 H40 C36 N8 Cl8 O12'
_cell_volume   1249.88324662
_cell_formula_units_Z   4
loop_
 _symmetry_equiv_pos_site_id
 _symmetry_equiv_pos_as_xyz
  1  'x, y, z'
loop_
 _atom_site_type_symbol
 _atom_site_label
 _atom_site_symmetry_multiplicity
 _atom_site_fract_x
 _atom_site_fract_y
 _atom_site_fract_z
 _atom_site_occupancy
 _atom_site_hle17_bader_spin_density
 _atom_site_hle17_ddec_charge
 _atom_site_hle17_ddec_spin_density
 _atom_site_hle17_ddec_sum_bond_order
 _atom_site_hle17_magmom
 _atom_site_hse06_10hf_bader_spin_density
 _atom_site_hse06_10hf_ddec_charge
 _atom_site_hse06_10hf_ddec_spin_density
 _atom_site_hse06_10hf_ddec_sum_bond_order
 _atom_site_hse06_10hf_magmom
 _atom_site_hse06_bader_spin_density
 _atom_site_hse06_ddec_charge
 _atom_site_hse06_ddec_spin_density
 _atom_site_hse06_ddec_sum_bond_order
 _atom_site_hse06_magmom
 _atom_site_pbe_bader_spin_density
 _atom_site_pbe_cm5_charge
 _atom_site_pbe_ddec_charge
 _atom_site_pbe_ddec_spin_density
 _atom_site_pbe_ddec_sum_bond_order
 _atom_site_pbe_magmom
Cd  Cd0  1  0.83881218  0.15972850  0.27665386  1  0  1.123469  0  1.777752  0  0  0.955793  0  2.243885  0  0  1.008282  0  2.191903  0  0  0.687159  0.918305  0  2.279509  0
Cd  Cd1  1  0.66118579  0.65973008  0.72334676  1  0  1.12345  0  1.777805  0  0  0.955769  0  2.243926  0  0  1.008256  0  2.19195  0  0  0.687163  0.918281  0  2.279546  0
Cd  Cd2  1  0.16118750  0.84027032  0.72334555  1  0  1.123432  0  1.777857  0  0  0.955742  0  2.243981  0  0  1.008229  0  2.192002  0  0  0.687168  0.918254  0  2.279607  0
Cd  Cd3  1  0.33880816  0.34026953  0.27665388  1  0  1.123439  0  1.777838  0  0  0.955753  0  2.24398  0  0  1.008246  0  2.191997  0  0  0.687154  0.918265  0  2.279601  0
H  H4  1  0.46561953  0.77753966  0.47236197  1  0  0.129172  0  0.943674  0  0  0.137171  0  1.006553  0  0  0.140599  0  1.003519  0  0  0.112964  0.134592  0  1.008877  0
H  H5  1  0.03437917  0.27753978  0.52764026  1  0  0.129102  0  0.943714  0  0  0.137199  0  1.006499  0  0  0.14063  0  1.003457  0  0  0.112973  0.134615  0  1.008821  0
H  H6  1  0.53437873  0.22246152  0.52763881  1  0  0.12915  0  0.943698  0  0  0.137151  0  1.006572  0  0  0.14058  0  1.003537  0  0  0.112952  0.134571  0  1.008895  0
H  H7  1  0.96561909  0.72246140  0.47236123  1  0  0.129188  0  0.943682  0  0  0.137185  0  1.006563  0  0  0.140614  0  1.003526  0  0  0.112949  0.134607  0  1.008888  0
H  H8  1  0.48391502  0.00514648  0.24468039  1  0  0.090123  0  0.959874  0  0  0.09602  0  1.03123  0  0  0.098685  0  1.028535  0  0  0.107784  0.094132  0  1.033108  0
H  H9  1  0.01608145  0.50514906  0.75532047  1  0  0.09014  0  0.959818  0  0  0.096033  0  1.031189  0  0  0.098696  0  1.028496  0  0  0.107794  0.094146  0  1.033063  0
H  H10  1  0.51608608  0.99485155  0.75531765  1  0  0.090164  0  0.959843  0  0  0.096058  0  1.031203  0  0  0.098722  0  1.028511  0  0  0.107802  0.094169  0  1.033083  0
H  H11  1  0.98390822  0.49485055  0.24468145  1  0  0.090132  0  0.959836  0  0  0.096028  0  1.031185  0  0  0.098694  0  1.028488  0  0  0.107776  0.094137  0  1.033066  0
H  H12  1  0.86796015  0.03445430  0.48022301  1  0  0.092363  0  0.9469  0  0  0.098026  0  1.01574  0  0  0.101271  0  1.011762  0  0  0.118549  0.095573  0  1.018761  0
H  H13  1  0.63203525  0.53445301  0.51977726  1  0  0.092404  0  0.946797  0  0  0.098058  0  1.015643  0  0  0.101306  0  1.011662  0  0  0.118555  0.095601  0  1.018667  0
H  H14  1  0.13203666  0.96554766  0.51977631  1  0  0.092415  0  0.946824  0  0  0.098078  0  1.015668  0  0  0.101323  0  1.011689  0  0  0.118572  0.095626  0  1.01869  0
H  H15  1  0.36795727  0.46554502  0.48022262  1  0  0.092395  0  0.946891  0  0  0.09806  0  1.015715  0  0  0.101305  0  1.011736  0  0  0.118553  0.095608  0  1.018734  0
H  H16  1  0.16949900  0.08257584  0.15112322  1  0  0.040874  0  0.956229  0  0  0.04521  0  1.037143  0  0  0.046753  0  1.032218  0  0  0.110009  0.043824  0  1.040886  0
H  H17  1  0.33050012  0.58257368  0.84887435  1  0  0.040819  0  0.956332  0  0  0.045168  0  1.037222  0  0  0.046709  0  1.032295  0  0  0.110002  0.043783  0  1.040962  0
H  H18  1  0.83050209  0.91742535  0.84887482  1  0  0.04086  0  0.956315  0  0  0.045205  0  1.03721  0  0  0.046749  0  1.032283  0  0  0.110001  0.043818  0  1.040951  0
H  H19  1  0.66949669  0.41742514  0.15112496  1  0  0.04084  0  0.956322  0  0  0.045189  0  1.037218  0  0  0.046734  0  1.032291  0  0  0.110006  0.043802  0  1.040957  0
H  H20  1  0.05975575  0.78023269  0.11530591  1  0  0.081718  0  0.956675  0  0  0.099367  0  1.028684  0  0  0.100118  0  1.027988  0  0  0.091624  0.098759  0  1.029228  0
H  H21  1  0.44026583  0.28023501  0.88469354  1  0  0.081713  0  0.956738  0  0  0.099383  0  1.028706  0  0  0.100135  0  1.028009  0  0  0.091648  0.098772  0  1.029256  0
H  H22  1  0.94026541  0.21976455  0.88469421  1  0  0.081745  0  0.95671  0  0  0.099417  0  1.028676  0  0  0.100169  0  1.027982  0  0  0.09166  0.098804  0  1.029225  0
H  H23  1  0.55973384  0.71976381  0.11530587  1  0  0.081732  0  0.956708  0  0  0.099407  0  1.028675  0  0  0.100162  0  1.02798  0  0  0.091663  0.098793  0  1.029226  0
H  H24  1  0.00880403  0.82008169  0.99476105  1  0  0.105617  0  0.957115  0  0  0.125511  0  1.022419  0  0  0.125812  0  1.022849  0  0  0.097153  0.125109  0  1.022309  0
H  H25  1  0.49120887  0.32008556  0.00523820  1  0  0.105606  0  0.95719  0  0  0.125501  0  1.022481  0  0  0.125802  0  1.022908  0  0  0.097157  0.125101  0  1.022369  0
H  H26  1  0.99121140  0.17991477  0.00523817  1  0  0.105609  0  0.957204  0  0  0.125539  0  1.022457  0  0  0.125866  0  1.022861  0  0  0.097169  0.125137  0  1.022345  0
H  H27  1  0.50878794  0.67991405  0.99476183  1  0  0.105596  0  0.95718  0  0  0.125505  0  1.022462  0  0  0.125815  0  1.022884  0  0  0.097161  0.125103  0  1.022349  0
H  H28  1  0.85793936  0.86302000  0.08574492  1  0  0.113183  0  0.93678  0  0  0.133425  0  0.996308  0  0  0.135427  0  0.994756  0  0  0.108194  0.131903  0  0.997485  0
H  H29  1  0.64207388  0.36302737  0.91425523  1  0  0.113339  0  0.93661  0  0  0.133457  0  0.996253  0  0  0.135458  0  0.994701  0  0  0.108202  0.131933  0  0.997429  0
H  H30  1  0.14207465  0.13697251  0.91425497  1  0  0.113329  0  0.9366  0  0  0.133431  0  0.996269  0  0  0.135431  0  0.994719  0  0  0.108199  0.13191  0  0.99744  0
H  H31  1  0.35792294  0.63697224  0.08574550  1  0  0.113286  0  0.936625  0  0  0.133385  0  0.9963  0  0  0.135387  0  0.994749  0  0  0.108184  0.131863  0  0.997471  0
H  H32  1  0.38351956  0.01378344  0.07022383  1  0  0.103767  0  0.958546  0  0  0.123898  0  1.023249  0  0  0.124566  0  1.023279  0  0  0.1028  0.123278  0  1.023372  0
H  H33  1  0.11647974  0.51377851  0.92977573  1  0  0.103785  0  0.958528  0  0  0.123922  0  1.02322  0  0  0.12459  0  1.02325  0  0  0.102807  0.1233  0  1.023341  0
H  H34  1  0.61648442  0.98622011  0.92977643  1  0  0.103777  0  0.958505  0  0  0.123914  0  1.023201  0  0  0.124582  0  1.023233  0  0  0.102815  0.123291  0  1.023323  0
H  H35  1  0.88351707  0.48621952  0.07022359  1  0  0.103769  0  0.95853  0  0  0.123908  0  1.023223  0  0  0.124578  0  1.023253  0  0  0.102803  0.123284  0  1.023344  0
H  H36  1  0.30701832  0.92442307  0.97631478  1  0  0.111422  0  0.954236  0  0  0.12856  0  1.01965  0  0  0.129634  0  1.019759  0  0  0.099223  0.127687  0  1.019704  0
H  H37  1  0.19298715  0.42441778  0.02368303  1  0  0.111413  0  0.954311  0  0  0.128573  0  1.019686  0  0  0.129647  0  1.019797  0  0  0.099219  0.127699  0  1.01974  0
H  H38  1  0.69298994  0.07558048  0.02368421  1  0  0.111411  0  0.954248  0  0  0.128546  0  1.019664  0  0  0.129621  0  1.019772  0  0  0.099211  0.127672  0  1.019717  0
H  H39  1  0.80700823  0.57558025  0.97631624  1  0  0.111427  0  0.954258  0  0  0.128563  0  1.019671  0  0  0.12964  0  1.01978  0  0  0.099227  0.127687  0  1.019723  0
H  H40  1  0.40091809  0.87474310  0.08872105  1  0  0.089151  0  0.949373  0  0  0.108525  0  1.015611  0  0  0.109188  0  1.015624  0  0  0.095485  0.107947  0  1.015679  0
H  H41  1  0.09909036  0.37473867  0.91127605  1  0  0.08913  0  0.949384  0  0  0.108472  0  1.015665  0  0  0.109138  0  1.015676  0  0  0.095444  0.107894  0  1.015733  0
H  H42  1  0.59909161  0.12526123  0.91127799  1  0  0.089128  0  0.949399  0  0  0.108474  0  1.015669  0  0  0.10914  0  1.01568  0  0  0.095445  0.107895  0  1.015736  0
H  H43  1  0.90090501  0.62526093  0.08872322  1  0  0.089128  0  0.949431  0  0  0.108475  0  1.015697  0  0  0.109144  0  1.015707  0  0  0.095453  0.107897  0  1.015763  0
C  C44  1  0.76453334  0.85400374  0.58047153  1  0  0.666199  0  3.922552  0  0  0.612507  0  4.220279  0  0  0.648419  0  4.212843  0  0  0.207428  0.58817  0  4.224456  0
C  C45  1  0.73546418  0.35400262  0.41953020  1  0  0.66625  0  3.922666  0  0  0.612599  0  4.220348  0  0  0.648512  0  4.212903  0  0  0.207409  0.588261  0  4.224522  0
C  C46  1  0.23546491  0.14599665  0.41952854  1  0  0.666199  0  3.922697  0  0  0.612504  0  4.2204  0  0  0.648419  0  4.212958  0  0  0.207373  0.588166  0  4.224576  0
C  C47  1  0.26453408  0.64599856  0.58047129  1  0  0.666234  0  3.922616  0  0  0.612531  0  4.220337  0  0  0.648443  0  4.212898  0  0  0.207386  0.588193  0  4.224513  0
C  C48  1  0.67855254  0.89968021  0.48779844  1  0  -0.100527  0  3.719976  0  0  -0.071605  0  3.957032  0  0  -0.084612  0  3.980976  0  0  -0.0124  -0.063482  0  3.94117  0
C  C49  1  0.82144486  0.39967927  0.51220268  1  0  -0.100532  0  3.720049  0  0  -0.071663  0  3.957166  0  0  -0.084669  0  3.981109  0  0  -0.012423  -0.063541  0  3.941299  0
C  C50  1  0.32144857  0.10032097  0.51220102  1  0  -0.100606  0  3.720039  0  0  -0.071612  0  3.956997  0  0  -0.08462  0  3.980941  0  0  -0.012398  -0.063488  0  3.941135  0
C  C51  1  0.17855196  0.60032113  0.48779876  1  0  -0.10057  0  3.720036  0  0  -0.071603  0  3.957021  0  0  -0.08461  0  3.980963  0  0  -0.012409  -0.06348  0  3.941158  0
C  C52  1  0.52479864  0.84701734  0.44024567  1  0  -0.074675  0  3.704811  0  0  -0.116889  0  3.958625  0  0  -0.111525  0  3.974258  0  0  -0.069161  -0.119942  0  3.948011  0
C  C53  1  0.97519889  0.34701719  0.55975534  1  0  -0.074632  0  3.704842  0  0  -0.116914  0  3.958685  0  0  -0.111554  0  3.974319  0  0  -0.06917  -0.119962  0  3.948062  0
C  C54  1  0.47520247  0.15298384  0.55975379  1  0  -0.07453  0  3.704752  0  0  -0.116759  0  3.958563  0  0  -0.111396  0  3.974196  0  0  -0.069092  -0.119812  0  3.947945  0
C  C55  1  0.02479792  0.65298399  0.44024469  1  0  -0.074797  0  3.704727  0  0  -0.117018  0  3.958568  0  0  -0.111654  0  3.974201  0  0  -0.069192  -0.120072  0  3.947956  0
C  C56  1  0.45200526  0.88513700  0.35283082  1  0  0.079449  0  3.818704  0  0  0.093869  0  4.091382  0  0  0.091878  0  4.112014  0  0  0.012794  0.094673  0  4.077544  0
C  C57  1  0.04799031  0.38513664  0.64717012  1  0  0.079521  0  3.818701  0  0  0.093904  0  4.091439  0  0  0.091912  0  4.112076  0  0  0.012811  0.09471  0  4.077596  0
C  C58  1  0.54799442  0.11486418  0.64716930  1  0  0.079388  0  3.818694  0  0  0.093778  0  4.091424  0  0  0.091786  0  4.112057  0  0  0.012737  0.094583  0  4.077583  0
C  C59  1  0.95200507  0.61486375  0.35282915  1  0  0.079572  0  3.818521  0  0  0.093935  0  4.091267  0  0  0.091943  0  4.111897  0  0  0.012843  0.094733  0  4.077435  0
C  C60  1  0.53537486  0.97321042  0.31349179  1  0  0.07375  0  3.695435  0  0  0.033447  0  3.947126  0  0  0.041359  0  3.963477  0  0  0.042215  0.027919  0  3.936875  0
C  C61  1  0.96462237  0.47320982  0.68650948  1  0  0.073678  0  3.695361  0  0  0.033349  0  3.947102  0  0  0.041277  0  3.963426  0  0  0.042169  0.027824  0  3.936834  0
C  C62  1  0.46462624  0.02678919  0.68650696  1  0  0.073677  0  3.69539  0  0  0.033363  0  3.947118  0  0  0.041281  0  3.963458  0  0  0.042194  0.027837  0  3.93686  0
C  C63  1  0.03537303  0.52678821  0.31349262  1  0  0.073725  0  3.695462  0  0  0.033429  0  3.947155  0  0  0.041341  0  3.963508  0  0  0.042236  0.027905  0  3.936898  0
C  C64  1  0.75102366  0.98927208  0.44541317  1  0  0.131206  0  3.64816  0  0  0.08611  0  3.90331  0  0  0.096075  0  3.919187  0  0  0.053314  0.079711  0  3.892493  0
C  C65  1  0.74897639  0.48927288  0.55458752  1  0  0.131162  0  3.648082  0  0  0.086093  0  3.90321  0  0  0.096057  0  3.919088  0  0  0.053319  0.079696  0  3.892389  0
C  C66  1  0.24897601  0.01072910  0.55458624  1  0  0.131148  0  3.648089  0  0  0.086023  0  3.903227  0  0  0.095988  0  3.919105  0  0  0.053285  0.079622  0  3.892413  0
C  C67  1  0.25102044  0.51072830  0.44541392  1  0  0.131142  0  3.648149  0  0  0.086046  0  3.90325  0  0  0.096013  0  3.919124  0  0  0.053289  0.079647  0  3.892431  0
C  C68  1  0.06338645  0.01858409  0.13898558  1  0  0.390207  0  3.807079  0  0  0.313619  0  4.099611  0  0  0.342644  0  4.099936  0  0  0.166626  0.294199  0  4.098795  0
C  C69  1  0.43661568  0.51858266  0.86101124  1  0  0.390248  0  3.807134  0  0  0.313659  0  4.099664  0  0  0.34269  0  4.099983  0  0  0.166651  0.29424  0  4.098842  0
C  C70  1  0.93661750  0.98141631  0.86101184  1  0  0.390052  0  3.807169  0  0  0.313463  0  4.099678  0  0  0.34249  0  4.100002  0  0  0.166565  0.294055  0  4.098852  0
C  C71  1  0.56338113  0.48141616  0.13898878  1  0  0.390187  0  3.80707  0  0  0.313592  0  4.09959  0  0  0.342607  0  4.099919  0  0  0.166605  0.294183  0  4.098762  0
C  C72  1  0.00501525  0.84521572  0.06915887  1  0  -0.171833  0  3.653473  0  0  -0.27282  0  3.899934  0  0  -0.269209  0  3.909422  0  0  -0.138979  -0.274956  0  3.893525  0
C  C73  1  0.49499902  0.34521811  0.93084119  1  0  -0.171986  0  3.65362  0  0  -0.27287  0  3.900041  0  0  -0.269261  0  3.909533  0  0  -0.139048  -0.275  0  3.893629  0
C  C74  1  0.99500162  0.15478152  0.93084182  1  0  -0.172031  0  3.653606  0  0  -0.272945  0  3.900041  0  0  -0.269357  0  3.909511  0  0  -0.139076  -0.275067  0  3.893627  0
C  C75  1  0.50499779  0.65478070  0.06915813  1  0  -0.171904  0  3.653602  0  0  -0.272803  0  3.900041  0  0  -0.269214  0  3.909536  0  0  -0.139038  -0.274925  0  3.893626  0
C  C76  1  0.31452789  0.93776958  0.05341568  1  0  -0.178975  0  3.654588  0  0  -0.278589  0  3.900055  0  0  -0.275886  0  3.911297  0  0  -0.137667  -0.280082  0  3.892387  0
C  C77  1  0.18547900  0.43776675  0.94658362  1  0  -0.17891  0  3.654627  0  0  -0.278524  0  3.900088  0  0  -0.275823  0  3.911326  0  0  -0.137575  -0.280018  0  3.892422  0
C  C78  1  0.68547894  0.06223397  0.94658326  1  0  -0.178882  0  3.654535  0  0  -0.278498  0  3.900025  0  0  -0.275797  0  3.911264  0  0  -0.137573  -0.27998  0  3.892353  0
C  C79  1  0.81452069  0.56223364  0.05341721  1  0  -0.178859  0  3.654617  0  0  -0.278472  0  3.900095  0  0  -0.275783  0  3.911337  0  0  -0.137574  -0.279956  0  3.892423  0
N  N80  1  0.68238581  0.02371945  0.35952090  1  0  -0.29415  0  3.230023  0  0  -0.219522  0  3.496921  0  0  -0.239222  0  3.51513  0  0  -0.317954  -0.206001  0  3.484092  0
N  N81  1  0.81760963  0.52371990  0.64048076  1  0  -0.294107  0  3.229975  0  0  -0.219424  0  3.496772  0  0  -0.239126  0  3.514985  0  0  -0.317924  -0.205904  0  3.483941  0
N  N82  1  0.31761100  0.97628173  0.64047842  1  0  -0.294091  0  3.229925  0  0  -0.219437  0  3.496794  0  0  -0.239137  0  3.515005  0  0  -0.317945  -0.205917  0  3.483966  0
N  N83  1  0.18238290  0.47627971  0.35952125  1  0  -0.294101  0  3.229978  0  0  -0.219445  0  3.496821  0  0  -0.239142  0  3.515025  0  0  -0.317947  -0.205927  0  3.483989  0
N  N84  1  0.12285315  0.93838591  0.08698448  1  0  -0.096433  0  3.528945  0  0  0.008243  0  3.761127  0  0  -0.012479  0  3.787659  0  0  -0.288017  0.022133  0  3.742739  0
N  N85  1  0.37715230  0.43838520  0.91301477  1  0  -0.096437  0  3.529055  0  0  0.008232  0  3.761231  0  0  -0.012492  0  3.787766  0  0  -0.288017  0.022116  0  3.742844  0
N  N86  1  0.87715512  0.06161291  0.91301592  1  0  -0.09639  0  3.52902  0  0  0.008295  0  3.761187  0  0  -0.012429  0  3.78773  0  0  -0.288013  0.022168  0  3.742803  0
N  N87  1  0.62284307  0.56161283  0.08698379  1  0  -0.09654  0  3.529159  0  0  0.008148  0  3.761328  0  0  -0.01256  0  3.787868  0  0  -0.288039  0.022022  0  3.74294  0
Cl  Cl88  1  0.26211589  0.82197024  0.29214858  1  0  -0.070135  0  1.37905  0  0  -0.049937  0  1.604979  0  0  -0.054419  0  1.602049  0  0  0.02224  -0.046654  0  1.6071  0
Cl  Cl89  1  0.23788269  0.32197147  0.70785303  1  0  -0.070173  0  1.379024  0  0  -0.04996  0  1.604973  0  0  -0.054444  0  1.602045  0  0  0.022226  -0.046684  0  1.607091  0
Cl  Cl90  1  0.73788809  0.17802857  0.70785239  1  0  -0.070149  0  1.379005  0  0  -0.049937  0  1.604947  0  0  -0.05442  0  1.602018  0  0  0.022232  -0.046658  0  1.607066  0
Cl  Cl91  1  0.76211126  0.67802893  0.29214761  1  0  -0.07015  0  1.378968  0  0  -0.049935  0  1.604922  0  0  -0.054414  0  1.601993  0  0  0.022233  -0.046652  0  1.607044  0
Cl  Cl92  1  0.51178567  0.20244378  0.17371980  1  0  -0.607745  0  0.94392  0  0  -0.543691  0  1.227801  0  0  -0.563033  0  1.202135  0  0  -0.296736  -0.529712  0  1.245569  0
Cl  Cl93  1  0.98821506  0.70244459  0.82627959  1  0  -0.6077  0  0.943913  0  0  -0.543661  0  1.227807  0  0  -0.563006  0  1.202148  0  0  -0.296722  -0.529681  0  1.245573  0
Cl  Cl94  1  0.48821258  0.79755582  0.82628028  1  0  -0.607711  0  0.943908  0  0  -0.543672  0  1.227807  0  0  -0.563013  0  1.202142  0  0  -0.296727  -0.529692  0  1.245574  0
Cl  Cl95  1  0.01178318  0.29755423  0.17371977  1  0  -0.607686  0  0.943848  0  0  -0.543667  0  1.227769  0  0  -0.563018  0  1.202125  0  0  -0.296738  -0.529687  0  1.245536  0
O  O96  1  0.88626704  0.90816222  0.63005366  1  0  -0.638845  0  1.996829  0  0  -0.58213  0  2.251825  0  0  -0.610328  0  2.242013  0  0  -0.326372  -0.562183  0  2.257664  0
O  O97  1  0.61372320  0.40816107  0.36995078  1  0  -0.638827  0  1.996758  0  0  -0.582181  0  2.251798  0  0  -0.610395  0  2.242019  0  0  -0.326325  -0.562235  0  2.257634  0
O  O98  1  0.11373121  0.09183896  0.36994712  1  0  -0.638815  0  1.996844  0  0  -0.582156  0  2.251891  0  0  -0.610349  0  2.242061  0  0  -0.326343  -0.562211  0  2.25773  0
O  O99  1  0.38626649  0.59183853  0.63005468  1  0  -0.638833  0  1.996795  0  0  -0.582152  0  2.251834  0  0  -0.610355  0  2.24203  0  0  -0.326339  -0.562205  0  2.25767  0
O  O100  1  0.70589804  0.76154119  0.59716872  1  0  -0.647431  0  2.078431  0  0  -0.582749  0  2.346369  0  0  -0.612542  0  2.335377  0  0  -0.333883  -0.561807  0  2.353087  0
O  O101  1  0.79409968  0.26154077  0.40283070  1  0  -0.647459  0  2.078464  0  0  -0.582754  0  2.346344  0  0  -0.612546  0  2.335349  0  0  -0.333898  -0.561813  0  2.353061  0
O  O102  1  0.29410022  0.23846078  0.40283206  1  0  -0.647416  0  2.078476  0  0  -0.582723  0  2.34641  0  0  -0.612518  0  2.335416  0  0  -0.333847  -0.561779  0  2.353126  0
O  O103  1  0.20589712  0.73846120  0.59716791  1  0  -0.647424  0  2.078465  0  0  -0.582728  0  2.346395  0  0  -0.612519  0  2.3354  0  0  -0.333873  -0.561787  0  2.353115  0
O  O104  1  0.90036938  0.02292088  0.17075340  1  0  -0.540961  0  2.084256  0  0  -0.481376  0  2.342404  0  0  -0.507465  0  2.335036  0  0  -0.314398  -0.463099  0  2.346689  0
O  O105  1  0.59963319  0.52292358  0.82924425  1  0  -0.540969  0  2.084275  0  0  -0.481378  0  2.342411  0  0  -0.507467  0  2.335045  0  0  -0.314439  -0.463102  0  2.346691  0
O  O106  1  0.09963602  0.97707636  0.82924479  1  0  -0.540847  0  2.084245  0  0  -0.481254  0  2.342367  0  0  -0.507344  0  2.335003  0  0  -0.314343  -0.46298  0  2.346645  0
O  O107  1  0.40036362  0.47707524  0.17075578  1  0  -0.540926  0  2.084178  0  0  -0.481334  0  2.342315  0  0  -0.507416  0  2.334949  0  0  -0.314397  -0.463061  0  2.346592  0
