# generated using pymatgen
data_CuH8C12S2(NO2)2
_symmetry_space_group_name_H-M   'P 1'
_cell_length_a   9.31572639
_cell_length_b   9.95207339
_cell_length_c   13.03572396
_cell_angle_alpha   67.68501481
_cell_angle_beta   82.33951622
_cell_angle_gamma   69.34001183
_symmetry_Int_Tables_number   1
_chemical_formula_structural   CuH8C12S2(NO2)2
_chemical_formula_sum   'Cu2 H16 C24 S4 N4 O8'
_cell_volume   1046.14334012
_cell_formula_units_Z   2
loop_
 _symmetry_equiv_pos_site_id
 _symmetry_equiv_pos_as_xyz
  1  'x, y, z'
loop_
 _atom_site_type_symbol
 _atom_site_label
 _atom_site_symmetry_multiplicity
 _atom_site_fract_x
 _atom_site_fract_y
 _atom_site_fract_z
 _atom_site_occupancy
 _atom_site_pbe_cm5_charge
 _atom_site_pbe_ddec_charge
 _atom_site_pbe_ddec_spin_density
 _atom_site_pbe_ddec_sum_bond_order
 _atom_site_pbe_magmom
Cu  Cu0  1  0.25022308  0.44062954  0.11848437  1  0.717845  0.760182  -0.740537  2.324381  -0.581
Cu  Cu1  1  0.74971518  0.55931894  0.88152027  1  0.717863  0.760176  -0.740032  2.324008  -0.581
H  H2  1  0.03631143  0.31433670  0.28634024  1  0.120492  0.099238  -0.000534  0.9955  -0.001
H  H3  1  0.46490910  0.39879857  0.28645054  1  0.121203  0.099722  -0.000533  0.994744  -0.001
H  H4  1  0.96366244  0.68564986  0.71372440  1  0.120561  0.099329  -0.000533  0.995403  -0.001
H  H5  1  0.53504597  0.60122809  0.71352451  1  0.121132  0.099527  -0.000533  0.994552  -0.001
H  H6  1  0.83837224  0.39520568  0.42086508  1  0.106644  0.119985  -0.000386  0.988084  0.0
H  H7  1  0.66243806  0.18333042  0.42114680  1  0.106624  0.119998  -0.000388  0.985721  0.0
H  H8  1  0.16165038  0.60483151  0.57921066  1  0.106577  0.120002  -0.000386  0.988014  0.0
H  H9  1  0.33757994  0.81674399  0.57880264  1  0.106748  0.120089  -0.000387  0.985768  0.0
H  H10  1  0.95144623  0.81440569  0.31644637  1  0.103229  0.11509  -0.000317  1.024256  0.0
H  H11  1  0.54770761  0.86926683  0.31622904  1  0.103215  0.114633  -0.000318  1.02407  0.0
H  H12  1  0.04859441  0.18564773  0.68349679  1  0.10336  0.11522  -0.000318  1.024566  0.0
H  H13  1  0.45239218  0.13073118  0.68374858  1  0.103233  0.11459  -0.000318  1.023914  0.0
H  H14  1  0.14722632  0.71197442  0.18848106  1  0.132244  0.115737  -0.000627  0.956739  -0.001
H  H15  1  0.35247148  0.09973632  0.18802838  1  0.132287  0.115419  -0.000628  0.957358  -0.001
H  H16  1  0.85277241  0.28800082  0.81147097  1  0.132204  0.115697  -0.000627  0.956475  -0.001
H  H17  1  0.64757600  0.90022279  0.81196380  1  0.132339  0.115435  -0.000627  0.957614  -0.001
C  C18  1  0.01504285  0.42271589  0.29787739  1  0.04653  0.098017  0.001518  3.967767  0.001
C  C19  1  0.48568870  0.27906443  0.29791006  1  0.043996  0.096357  0.001524  3.965926  0.001
C  C20  1  0.98495211  0.57728118  0.70216656  1  0.04655  0.097899  0.001515  3.967531  0.001
C  C21  1  0.51430284  0.72097239  0.70205920  1  0.044266  0.096827  0.001522  3.965584  0.001
C  C22  1  0.90402752  0.46944913  0.37101895  1  -0.094708  -0.183308  -0.00223  3.977034  -0.003
C  C23  1  0.59643979  0.15912073  0.37115196  1  -0.094316  -0.184038  -0.002234  3.972042  -0.003
C  C24  1  0.09600102  0.53056586  0.62903479  1  -0.094565  -0.183092  -0.002228  3.976339  -0.003
C  C25  1  0.40357817  0.84094173  0.62880021  1  -0.094719  -0.184518  -0.00223  3.972797  -0.003
C  C26  1  0.88086923  0.61173255  0.37989000  1  0.001003  0.095581  0.002815  4.041431  0.002
C  C27  1  0.61901613  0.00814617  0.37994555  1  0.001422  0.09651  0.002828  4.040439  0.002
C  C28  1  0.11917370  0.38829866  0.62012292  1  0.00099  0.095386  0.00281  4.042039  0.002
C  C29  1  0.38103651  0.99189506  0.62002447  1  0.001526  0.096623  0.002822  4.040848  0.002
C  C30  1  0.96771015  0.70214394  0.31329294  1  -0.090807  -0.181844  -0.0023  3.974419  -0.003
C  C31  1  0.53186245  0.98452650  0.31317737  1  -0.091807  -0.183869  -0.002304  3.975244  -0.003
C  C32  1  0.03231849  0.29787881  0.68668344  1  -0.091102  -0.182139  -0.002299  3.975072  -0.003
C  C33  1  0.46820602  0.01547198  0.68680244  1  -0.09183  -0.183668  -0.002301  3.975135  -0.003
C  C34  1  0.07657299  0.64588075  0.24244051  1  0.062709  0.123276  0.001683  3.912057  0.001
C  C35  1  0.42329312  0.11170923  0.24220458  1  0.06218  0.124832  0.001695  3.912848  0.001
C  C36  1  0.92342865  0.35412655  0.75753552  1  0.062815  0.123302  0.001681  3.911909  0.001
C  C37  1  0.57674781  0.88827375  0.75778550  1  0.062136  0.124638  0.00169  3.913228  0.001
C  C38  1  0.00074023  0.58487529  0.97051426  1  0.190394  0.470493  0.005226  4.209095  0.005
C  C39  1  0.49910655  0.44473647  0.97024011  1  0.19159  0.472953  0.005224  4.204906  0.005
C  C40  1  0.99916527  0.41503837  0.02951899  1  0.190206  0.470297  0.00523  4.208488  0.005
C  C41  1  0.50083150  0.55522307  0.02976035  1  0.191391  0.473299  0.00523  4.204096  0.005
S  S42  1  0.74352593  0.66108879  0.47870960  1  0.056173  0.014594  0.0004  2.82689  0.0
S  S43  1  0.75601596  0.86006182  0.47898753  1  0.055151  0.013703  0.000404  2.829082  0.0
S  S44  1  0.25653801  0.33897571  0.52130890  1  0.056078  0.014588  0.000398  2.827055  0.0
S  S45  1  0.24407122  0.14001928  0.52097117  1  0.055269  0.013812  0.000403  2.829199  0.0
N  N46  1  0.10120868  0.50815957  0.23562318  1  -0.343712  -0.24936  -0.035189  3.609494  -0.046
N  N47  1  0.39924974  0.25607638  0.23545017  1  -0.341041  -0.246877  -0.035154  3.608127  -0.046
N  N48  1  0.89878400  0.49181703  0.76438971  1  -0.343737  -0.249286  -0.035148  3.6098  -0.046
N  N49  1  0.60074091  0.74392180  0.76454425  1  -0.341107  -0.246936  -0.035104  3.608157  -0.046
O  O50  1  0.10444141  0.61868636  0.99935887  1  -0.320944  -0.487941  -0.067108  2.305943  -0.096
O  O51  1  0.39573498  0.38189276  0.99900821  1  -0.323033  -0.490991  -0.067139  2.304604  -0.096
O  O52  1  0.89548125  0.38122175  0.00068640  1  -0.320995  -0.487802  -0.067013  2.305719  -0.096
O  O53  1  0.60419813  0.61806027  0.00100933  1  -0.322972  -0.49108  -0.067082  2.304527  -0.096
O  O54  1  0.89998451  0.67812045  0.89779599  1  -0.327682  -0.529116  -0.032794  2.275828  -0.049
O  O55  1  0.59943251  0.42466548  0.89717720  1  -0.326806  -0.52893  -0.032907  2.274187  -0.049
O  O56  1  0.09992803  0.32179500  0.10227332  1  -0.327602  -0.529131  -0.032852  2.274602  -0.049
O  O57  1  0.40045824  0.57531304  0.10281558  1  -0.326689  -0.529132  -0.032972  2.27348  -0.049
