# generated using pymatgen
data_CsPH8C14(SN)2
_symmetry_space_group_name_H-M   'P 1'
_cell_length_a   7.39361892
_cell_length_b   7.94149312
_cell_length_c   13.46971972
_cell_angle_alpha   90.00040160
_cell_angle_beta   105.90356885
_cell_angle_gamma   90.00029171
_symmetry_Int_Tables_number   1
_chemical_formula_structural   CsPH8C14(SN)2
_chemical_formula_sum   'Cs2 P2 H16 C28 S4 N4'
_cell_volume   760.62106590
_cell_formula_units_Z   2
loop_
 _symmetry_equiv_pos_site_id
 _symmetry_equiv_pos_as_xyz
  1  'x, y, z'
loop_
 _atom_site_type_symbol
 _atom_site_label
 _atom_site_symmetry_multiplicity
 _atom_site_fract_x
 _atom_site_fract_y
 _atom_site_fract_z
 _atom_site_occupancy
 _atom_site_hle17_bader_spin_density
 _atom_site_hle17_ddec_charge
 _atom_site_hle17_ddec_spin_density
 _atom_site_hle17_ddec_sum_bond_order
 _atom_site_hle17_magmom
 _atom_site_hse06_10hf_bader_spin_density
 _atom_site_hse06_10hf_ddec_charge
 _atom_site_hse06_10hf_ddec_spin_density
 _atom_site_hse06_10hf_ddec_sum_bond_order
 _atom_site_hse06_10hf_magmom
 _atom_site_hse06_bader_spin_density
 _atom_site_hse06_ddec_charge
 _atom_site_hse06_ddec_spin_density
 _atom_site_hse06_ddec_sum_bond_order
 _atom_site_hse06_magmom
 _atom_site_pbe_bader_spin_density
 _atom_site_pbe_cm5_charge
 _atom_site_pbe_ddec_charge
 _atom_site_pbe_ddec_spin_density
 _atom_site_pbe_ddec_sum_bond_order
 _atom_site_pbe_magmom
Cs  Cs0  1  0.84959531  0.32915553  0.00023493  1  0  0.83704  0  0.727838  0  0  0.744294  0  1.009169  0  0  0.755127  0  0.998331  0  0  0.853905  0.736103  0  1.017313  0
Cs  Cs1  1  0.15040207  0.82915516  0.99976425  1  0  0.837024  0  0.727853  0  0  0.744305  0  1.009143  0  0  0.755139  0  0.998301  0  0  0.853907  0.736113  0  1.017284  0
P  P2  1  0.62726782  0.91820128  0.99981227  1  0  -0.299367  0  2.908609  0  0  -0.3327  0  3.306  0  0  -0.348076  0  3.313457  0  0  -0.256369  -0.322196  0  3.300904  0
P  P3  1  0.37273309  0.41820186  0.00018780  1  0  -0.299376  0  2.908621  0  0  -0.332718  0  3.306001  0  0  -0.348096  0  3.313461  0  0  -0.256374  -0.32222  0  3.300905  0
H  H4  1  0.33392955  0.70189479  0.55709859  1  0  0.099301  0  0.957419  0  0  0.112199  0  1.016278  0  0  0.114586  0  1.015755  0  0  0.100005  0.110483  0  1.016724  0
H  H5  1  0.66606540  0.20189197  0.44289895  1  0  0.099405  0  0.95756  0  0  0.11221  0  1.016501  0  0  0.114597  0  1.015978  0  0  0.100034  0.1105  0  1.016949  0
H  H6  1  0.22338872  0.20191424  0.55741550  1  0  0.099294  0  0.957706  0  0  0.111687  0  1.017149  0  0  0.114091  0  1.016576  0  0  0.100063  0.10999  0  1.017575  0
H  H7  1  0.77661467  0.70193170  0.44258257  1  0  0.099396  0  0.957808  0  0  0.111763  0  1.017246  0  0  0.11417  0  1.016665  0  0  0.10009  0.110068  0  1.017678  0
H  H8  1  0.49941515  0.47711338  0.48779143  1  0  0.085432  0  0.970095  0  0  0.095126  0  1.034743  0  0  0.09743  0  1.034733  0  0  0.094544  0.093487  0  1.03483  0
H  H9  1  0.50058622  0.97711018  0.51220376  1  0  0.085423  0  0.970049  0  0  0.095151  0  1.034657  0  0  0.097455  0  1.034645  0  0  0.094567  0.093513  0  1.034745  0
H  H10  1  0.98832617  0.97724847  0.48819413  1  0  0.08517  0  0.969347  0  0  0.095697  0  1.03306  0  0  0.098015  0  1.03305  0  0  0.094556  0.094063  0  1.03312  0
H  H11  1  0.01166818  0.47726218  0.51180818  1  0  0.085135  0  0.969387  0  0  0.095705  0  1.033058  0  0  0.098023  0  1.033049  0  0  0.094547  0.094074  0  1.033118  0
H  H12  1  0.79268077  0.34777131  0.59909442  1  0  0.083843  0  0.973018  0  0  0.094599  0  1.036912  0  0  0.09644  0  1.037453  0  0  0.094765  0.093232  0  1.036674  0
H  H13  1  0.20731816  0.84776285  0.40090061  1  0  0.083846  0  0.972933  0  0  0.094573  0  1.036867  0  0  0.096403  0  1.037421  0  0  0.094763  0.093214  0  1.036614  0
H  H14  1  0.80600288  0.84840894  0.59942080  1  0  0.082958  0  0.973371  0  0  0.093632  0  1.037618  0  0  0.095472  0  1.038147  0  0  0.094417  0.092334  0  1.03727  0
H  H15  1  0.19399186  0.34841592  0.40058251  1  0  0.083038  0  0.97327  0  0  0.09371  0  1.037517  0  0  0.095553  0  1.038043  0  0  0.094451  0.092409  0  1.037178  0
H  H16  1  0.92476857  0.44264655  0.77977157  1  0  0.09501  0  0.989738  0  0  0.103798  0  1.055985  0  0  0.106475  0  1.05524  0  0  0.09894  0.101884  0  1.056562  0
H  H17  1  0.07522972  0.94264412  0.22022672  1  0  0.095011  0  0.989831  0  0  0.103845  0  1.056025  0  0  0.10648  0  1.055325  0  0  0.098927  0.101934  0  1.056595  0
H  H18  1  0.85453170  0.94316561  0.78014388  1  0  0.094894  0  0.98991  0  0  0.104079  0  1.055697  0  0  0.106662  0  1.054955  0  0  0.098694  0.102246  0  1.056252  0
H  H19  1  0.14546942  0.44317021  0.21985855  1  0  0.094924  0  0.989959  0  0  0.104094  0  1.055749  0  0  0.106678  0  1.055009  0  0  0.0987  0.102259  0  1.056296  0
C  C20  1  0.63733668  0.79520238  0.89009531  1  0  0.098835  0  3.780519  0  0  0.108269  0  4.067898  0  0  0.123907  0  4.079085  0  0  0.092885  0.097964  0  4.059684  0
C  C21  1  0.36265903  0.29520546  0.10990570  1  0  0.098831  0  3.780475  0  0  0.108264  0  4.067889  0  0  0.123895  0  4.079086  0  0  0.092902  0.097971  0  4.059658  0
C  C22  1  0.25273460  0.29529671  0.89049086  1  0  0.099143  0  3.781366  0  0  0.108574  0  4.068326  0  0  0.124284  0  4.079502  0  0  0.093095  0.098205  0  4.06014  0
C  C23  1  0.74726814  0.79530001  0.10951046  1  0  0.099142  0  3.781289  0  0  0.108542  0  4.068307  0  0  0.124253  0  4.079483  0  0  0.093103  0.098176  0  4.060118  0
C  C24  1  0.53623014  0.69705452  0.70796795  1  0  -0.047769  0  3.814309  0  0  -0.031615  0  4.06712  0  0  -0.033336  0  4.090288  0  0  -0.017482  -0.030594  0  4.051499  0
C  C25  1  0.46375914  0.19705522  0.29202427  1  0  -0.047865  0  3.814483  0  0  -0.031722  0  4.067281  0  0  -0.033444  0  4.090453  0  0  -0.017501  -0.030698  0  4.05166  0
C  C26  1  0.17194604  0.19704187  0.70838942  1  0  -0.047491  0  3.81359  0  0  -0.031088  0  4.065593  0  0  -0.03279  0  4.088715  0  0  -0.017109  -0.030109  0  4.050033  0
C  C27  1  0.82806434  0.69705653  0.29161041  1  0  -0.047709  0  3.813887  0  0  -0.031305  0  4.06583  0  0  -0.033007  0  4.088954  0  0  -0.017116  -0.030325  0  4.050275  0
C  C28  1  0.46308052  0.64670552  0.60544177  1  0  -0.114754  0  3.789198  0  0  -0.13476  0  4.040301  0  0  -0.135677  0  4.06034  0  0  -0.101171  -0.133963  0  4.02659  0
C  C29  1  0.53693932  0.14671535  0.39456447  1  0  -0.114929  0  3.788661  0  0  -0.134846  0  4.039761  0  0  -0.135764  0  4.059796  0  0  -0.101218  -0.134056  0  4.026066  0
C  C30  1  0.14266569  0.14663883  0.60580775  1  0  -0.114511  0  3.787121  0  0  -0.134254  0  4.038528  0  0  -0.135139  0  4.058496  0  0  -0.101162  -0.133503  0  4.024901  0
C  C31  1  0.85733305  0.64665863  0.39419533  1  0  -0.114498  0  3.787082  0  0  -0.134227  0  4.038475  0  0  -0.135107  0  4.05844  0  0  -0.101167  -0.133484  0  4.024866  0
C  C32  1  0.55625698  0.51979236  0.56716661  1  0  -0.091073  0  3.794015  0  0  -0.10502  0  4.048959  0  0  -0.107897  0  4.070957  0  0  -0.104956  -0.103082  0  4.033953  0
C  C33  1  0.44373230  0.01977700  0.43283007  1  0  -0.091012  0  3.793812  0  0  -0.104992  0  4.048726  0  0  -0.107866  0  4.070723  0  0  -0.104981  -0.10306  0  4.033732  0
C  C34  1  0.01091949  0.01995304  0.56757006  1  0  -0.090294  0  3.793209  0  0  -0.104769  0  4.047752  0  0  -0.107681  0  4.06985  0  0  -0.104874  -0.102808  0  4.032741  0
C  C35  1  0.98908526  0.51996512  0.43243116  1  0  -0.09044  0  3.7934  0  0  -0.104969  0  4.047982  0  0  -0.107886  0  4.07008  0  0  -0.104945  -0.103008  0  4.032973  0
C  C36  1  0.72125531  0.44677915  0.62984009  1  0  -0.068209  0  3.79471  0  0  -0.084216  0  4.04624  0  0  -0.085285  0  4.068053  0  0  -0.099805  -0.083335  0  4.03139  0
C  C37  1  0.27875004  0.94677823  0.37015928  1  0  -0.068111  0  3.794769  0  0  -0.084096  0  4.046305  0  0  -0.085158  0  4.068112  0  0  -0.099796  -0.083215  0  4.031442  0
C  C38  1  0.90833288  0.94721699  0.63020630  1  0  -0.067146  0  3.794418  0  0  -0.08338  0  4.046861  0  0  -0.084408  0  4.068595  0  0  -0.099521  -0.082564  0  4.032064  0
C  C39  1  0.09165842  0.44723318  0.36979691  1  0  -0.067052  0  3.794604  0  0  -0.083271  0  4.047031  0  0  -0.084302  0  4.068773  0  0  -0.09949  -0.082454  0  4.03222  0
C  C40  1  0.79528520  0.49784842  0.73179434  1  0  -0.161357  0  3.744154  0  0  -0.176795  0  3.989187  0  0  -0.179471  0  4.008462  0  0  -0.104395  -0.174983  0  3.976156  0
C  C41  1  0.20470650  0.99784341  0.26820171  1  0  -0.161401  0  3.743936  0  0  -0.176861  0  3.988923  0  0  -0.179501  0  4.008215  0  0  -0.104343  -0.175056  0  3.975893  0
C  C42  1  0.93624547  0.99826222  0.73221335  1  0  -0.163394  0  3.743266  0  0  -0.179498  0  3.98901  0  0  -0.181999  0  4.008241  0  0  -0.105727  -0.177825  0  3.975992  0
C  C43  1  0.06376312  0.49826699  0.26779118  1  0  -0.163512  0  3.743144  0  0  -0.179625  0  3.988849  0  0  -0.182128  0  4.008083  0  0  -0.105761  -0.177946  0  3.97582  0
C  C44  1  0.70102960  0.62170172  0.77294427  1  0  0.173828  0  3.88763  0  0  0.176163  0  4.129948  0  0  0.180743  0  4.152101  0  0  0.073198  0.173065  0  4.1149  0
C  C45  1  0.29897597  0.12170714  0.22705527  1  0  0.173836  0  3.88779  0  0  0.17615  0  4.130144  0  0  0.180729  0  4.152294  0  0  0.073176  0.173051  0  4.115092  0
C  C46  1  0.07176886  0.12192012  0.77333091  1  0  0.17354  0  3.884775  0  0  0.176383  0  4.126625  0  0  0.180967  0  4.148745  0  0  0.07326  0.173294  0  4.111587  0
C  C47  1  0.92823249  0.62193450  0.22667023  1  0  0.173621  0  3.884701  0  0  0.176551  0  4.126384  0  0  0.181135  0  4.148501  0  0  0.073274  0.173462  0  4.111335  0
S  S48  1  0.44979612  0.84290514  0.77861692  1  0  0.044642  0  2.486186  0  0  0.05624  0  2.799719  0  0  0.053221  0  2.804366  0  0  0.072768  0.058255  0  2.796519  0
S  S49  1  0.55020138  0.34290668  0.22138381  1  0  0.044683  0  2.486255  0  0  0.056295  0  2.799777  0  0  0.053281  0  2.804425  0  0  0.072764  0.058303  0  2.796579  0
S  S50  1  0.32889958  0.34282130  0.77897418  1  0  0.045236  0  2.487953  0  0  0.05711  0  2.801123  0  0  0.054001  0  2.805785  0  0  0.073158  0.059212  0  2.797925  0
S  S51  1  0.67110917  0.84283059  0.22102824  1  0  0.045307  0  2.487962  0  0  0.057169  0  2.801148  0  0  0.054057  0  2.805812  0  0  0.07316  0.05927  0  2.797955  0
N  N52  1  0.75409549  0.67866528  0.87388421  1  0  -0.466135  0  3.164176  0  0  -0.419437  0  3.431397  0  0  -0.434439  0  3.44427  0  0  -0.496806  -0.408954  0  3.422221  0
N  N53  1  0.24589929  0.17866674  0.12611618  1  0  -0.466131  0  3.164186  0  0  -0.419419  0  3.431369  0  0  -0.434416  0  3.444247  0  0  -0.496817  -0.408935  0  3.422181  0
N  N54  1  0.11965976  0.17891516  0.87430927  1  0  -0.466654  0  3.164344  0  0  -0.420309  0  3.43216  0  0  -0.435213  0  3.4447  0  0  -0.498874  -0.409891  0  3.423201  0
N  N55  1  0.88034205  0.67891677  0.12569292  1  0  -0.466596  0  3.164314  0  0  -0.420281  0  3.432118  0  0  -0.435183  0  3.444653  0  0  -0.498859  -0.409865  0  3.423158  0
