# generated using pymatgen
data_CdH6C6(N2O)4
_symmetry_space_group_name_H-M   'P 1'
_cell_length_a   4.95494584
_cell_length_b   7.99541499
_cell_length_c   13.82530758
_cell_angle_alpha   89.99994434
_cell_angle_beta   89.99996955
_cell_angle_gamma   104.51147493
_symmetry_Int_Tables_number   1
_chemical_formula_structural   CdH6C6(N2O)4
_chemical_formula_sum   'Cd2 H12 C12 N16 O8'
_cell_volume   530.24161758
_cell_formula_units_Z   2
loop_
 _symmetry_equiv_pos_site_id
 _symmetry_equiv_pos_as_xyz
  1  'x, y, z'
loop_
 _atom_site_type_symbol
 _atom_site_label
 _atom_site_symmetry_multiplicity
 _atom_site_fract_x
 _atom_site_fract_y
 _atom_site_fract_z
 _atom_site_occupancy
 _atom_site_hle17_bader_spin_density
 _atom_site_hle17_ddec_charge
 _atom_site_hle17_ddec_spin_density
 _atom_site_hle17_ddec_sum_bond_order
 _atom_site_hle17_magmom
 _atom_site_hse06_10hf_bader_spin_density
 _atom_site_hse06_10hf_ddec_charge
 _atom_site_hse06_10hf_ddec_spin_density
 _atom_site_hse06_10hf_ddec_sum_bond_order
 _atom_site_hse06_10hf_magmom
 _atom_site_hse06_bader_spin_density
 _atom_site_hse06_ddec_charge
 _atom_site_hse06_ddec_spin_density
 _atom_site_hse06_ddec_sum_bond_order
 _atom_site_hse06_magmom
 _atom_site_pbe_bader_spin_density
 _atom_site_pbe_cm5_charge
 _atom_site_pbe_ddec_charge
 _atom_site_pbe_ddec_spin_density
 _atom_site_pbe_ddec_sum_bond_order
 _atom_site_pbe_magmom
Cd  Cd0  1  0.00000211  0.49999939  0.50000031  1  0  1.198794  0  1.702241  0  0  1.019551  0  2.164562  0  0  1.073708  0  2.109345  0  0  0.805233  0.980698  0  2.20266  0
Cd  Cd1  1  0.49999883  0.99999915  0.00000039  1  0  1.198814  0  1.702217  0  0  1.019575  0  2.164541  0  0  1.073729  0  2.109327  0  0  0.805248  0.98072  0  2.202641  0
H  H2  1  0.27403755  0.31733994  0.30561623  1  0  0.135949  0  0.948389  0  0  0.13674  0  1.023631  0  0  0.14038  0  1.018927  0  0  0.151964  0.133994  0  1.027129  0
H  H3  1  0.22596389  0.18265946  0.80561672  1  0  0.136022  0  0.948367  0  0  0.136803  0  1.023605  0  0  0.140443  0  1.018901  0  0  0.151968  0.134056  0  1.027105  0
H  H4  1  0.72596121  0.68266141  0.69438284  1  0  0.136051  0  0.948369  0  0  0.136792  0  1.023643  0  0  0.140432  0  1.018939  0  0  0.151973  0.134045  0  1.027141  0
H  H5  1  0.77403786  0.81733930  0.19438308  1  0  0.136045  0  0.948325  0  0  0.136783  0  1.023608  0  0  0.140422  0  1.018906  0  0  0.151966  0.134036  0  1.027106  0
H  H6  1  0.46072784  0.37609433  0.12166224  1  0  0.126819  0  0.949808  0  0  0.129461  0  1.026857  0  0  0.132269  0  1.024969  0  0  0.119976  0.127446  0  1.028297  0
H  H7  1  0.03927402  0.12390545  0.62166208  1  0  0.126829  0  0.949808  0  0  0.129471  0  1.02686  0  0  0.132279  0  1.024971  0  0  0.119979  0.127458  0  1.028299  0
H  H8  1  0.53927040  0.62390572  0.87833756  1  0  0.126831  0  0.949783  0  0  0.129473  0  1.026822  0  0  0.132283  0  1.024932  0  0  0.119974  0.12746  0  1.028262  0
H  H9  1  0.96072825  0.87609461  0.37833772  1  0  0.126829  0  0.949813  0  0  0.129472  0  1.026856  0  0  0.13228  0  1.024967  0  0  0.119975  0.127458  0  1.028295  0
H  H10  1  0.32296571  0.52794816  0.05589514  1  0  0.139371  0  0.911978  0  0  0.151314  0  0.972661  0  0  0.153603  0  0.971734  0  0  0.129608  0.149622  0  0.973486  0
H  H11  1  0.17703510  0.97205027  0.55589620  1  0  0.139379  0  0.911961  0  0  0.151328  0  0.972639  0  0  0.153616  0  0.971714  0  0  0.129612  0.149637  0  0.973465  0
H  H12  1  0.67703252  0.47205190  0.94410393  1  0  0.139374  0  0.911917  0  0  0.151254  0  0.97268  0  0  0.153543  0  0.971756  0  0  0.12958  0.149564  0  0.973505  0
H  H13  1  0.82296463  0.02794850  0.44410432  1  0  0.13937  0  0.911914  0  0  0.151251  0  0.972674  0  0  0.153539  0  0.971752  0  0  0.129573  0.149561  0  0.9735  0
C  C14  1  0.14236008  0.39665146  0.27875534  1  0  0.160438  0  3.602876  0  0  0.077874  0  3.876104  0  0  0.090575  0  3.886986  0  0  0.178096  0.069581  0  3.868821  0
C  C15  1  0.35763178  0.10334413  0.77875657  1  0  0.16037  0  3.602777  0  0  0.077813  0  3.875981  0  0  0.090516  0  3.886861  0  0  0.178088  0.069521  0  3.868698  0
C  C16  1  0.85763307  0.60334601  0.72124302  1  0  0.160382  0  3.602772  0  0  0.077876  0  3.875986  0  0  0.090581  0  3.886864  0  0  0.178127  0.069583  0  3.868703  0
C  C17  1  0.64236646  0.89665593  0.22124323  1  0  0.160433  0  3.602808  0  0  0.077904  0  3.876011  0  0  0.090607  0  3.886892  0  0  0.178145  0.069612  0  3.868728  0
C  C18  1  0.26892845  0.41101395  0.10090322  1  0  -0.192307  0  3.586912  0  0  -0.26217  0  3.829238  0  0  -0.264193  0  3.834808  0  0  -0.050954  -0.260755  0  3.82574  0
C  C19  1  0.23107293  0.08898458  0.60090449  1  0  -0.192275  0  3.586879  0  0  -0.262176  0  3.829219  0  0  -0.264196  0  3.834787  0  0  -0.050948  -0.260766  0  3.82573  0
C  C20  1  0.73106978  0.58898611  0.89909586  1  0  -0.192278  0  3.58691  0  0  -0.262099  0  3.829229  0  0  -0.264123  0  3.8348  0  0  -0.0509  -0.260689  0  3.825736  0
C  C21  1  0.76892881  0.91101418  0.39909604  1  0  -0.192261  0  3.586864  0  0  -0.262096  0  3.829189  0  0  -0.264121  0  3.834763  0  0  -0.050895  -0.260685  0  3.825695  0
C  C22  1  0.08111644  0.26426675  0.04111220  1  0  0.704923  0  3.878636  0  0  0.651945  0  4.190667  0  0  0.686522  0  4.182425  0  0  0.211155  0.628377  0  4.195355  0
C  C23  1  0.41887956  0.23573319  0.54111191  1  0  0.704926  0  3.878662  0  0  0.651966  0  4.190667  0  0  0.686546  0  4.182422  0  0  0.211168  0.6284  0  4.195354  0
C  C24  1  0.91887926  0.73573201  0.95888760  1  0  0.704881  0  3.878682  0  0  0.6519  0  4.190709  0  0  0.686479  0  4.182465  0  0  0.211141  0.628334  0  4.195396  0
C  C25  1  0.58111666  0.76426686  0.45888717  1  0  0.70491  0  3.87859  0  0  0.651893  0  4.190676  0  0  0.686471  0  4.182434  0  0  0.211117  0.628327  0  4.195363  0
N  N26  1  0.13221800  0.45232420  0.18740763  1  0  0.069042  0  3.547313  0  0  0.183493  0  3.738821  0  0  0.174578  0  3.758246  0  0  -0.112029  0.188901  0  3.726205  0
N  N27  1  0.36778371  0.04767544  0.68740744  1  0  0.068964  0  3.547372  0  0  0.183466  0  3.738837  0  0  0.174548  0  3.758265  0  0  -0.112025  0.188875  0  3.726223  0
N  N28  1  0.86778024  0.54767586  0.81259217  1  0  0.068978  0  3.547299  0  0  0.183459  0  3.738748  0  0  0.174536  0  3.758186  0  0  -0.112053  0.188868  0  3.726133  0
N  N29  1  0.63221856  0.95232461  0.31259236  1  0  0.068931  0  3.547394  0  0  0.183478  0  3.73878  0  0  0.174565  0  3.758201  0  0  -0.112026  0.188887  0  3.726164  0
N  N30  1  0.94630520  0.55071364  0.18338519  1  0  -0.080953  0  2.845563  0  0  -0.093106  0  3.127987  0  0  -0.091433  0  3.137382  0  0  -0.06511  -0.094151  0  3.121837  0
N  N31  1  0.55369539  0.94928579  0.68338629  1  0  -0.0809  0  2.845641  0  0  -0.093082  0  3.128066  0  0  -0.091408  0  3.13746  0  0  -0.065111  -0.094126  0  3.121916  0
N  N32  1  0.05369356  0.44928770  0.81661461  1  0  -0.080939  0  2.84554  0  0  -0.093123  0  3.127984  0  0  -0.091448  0  3.137378  0  0  -0.065117  -0.094168  0  3.121834  0
N  N33  1  0.44630636  0.05071297  0.31661424  1  0  -0.080971  0  2.845675  0  0  -0.093187  0  3.12812  0  0  -0.091513  0  3.137514  0  0  -0.065163  -0.094232  0  3.121969  0
N  N34  1  0.84777317  0.55429569  0.27034095  1  0  -0.070623  0  2.943156  0  0  -0.06801  0  3.250804  0  0  -0.067081  0  3.262334  0  0  -0.078392  -0.068431  0  3.243023  0
N  N35  1  0.65222774  0.94570486  0.77034203  1  0  -0.070682  0  2.943294  0  0  -0.068062  0  3.250947  0  0  -0.067135  0  3.262478  0  0  -0.078438  -0.068484  0  3.243166  0
N  N36  1  0.15222761  0.44570566  0.72965885  1  0  -0.070614  0  2.94307  0  0  -0.067992  0  3.250727  0  0  -0.067064  0  3.262255  0  0  -0.078407  -0.068413  0  3.242945  0
N  N37  1  0.34777252  0.05429519  0.22965922  1  0  -0.070571  0  2.943238  0  0  -0.067938  0  3.250883  0  0  -0.06701  0  3.262414  0  0  -0.07838  -0.068359  0  3.243101  0
N  N38  1  0.96539088  0.45916256  0.33105715  1  0  -0.277618  0  3.134537  0  0  -0.22069  0  3.439569  0  0  -0.237692  0  3.452323  0  0  -0.22585  -0.209259  0  3.43087  0
N  N39  1  0.53461056  0.04083806  0.83105776  1  0  -0.277583  0  3.13449  0  0  -0.220662  0  3.439524  0  0  -0.237663  0  3.452277  0  0  -0.225826  -0.20923  0  3.430826  0
N  N40  1  0.03460937  0.54083749  0.66894192  1  0  -0.277643  0  3.134512  0  0  -0.22073  0  3.439538  0  0  -0.23773  0  3.452289  0  0  -0.225866  -0.209297  0  3.43084  0
N  N41  1  0.46539022  0.95916328  0.16894276  1  0  -0.277661  0  3.134573  0  0  -0.220747  0  3.4396  0  0  -0.237749  0  3.452354  0  0  -0.225865  -0.209316  0  3.430902  0
O  O42  1  0.20163465  0.18584945  0.98280555  1  0  -0.661293  0  2.029819  0  0  -0.603511  0  2.29802  0  0  -0.631418  0  2.285089  0  0  -0.333082  -0.583644  0  2.306063  0
O  O43  1  0.29836840  0.31414959  0.48280578  1  0  -0.661269  0  2.029892  0  0  -0.603472  0  2.298042  0  0  -0.631379  0  2.285111  0  0  -0.33306  -0.583605  0  2.306084  0
O  O44  1  0.79836157  0.81415061  0.01719497  1  0  -0.661289  0  2.029835  0  0  -0.603478  0  2.297984  0  0  -0.631385  0  2.285054  0  0  -0.333085  -0.583611  0  2.306026  0
O  O45  1  0.70163537  0.68584917  0.51719402  1  0  -0.661325  0  2.029766  0  0  -0.603522  0  2.297957  0  0  -0.631429  0  2.285026  0  0  -0.333099  -0.583656  0  2.305999  0
O  O46  1  0.82059476  0.24033075  0.05335346  1  0  -0.653162  0  2.043033  0  0  -0.593141  0  2.30694  0  0  -0.62299  0  2.297174  0  0  -0.328009  -0.572055  0  2.312805  0
O  O47  1  0.67940733  0.25967044  0.55335247  1  0  -0.653179  0  2.043044  0  0  -0.593158  0  2.306948  0  0  -0.62301  0  2.29718  0  0  -0.328016  -0.572076  0  2.312824  0
O  O48  1  0.17940199  0.75967060  0.94664706  1  0  -0.65313  0  2.043067  0  0  -0.593101  0  2.306979  0  0  -0.62295  0  2.297212  0  0  -0.327986  -0.572015  0  2.312845  0
O  O49  1  0.32059748  0.74033091  0.44664733  1  0  -0.653128  0  2.04305  0  0  -0.593083  0  2.306976  0  0  -0.622933  0  2.297209  0  0  -0.327976  -0.571994  0  2.312834  0
