# generated using pymatgen
data_Sm2CuH18C14S2(NO11)2
_symmetry_space_group_name_H-M   'P 1'
_cell_length_a   6.41810969
_cell_length_b   9.85104554
_cell_length_c   9.87555812
_cell_angle_alpha   96.04705025
_cell_angle_beta   92.09782126
_cell_angle_gamma   96.81567734
_symmetry_Int_Tables_number   1
_chemical_formula_structural   Sm2CuH18C14S2(NO11)2
_chemical_formula_sum   'Sm2 Cu1 H18 C14 S2 N2 O22'
_cell_volume   615.75796074
_cell_formula_units_Z   1
loop_
 _symmetry_equiv_pos_site_id
 _symmetry_equiv_pos_as_xyz
  1  'x, y, z'
loop_
 _atom_site_type_symbol
 _atom_site_label
 _atom_site_symmetry_multiplicity
 _atom_site_fract_x
 _atom_site_fract_y
 _atom_site_fract_z
 _atom_site_occupancy
 _atom_site_hle17_ddec_charge
 _atom_site_hle17_ddec_spin_density
 _atom_site_hle17_ddec_sum_bond_order
 _atom_site_hle17_magmom
 _atom_site_hse06_10hf_ddec_charge
 _atom_site_hse06_10hf_ddec_spin_density
 _atom_site_hse06_10hf_ddec_sum_bond_order
 _atom_site_hse06_10hf_magmom
 _atom_site_hse06_ddec_charge
 _atom_site_hse06_ddec_spin_density
 _atom_site_hse06_ddec_sum_bond_order
 _atom_site_hse06_magmom
 _atom_site_pbe_cm5_charge
 _atom_site_pbe_ddec_charge
 _atom_site_pbe_ddec_spin_density
 _atom_site_pbe_ddec_sum_bond_order
 _atom_site_pbe_magmom
Sm  Sm0  1  0.43469931  0.03504009  0.25498507  1  2.344678  9e-05  1.579566  0.0  2.256216  4.9e-05  1.9295  0.0  2.295552  3e-06  1.887765  0.0  1.507013  2.168063  0.000123  2.070052  0.0
Sm  Sm1  1  0.56529308  0.96496383  0.74501804  1  2.344575  9.1e-05  1.579497  0.0  2.256113  4.9e-05  1.929422  0.0  2.295448  2e-06  1.88769  0.0  1.506971  2.167993  0.000123  2.069951  0.0
Cu  Cu2  1  0.99999274  0.50000160  0.00000013  1  0.947115  0.730917  1.727395  0.553  0.927281  0.806978  2.103844  0.667  1.002555  0.865197  2.053575  0.746  0.758935  0.874843  0.76438  2.146643  0.614
H  H3  1  0.89538973  0.03376930  0.35650343  1  0.442508  -1e-06  0.838196  0.0  0.416489  0.0  0.899107  0.0  0.426116  0.0  0.885168  0.0  0.31415  0.409427  3e-06  0.909211  0.0
H  H4  1  0.10459871  0.96621392  0.64347628  1  0.442327  -4e-06  0.838204  0.0  0.416302  -0.0  0.899339  0.0  0.425933  -0.0  0.885391  0.0  0.314079  0.409243  3e-06  0.909438  0.0
H  H5  1  0.78968168  0.87699548  0.35654010  1  0.433344  3.5e-05  0.872096  0.0  0.398841  3.1e-05  0.940989  0.0  0.411479  1.7e-05  0.922788  0.0  0.296277  0.389837  6.4e-05  0.953789  0.0
H  H6  1  0.21030426  0.12299304  0.64345418  1  0.433322  3.4e-05  0.872121  0.0  0.398822  3.1e-05  0.941008  0.0  0.411464  1.7e-05  0.922802  0.0  0.296265  0.389819  6.4e-05  0.953807  0.0
H  H7  1  0.09157231  0.91642175  0.04024406  1  0.45097  -1e-06  0.828725  0.0  0.425175  4e-06  0.886428  0.0  0.434238  0.0  0.872996  0.0  0.315372  0.418265  6e-06  0.896599  0.0
H  H8  1  0.90849303  0.08352288  0.95976562  1  0.451132  -2e-06  0.828443  0.0  0.42525  3e-06  0.886367  0.0  0.434312  0.0  0.872931  0.0  0.315349  0.418324  6e-06  0.896569  0.0
H  H9  1  0.95899215  0.94913541  0.17481252  1  0.45772  5.2e-05  0.828517  0.0  0.43082  7.5e-05  0.884267  0.0  0.441803  5.3e-05  0.868139  0.0  0.310344  0.422606  0.000105  0.896207  0.0
H  H10  1  0.04101795  0.05085867  0.82516001  1  0.457559  5.2e-05  0.828694  0.0  0.430673  7.4e-05  0.884423  0.0  0.441656  5.3e-05  0.868299  0.0  0.310315  0.422463  0.000105  0.896352  0.0
H  H11  1  0.22560928  0.29254177  0.00822617  1  0.438306  -0.000281  0.861491  -0.001  0.410356  0.000299  0.921629  0.001  0.4215  0.000143  0.905759  0.0  0.303395  0.402151  0.000426  0.933397  0.001
H  H12  1  0.77440905  0.70748643  0.99178134  1  0.438475  -0.000281  0.861296  -0.001  0.410467  0.000298  0.921489  0.001  0.421613  0.000143  0.905614  0.0  0.30342  0.402264  0.000426  0.93326  0.001
H  H13  1  0.23908193  0.35254875  0.86605161  1  0.450662  -0.000808  0.775993  -0.001  0.434288  4.3e-05  0.828206  0.0  0.443697  -0.000105  0.818675  0.0  0.336303  0.427435  0.000198  0.835396  0.0
H  H14  1  0.76103193  0.64754691  0.13399974  1  0.450783  -0.000808  0.775558  -0.001  0.434386  4.3e-05  0.827838  0.0  0.443799  -0.000105  0.818294  0.0  0.336312  0.427533  0.000198  0.835022  0.0
H  H15  1  0.68939312  0.48307231  0.43102311  1  0.122198  0.00045  0.922923  0.001  0.128891  6.4e-05  0.987037  0.0  0.132547  -1.4e-05  0.983463  0.0  0.118503  0.125891  0.000131  0.99036  0.0
H  H16  1  0.31059350  0.51692038  0.56897869  1  0.122219  0.000456  0.922973  0.001  0.128908  6.4e-05  0.987101  0.0  0.132577  -1.4e-05  0.983496  0.0  0.118535  0.125921  0.000131  0.990421  0.0
H  H17  1  0.97832037  0.71362540  0.79878714  1  0.112228  0.001232  0.926136  0.002  0.116789  0.000829  0.990702  0.001  0.119009  0.000573  0.987641  0.001  0.133714  0.114888  0.001028  0.993179  0.002
H  H18  1  0.02166214  0.28637668  0.20121740  1  0.112359  0.001229  0.926034  0.002  0.116897  0.000828  0.990603  0.001  0.119117  0.000573  0.987542  0.001  0.133675  0.114986  0.001028  0.993075  0.002
H  H19  1  0.82019779  0.29063236  0.79087744  1  0.097559  0.001331  0.975031  0.003  0.097083  0.000845  1.050878  0.002  0.099858  0.000556  1.046169  0.001  0.128307  0.095221  0.001099  1.053602  0.002
H  H20  1  0.17981723  0.70936799  0.20912426  1  0.09757  0.00134  0.975034  0.003  0.097109  0.000845  1.050873  0.002  0.099893  0.000556  1.04614  0.001  0.128301  0.095242  0.001099  1.053597  0.002
C  C21  1  0.74288150  0.36964255  0.60213107  1  -0.116201  0.011275  3.712731  0.013  -0.090233  0.00372  3.946039  0.005  -0.105897  0.003144  3.969188  0.004  -0.005805  -0.08114  0.004264  3.932652  0.005
C  C22  1  0.25711757  0.63034475  0.39787784  1  -0.116364  0.011289  3.712668  0.013  -0.09039  0.003719  3.946006  0.005  -0.106057  0.003147  3.969156  0.004  -0.0058  -0.081301  0.004265  3.932625  0.005
C  C23  1  0.74650325  0.48863080  0.53691776  1  0.002352  -0.015055  3.652191  -0.01  -0.039525  -0.00456  3.904048  -0.003  -0.030083  -0.00496  3.919387  -0.003  -0.046316  -0.046009  -0.004372  3.895321  -0.002
C  C24  1  0.25347029  0.51136118  0.46309356  1  0.002522  -0.015085  3.652295  -0.01  -0.039402  -0.00456  3.904183  -0.003  -0.029953  -0.004965  3.919518  -0.003  -0.046342  -0.045896  -0.004372  3.895469  -0.002
C  C25  1  0.82568550  0.61512002  0.60859945  1  -0.11661  0.011403  3.709513  0.013  -0.093261  0.00379  3.953692  0.005  -0.108285  0.003226  3.976518  0.004  -0.005345  -0.084123  0.004348  3.939103  0.005
C  C26  1  0.17432560  0.38486900  0.39139391  1  -0.116683  0.011387  3.710225  0.013  -0.0933  0.003788  3.954285  0.005  -0.108316  0.00323  3.977114  0.004  -0.005326  -0.084165  0.004348  3.939687  0.005
C  C27  1  0.90593970  0.61768510  0.74238341  1  0.17102  -0.012637  3.584452  -0.008  0.130303  -0.001978  3.842567  -0.001  0.145043  -0.003665  3.856745  -0.002  0.075065  0.121187  -0.000603  3.833068  0.0
C  C28  1  0.09403333  0.38231209  0.25763243  1  0.170818  -0.012602  3.584831  -0.008  0.130184  -0.001973  3.842934  -0.001  0.144918  -0.003667  3.857107  -0.002  0.075153  0.121082  -0.000601  3.833409  0.0
C  C29  1  0.82065459  0.38114874  0.73700346  1  0.166106  -0.014108  3.616619  -0.009  0.125389  -0.002948  3.869707  -0.002  0.140141  -0.004704  3.884119  -0.003  0.069312  0.116017  -0.001659  3.860082  -0.001
C  C30  1  0.17932848  0.61885026  0.26300689  1  0.166012  -0.014138  3.616523  -0.009  0.125326  -0.002947  3.86967  -0.002  0.140072  -0.004708  3.884086  -0.003  0.069269  0.115963  -0.00166  3.86004  -0.001
C  C31  1  0.66215073  0.23086891  0.53012796  1  0.735441  0.000349  3.8693  0.0  0.687063  0.000374  4.163879  0.0  0.723103  0.000249  4.152851  0.0  0.238502  0.662382  0.000516  4.166781  0.001
C  C32  1  0.33783735  0.76912887  0.46986830  1  0.735554  0.000352  3.868938  0.0  0.687159  0.000375  4.163548  0.0  0.723201  0.000248  4.152521  0.0  0.238551  0.662481  0.000516  4.166456  0.001
C  C33  1  0.82167069  0.74583726  0.54300568  1  0.683253  0.000536  3.898103  0.0  0.628102  0.000523  4.202197  0.001  0.662318  0.000345  4.194768  0.0  0.225144  0.605094  0.000693  4.204081  0.001
C  C34  1  0.17827558  0.25416137  0.45698688  1  0.683158  0.000551  3.898487  0.0  0.628046  0.000524  4.202521  0.001  0.662231  0.000343  4.19513  0.0  0.225011  0.605043  0.000693  4.204401  0.001
S  S35  1  0.41929660  0.77292650  0.96400244  1  1.567304  -0.000318  5.894597  0.0  1.45784  -9e-05  6.431303  0.0  1.513701  -0.000128  6.393078  0.0  0.551642  1.42041  -8.5e-05  6.445573  0.0
S  S36  1  0.58069856  0.22706291  0.03600043  1  1.567847  -0.000321  5.894422  0.0  1.45848  -9.6e-05  6.430955  0.0  1.514349  -0.000128  6.392706  0.0  0.551877  1.42104  -8.5e-05  6.445216  0.0
N  N37  1  0.90190890  0.50230860  0.80491917  1  -0.303658  0.085918  3.286373  0.112  -0.259074  0.051623  3.586142  0.072  -0.292792  0.040623  3.607291  0.061  -0.343606  -0.237462  0.058541  3.572233  0.078
N  N38  1  0.09809414  0.49769002  0.19509705  1  -0.30348  0.085928  3.286201  0.112  -0.259093  0.051625  3.586117  0.072  -0.292798  0.040621  3.607253  0.061  -0.343613  -0.237494  0.058553  3.572206  0.078
O  O39  1  0.60907717  0.22480724  0.40424972  1  -0.726969  0.001851  2.010748  0.002  -0.687365  0.000565  2.264045  0.001  -0.712787  0.000341  2.253889  0.001  -0.38877  -0.661517  0.000788  2.272349  0.001
O  O40  1  0.39091503  0.77519458  0.59574609  1  -0.726945  0.001854  2.010728  0.002  -0.687308  0.000566  2.263987  0.001  -0.712734  0.00034  2.253832  0.001  -0.388735  -0.661466  0.000789  2.272298  0.001
O  O41  1  0.65366580  0.12737330  0.59712773  1  -0.768602  0.000491  2.066635  0.001  -0.733473  8.7e-05  2.342712  0.0  -0.756048  9.4e-05  2.325843  0.0  -0.41413  -0.707212  0.000115  2.35584  0.0
O  O42  1  0.34632485  0.87262855  0.40286802  1  -0.768649  0.000488  2.0664  0.001  -0.733506  8.7e-05  2.342463  0.0  -0.756084  9.5e-05  2.32559  0.0  -0.414196  -0.707241  0.000115  2.355591  0.0
O  O43  1  0.79764621  0.73554184  0.41490648  1  -0.590683  0.002572  1.949402  0.003  -0.535426  0.000665  2.163537  0.001  -0.561301  0.000401  2.156251  0.001  -0.292722  -0.517252  0.001147  2.168389  0.002
O  O44  1  0.20234775  0.26443815  0.58507214  1  -0.590555  0.00257  1.949682  0.003  -0.535339  0.000665  2.16383  0.001  -0.561204  0.000401  2.156553  0.001  -0.292665  -0.517173  0.001148  2.168685  0.002
O  O45  1  0.84136872  0.85965916  0.62203020  1  -0.75657  0.000509  2.018684  0.001  -0.704225  7.8e-05  2.268209  0.0  -0.728721  6.1e-05  2.255571  0.0  -0.390861  -0.679448  0.000131  2.279242  0.0
O  O46  1  0.15862953  0.14034149  0.37796373  1  -0.756605  0.000507  2.018533  0.001  -0.704237  7.9e-05  2.267953  0.0  -0.728726  6.1e-05  2.25533  0.0  -0.390862  -0.679461  0.000131  2.278982  0.0
O  O47  1  0.78495428  0.96450515  0.30966691  1  -0.908379  0.000311  1.902538  0.0  -0.859958  0.000151  2.098861  0.0  -0.880207  7.9e-05  2.065217  0.0  -0.618249  -0.838262  0.000276  2.12522  0.0
O  O48  1  0.21503394  0.03547810  0.69031785  1  -0.908111  0.000315  1.90249  0.0  -0.859695  0.000151  2.098947  0.0  -0.879948  7.9e-05  2.065302  0.0  -0.618138  -0.837994  0.000276  2.125303  0.0
O  O49  1  0.09727954  0.96297896  0.13308725  1  -0.927871  0.000172  1.884711  0.0  -0.887436  0.000123  2.082857  0.0  -0.904181  7.1e-05  2.049071  0.0  -0.65318  -0.867827  0.000225  2.111472  0.0
O  O50  1  0.90271366  0.03706705  0.86687834  1  -0.927817  0.000173  1.884582  0.0  -0.887347  0.000123  2.082644  0.0  -0.9041  7.1e-05  2.048884  0.0  -0.653141  -0.867756  0.000225  2.111312  0.0
O  O51  1  0.46786767  0.82413473  0.11043038  1  -0.818571  0.000735  2.035729  0.001  -0.770562  0.000618  2.304514  0.001  -0.791605  0.0004  2.286147  0.0  -0.424641  -0.748019  0.000872  2.316974  0.001
O  O52  1  0.53207183  0.17585176  0.88957898  1  -0.818579  0.000719  2.035672  0.001  -0.77065  0.00062  2.304498  0.001  -0.791689  0.000404  2.286125  0.0  -0.424649  -0.748109  0.000873  2.316963  0.001
O  O53  1  0.62429767  0.78182909  0.89177155  1  -0.821224  0.000908  2.019056  0.001  -0.767494  0.000534  2.271707  0.001  -0.788462  0.000214  2.252922  0.0  -0.409039  -0.745762  0.000988  2.284046  0.001
O  O54  1  0.37571656  0.21819827  0.10825394  1  -0.821389  0.000935  2.019061  0.001  -0.767665  0.000537  2.271696  0.001  -0.788633  0.000207  2.252909  0.0  -0.409112  -0.745939  0.000988  2.284033  0.001
O  O55  1  0.31558652  0.63174149  0.94819334  1  -0.703774  -0.000891  1.97822  0.001  -0.668172  -0.001082  2.242883  0.0  -0.68985  -0.001435  2.222175  0.0  -0.353502  -0.653088  -0.000579  2.257394  0.001
O  O56  1  0.68446277  0.36823530  0.05178832  1  -0.703842  -0.000904  1.978281  0.001  -0.668293  -0.001081  2.242979  0.0  -0.689976  -0.001431  2.222265  0.0  -0.353563  -0.653215  -0.000578  2.257489  0.001
O  O57  1  0.29456243  0.87032474  0.89799777  1  -0.806798  0.000163  1.973399  0.0  -0.758633  5.8e-05  2.235392  0.0  -0.778827  1.3e-05  2.216223  0.0  -0.397608  -0.737119  9.8e-05  2.245463  0.0
O  O58  1  0.70541163  0.12964753  0.10200056  1  -0.807157  0.000168  1.973557  0.0  -0.75899  5.6e-05  2.235567  0.0  -0.779185  1e-05  2.216389  0.0  -0.397749  -0.737456  9.8e-05  2.245626  0.0
O  O59  1  0.14177141  0.33229916  0.93708445  1  -0.783255  0.058269  1.933381  0.081  -0.752382  0.042024  2.154037  0.063  -0.782284  0.031818  2.125098  0.052  -0.558696  -0.731984  0.048924  2.175481  0.069
O  O60  1  0.85827693  0.66773560  0.06291582  1  -0.783654  0.058238  1.933057  0.081  -0.752615  0.04201  2.153548  0.063  -0.782513  0.031809  2.124611  0.052  -0.558698  -0.732224  0.048905  2.174987  0.069
