# generated using pymatgen
data_H9Pb2C15NO10
_symmetry_space_group_name_H-M   'P 1'
_cell_length_a   8.14542313
_cell_length_b   10.18539628
_cell_length_c   10.33718039
_cell_angle_alpha   92.44308104
_cell_angle_beta   106.99118097
_cell_angle_gamma   97.74717456
_symmetry_Int_Tables_number   1
_chemical_formula_structural   H9Pb2C15NO10
_chemical_formula_sum   'H18 Pb4 C30 N2 O20'
_cell_volume   809.64633671
_cell_formula_units_Z   2
loop_
 _symmetry_equiv_pos_site_id
 _symmetry_equiv_pos_as_xyz
  1  'x, y, z'
loop_
 _atom_site_type_symbol
 _atom_site_label
 _atom_site_symmetry_multiplicity
 _atom_site_fract_x
 _atom_site_fract_y
 _atom_site_fract_z
 _atom_site_occupancy
 _atom_site_hle17_bader_spin_density
 _atom_site_hle17_ddec_charge
 _atom_site_hle17_ddec_spin_density
 _atom_site_hle17_ddec_sum_bond_order
 _atom_site_hle17_magmom
 _atom_site_hse06_10hf_bader_spin_density
 _atom_site_hse06_10hf_ddec_charge
 _atom_site_hse06_10hf_ddec_spin_density
 _atom_site_hse06_10hf_ddec_sum_bond_order
 _atom_site_hse06_10hf_magmom
 _atom_site_hse06_bader_spin_density
 _atom_site_hse06_ddec_charge
 _atom_site_hse06_ddec_spin_density
 _atom_site_hse06_ddec_sum_bond_order
 _atom_site_hse06_magmom
 _atom_site_pbe_bader_spin_density
 _atom_site_pbe_cm5_charge
 _atom_site_pbe_ddec_charge
 _atom_site_pbe_ddec_spin_density
 _atom_site_pbe_ddec_sum_bond_order
 _atom_site_pbe_magmom
H  H0  1  0.08950500  0.75753760  0.41415595  1  0  0.093649  0  0.972402  0  0  0.101977  0  1.04247  0  0  0.104734  0  1.040881  0  0  0.105299  0.1001  0  1.043669  0
H  H1  1  0.91051116  0.24243322  0.58585403  1  0  0.093535  0  0.972567  0  0  0.101926  0  1.04257  0  0  0.104679  0  1.040992  0  0  0.105289  0.100049  0  1.043769  0
H  H2  1  0.13937210  0.34499591  0.36275051  1  0  0.104887  0  0.952648  0  0  0.112536  0  1.021972  0  0  0.115758  0  1.019611  0  0  0.106167  0.110345  0  1.023389  0
H  H3  1  0.86064806  0.65497478  0.63722847  1  0  0.104845  0  0.952767  0  0  0.112501  0  1.022083  0  0  0.115726  0  1.019709  0  0  0.106249  0.110314  0  1.023482  0
H  H4  1  0.80679754  0.84621442  0.75836810  1  0  0.117687  0  0.944899  0  0  0.122833  0  1.014175  0  0  0.127346  0  1.009406  0  0  0.114353  0.119573  0  1.017473  0
H  H5  1  0.19320004  0.15378416  0.24160764  1  0  0.117733  0  0.944818  0  0  0.12284  0  1.014157  0  0  0.127356  0  1.009384  0  0  0.114351  0.119578  0  1.017453  0
H  H6  1  0.17002754  0.13756495  0.64405380  1  0  0.125401  0  0.948793  0  0  0.130242  0  1.014767  0  0  0.13416  0  1.010448  0  0  0.134835  0.12723  0  1.018265  0
H  H7  1  0.82995370  0.86248055  0.35595859  1  0  0.125516  0  0.948722  0  0  0.130252  0  1.014781  0  0  0.13417  0  1.010465  0  0  0.134857  0.12724  0  1.018283  0
H  H8  1  0.86972107  0.99977680  0.58705564  1  0  0.124154  0  0.975518  0  0  0.129689  0  1.038555  0  0  0.133577  0  1.037438  0  0  0.112817  0.126776  0  1.039886  0
H  H9  1  0.13026645  0.00024875  0.41294586  1  0  0.12424  0  0.975432  0  0  0.129733  0  1.038479  0  0  0.133631  0  1.037348  0  0  0.112885  0.12676  0  1.039882  0
H  H10  1  0.48511129  0.59242729  0.70649328  1  0  0.086051  0  0.976504  0  0  0.096332  0  1.045804  0  0  0.099489  0  1.042878  0  0  0.108478  0.094075  0  1.047968  0
H  H11  1  0.51488525  0.40752265  0.29350650  1  0  0.085998  0  0.976506  0  0  0.096246  0  1.045824  0  0  0.099424  0  1.042852  0  0  0.108459  0.093991  0  1.047983  0
H  H12  1  0.34337144  0.96128264  0.00161203  1  0  0.119341  0  0.951248  0  0  0.11954  0  1.028952  0  0  0.124737  0  1.022179  0  0  0.133592  0.115859  0  1.033581  0
H  H13  1  0.65659952  0.03876289  0.99840183  1  0  0.119347  0  0.951055  0  0  0.119679  0  1.028686  0  0  0.124877  0  1.021907  0  0  0.133655  0.115996  0  1.033319  0
H  H14  1  0.53864009  0.73250681  0.03756398  1  0  0.42918  0  0.870556  0  0  0.394782  0  0.938698  0  0  0.406189  0  0.922429  0  0  0.295623  0.386927  0  0.949859  0
H  H15  1  0.46137349  0.26750181  0.96244586  1  0  0.429155  0  0.870586  0  0  0.394758  0  0.938729  0  0  0.406168  0  0.922456  0  0  0.295634  0.386901  0  0.949892  0
H  H16  1  0.46916814  0.71729157  0.87942467  1  0  0.429028  0  0.869684  0  0  0.395474  0  0.937912  0  0  0.407083  0  0.921187  0  0  0.288505  0.387208  0  0.949762  0
H  H17  1  0.53084179  0.28271806  0.12058532  1  0  0.428953  0  0.86978  0  0  0.39541  0  0.937991  0  0  0.407014  0  0.921274  0  0  0.288473  0.387148  0  0.949838  0
Pb  Pb18  1  0.74180243  0.51326325  0.95628426  1  0  1.422024  0  1.341698  0  0  1.250152  0  1.733123  0  0  1.310883  0  1.68631  0  0  0.665623  1.206155  0  1.765428  0
Pb  Pb19  1  0.25822659  0.48674532  0.04372047  1  0  1.422012  0  1.34174  0  0  1.25012  0  1.733167  0  0  1.310851  0  1.686353  0  0  0.665579  1.206126  0  1.765466  0
Pb  Pb20  1  0.58809189  0.11813147  0.69389956  1  0  1.312206  0  1.427977  0  0  1.130215  0  1.82777  0  0  1.189539  0  1.787568  0  0  0.632763  1.085726  0  1.857558  0
Pb  Pb21  1  0.41190153  0.88186621  0.30609840  1  0  1.31228  0  1.427899  0  0  1.130277  0  1.827689  0  0  1.189606  0  1.787484  0  0  0.632809  1.085787  0  1.857465  0
C  C22  1  0.29543952  0.68997643  0.56982258  1  0  -0.08128  0  3.778312  0  0  -0.052587  0  4.010353  0  0  -0.062186  0  4.033061  0  0  -0.020988  -0.046426  0  3.994975  0
C  C23  1  0.70457023  0.30999439  0.43018397  1  0  -0.081386  0  3.778294  0  0  -0.052655  0  4.010265  0  0  -0.062246  0  4.032964  0  0  -0.021077  -0.04648  0  3.994875  0
C  C24  1  0.15436663  0.67365926  0.45090335  1  0  -0.082761  0  3.717013  0  0  -0.115634  0  3.961588  0  0  -0.113133  0  3.981107  0  0  -0.073622  -0.116474  0  3.94788  0
C  C25  1  0.84564935  0.32631054  0.54909978  1  0  -0.082693  0  3.717245  0  0  -0.11566  0  3.961848  0  0  -0.113162  0  3.981366  0  0  -0.073714  -0.116503  0  3.948138  0
C  C26  1  0.31582163  0.45541742  0.54383577  1  0  -0.051761  0  3.741147  0  0  -0.024156  0  3.976914  0  0  -0.033042  0  3.997762  0  0  -0.010352  -0.018932  0  3.963982  0
C  C27  1  0.68418712  0.54455432  0.45615221  1  0  -0.051897  0  3.741082  0  0  -0.024255  0  3.976749  0  0  -0.033193  0  3.997717  0  0  -0.01049  -0.01905  0  3.96384  0
C  C28  1  0.37673045  0.82464763  0.64010294  1  0  0.646192  0  3.926629  0  0  0.593889  0  4.217247  0  0  0.628176  0  4.212491  0  0  0.207415  0.570781  0  4.219001  0
C  C29  1  0.62326232  0.17532820  0.35990371  1  0  0.646239  0  3.926854  0  0  0.59393  0  4.217444  0  0  0.628214  0  4.212696  0  0  0.207503  0.570809  0  4.21921  0
C  C30  1  0.18070087  0.44107352  0.42196601  1  0  -0.047149  0  3.648667  0  0  -0.088232  0  3.901937  0  0  -0.084129  0  3.918575  0  0  -0.066966  -0.089689  0  3.889364  0
C  C31  1  0.81931797  0.55889720  0.57801944  1  0  -0.046789  0  3.6485  0  0  -0.087876  0  3.901706  0  0  -0.083749  0  3.9183  0  0  -0.066892  -0.089322  0  3.889133  0
C  C32  1  0.40551086  0.34119077  0.59600934  1  0  0.653292  0  3.897786  0  0  0.598324  0  4.190696  0  0  0.634121  0  4.184198  0  0  0.211729  0.573534  0  4.194987  0
C  C33  1  0.59449999  0.65878495  0.40397830  1  0  0.653305  0  3.897529  0  0  0.598252  0  4.190542  0  0  0.634046  0  4.18404  0  0  0.211632  0.573451  0  4.194855  0
C  C34  1  0.09934840  0.55016319  0.37569434  1  0  -0.049923  0  3.749492  0  0  -0.02511  0  3.987238  0  0  -0.033946  0  4.009441  0  0  -0.009648  -0.019731  0  3.971995  0
C  C35  1  0.90067357  0.44981055  0.62430163  1  0  -0.050195  0  3.749698  0  0  -0.025419  0  3.987451  0  0  -0.034252  0  4.009648  0  0  -0.009656  -0.020033  0  3.972199  0
C  C36  1  0.93462547  0.90474185  0.77550953  1  0  -0.029314  0  3.699272  0  0  -0.06419  0  3.954041  0  0  -0.057617  0  3.969488  0  0  -0.062329  -0.06819  0  3.944035  0
C  C37  1  0.06536432  0.09527571  0.22448252  1  0  -0.029266  0  3.69951  0  0  -0.064144  0  3.95431  0  0  -0.057561  0  3.969732  0  0  -0.062248  -0.068132  0  3.944276  0
C  C38  1  0.06783383  0.89217849  0.89350147  1  0  -0.084374  0  3.72498  0  0  -0.057001  0  3.961623  0  0  -0.068758  0  3.983696  0  0  -0.003962  -0.050068  0  3.947681  0
C  C39  1  0.93214847  0.10785305  0.10650097  1  0  -0.084659  0  3.725062  0  0  -0.057309  0  3.961821  0  0  -0.069066  0  3.983886  0  0  -0.004106  -0.050379  0  3.947887  0
C  C40  1  0.96316904  0.53801608  0.24073752  1  0  0.647972  0  3.9082  0  0  0.5966  0  4.198352  0  0  0.631867  0  4.192079  0  0  0.213729  0.572595  0  4.201848  0
C  C41  1  0.03685141  0.46197560  0.75926554  1  0  0.648036  0  3.907801  0  0  0.596744  0  4.19783  0  0  0.632012  0  4.191562  0  0  0.213766  0.572734  0  4.201329  0
C  C42  1  0.13128108  0.06689600  0.70967996  1  0  0.047721  0  3.549367  0  0  0.003666  0  3.810493  0  0  0.014162  0  3.819608  0  0  0.05519  -0.003281  0  3.80513  0
C  C43  1  0.86870262  0.93314251  0.29032790  1  0  0.04756  0  3.549581  0  0  0.003682  0  3.810544  0  0  0.014169  0  3.819683  0  0  0.055334  -0.003264  0  3.805164  0
C  C44  1  0.96883146  0.99080204  0.68208451  1  0  -0.128908  0  3.764139  0  0  -0.134712  0  4.018305  0  0  -0.14403  0  4.039579  0  0  -0.079527  -0.129036  0  4.00496  0
C  C45  1  0.03115686  0.00922750  0.31791732  1  0  -0.128927  0  3.764589  0  0  -0.134694  0  4.018654  0  0  -0.144017  0  4.039922  0  0  -0.079686  -0.128966  0  4.005333  0
C  C46  1  0.37358067  0.58027311  0.61590638  1  0  -0.034175  0  3.68062  0  0  -0.074958  0  3.926857  0  0  -0.070506  0  3.94415  0  0  -0.067269  -0.077594  0  3.915516  0
C  C47  1  0.62642228  0.41969571  0.38409367  1  0  -0.034149  0  3.680221  0  0  -0.074859  0  3.926308  0  0  -0.070406  0  3.943598  0  0  -0.06719  -0.077491  0  3.914974  0
C  C48  1  0.23043365  0.96731262  0.91560682  1  0  0.043869  0  3.524757  0  0  -0.007781  0  3.784002  0  0  0.003215  0  3.792154  0  0  0.062366  -0.0145  0  3.778393  0
C  C49  1  0.76954403  0.03272790  0.08440068  1  0  0.044024  0  3.524042  0  0  -0.007849  0  3.783464  0  0  0.003145  0  3.791622  0  0  0.062282  -0.014567  0  3.777861  0
C  C50  1  0.03651269  0.79346767  0.99244297  1  0  0.680878  0  3.923498  0  0  0.623504  0  4.226253  0  0  0.659136  0  4.219221  0  0  0.213939  0.599186  0  4.230703  0
C  C51  1  0.96347680  0.20655488  0.00755501  1  0  0.68136  0  3.923349  0  0  0.624083  0  4.225945  0  0  0.65972  0  4.218896  0  0  0.214278  0.599764  0  4.230405  0
N  N52  1  0.25772969  0.05418853  0.82569552  1  0  0.28453  0  3.650945  0  0  0.330772  0  3.918002  0  0  0.329236  0  3.937162  0  0  -0.106865  0.331029  0  3.904973  0
N  N53  1  0.74225449  0.94584600  0.17430940  1  0  0.284344  0  3.651073  0  0  0.330587  0  3.918136  0  0  0.329048  0  3.937304  0  0  -0.107057  0.330844  0  3.905115  0
O  O54  1  0.41437589  0.12775787  0.85219819  1  0  -0.570077  0  1.84885  0  0  -0.501511  0  2.080014  0  0  -0.526747  0  2.076586  0  0  -0.20909  -0.483556  0  2.082162  0
O  O55  1  0.58561351  0.87227067  0.14780385  1  0  -0.569962  0  1.849067  0  0  -0.501395  0  2.080266  0  0  -0.526623  0  2.076823  0  0  -0.20895  -0.483414  0  2.08235  0
O  O56  1  0.98707204  0.46178213  0.14630838  1  0  -0.711851  0  2.0413  0  0  -0.627304  0  2.278611  0  0  -0.662135  0  2.273008  0  0  -0.29634  -0.602426  0  2.281306  0
O  O57  1  0.01294744  0.53822343  0.85368337  1  0  -0.711682  0  2.041143  0  0  -0.62718  0  2.278426  0  0  -0.661994  0  2.272788  0  0  -0.296299  -0.602304  0  2.28112  0
O  O58  1  0.35362387  0.92420066  0.56685625  1  0  -0.704405  0  2.02734  0  0  -0.625328  0  2.267214  0  0  -0.659316  0  2.263574  0  0  -0.300972  -0.600852  0  2.26968  0
O  O59  1  0.64634884  0.07577122  0.43314750  1  0  -0.704293  0  2.027329  0  0  -0.625307  0  2.267326  0  0  -0.659294  0  2.263699  0  0  -0.301024  -0.60083  0  2.269803  0
O  O60  1  0.46905327  0.83664595  0.76305867  1  0  -0.632757  0  1.958404  0  0  -0.57509  0  2.183998  0  0  -0.601749  0  2.17598  0  0  -0.30432  -0.556287  0  2.188039  0
O  O61  1  0.53092975  0.16333887  0.23695185  1  0  -0.632717  0  1.958533  0  0  -0.574999  0  2.184017  0  0  -0.601683  0  2.176056  0  0  -0.304229  -0.556215  0  2.188107  0
O  O62  1  0.53853443  0.36239243  0.70129956  1  0  -0.688212  0  2.019904  0  0  -0.614488  0  2.261821  0  0  -0.648037  0  2.259088  0  0  -0.293049  -0.590403  0  2.26265  0
O  O63  1  0.46149013  0.63758719  0.29867596  1  0  -0.688286  0  2.019811  0  0  -0.614555  0  2.261791  0  0  -0.648102  0  2.259059  0  0  -0.293105  -0.590465  0  2.262623  0
O  O64  1  0.87797944  0.74919449  0.97637903  1  0  -0.649507  0  1.995801  0  0  -0.588491  0  2.2441  0  0  -0.617702  0  2.23569  0  0  -0.304915  -0.567534  0  2.249218  0
O  O65  1  0.12200895  0.25081609  0.02360953  1  0  -0.649786  0  1.995807  0  0  -0.588753  0  2.24403  0  0  -0.617963  0  2.235611  0  0  -0.305023  -0.567807  0  2.249185  0
O  O66  1  0.83588093  0.60027688  0.22068608  1  0  -0.597976  0  1.917222  0  0  -0.541549  0  2.141186  0  0  -0.56915  0  2.13541  0  0  -0.28984  -0.522475  0  2.144689  0
O  O67  1  0.16414392  0.39971782  0.77932973  1  0  -0.598111  0  1.916973  0  0  -0.541674  0  2.140876  0  0  -0.569285  0  2.135102  0  0  -0.289923  -0.522596  0  2.144373  0
O  O68  1  0.16746946  0.76197869  0.08011023  1  0  -0.703777  0  1.988023  0  0  -0.637997  0  2.237435  0  0  -0.668404  0  2.230204  0  0  -0.31014  -0.616817  0  2.242493  0
O  O69  1  0.83252085  0.23804784  0.91988711  1  0  -0.70391  0  1.988077  0  0  -0.63816  0  2.23745  0  0  -0.668568  0  2.230212  0  0  -0.310239  -0.616974  0  2.242522  0
O  O70  1  0.34844332  0.22539122  0.53319165  1  0  -0.636058  0  1.916583  0  0  -0.565702  0  2.142658  0  0  -0.595301  0  2.136245  0  0  -0.301903  -0.544632  0  2.147808  0
O  O71  1  0.65155448  0.77457763  0.46681204  1  0  -0.636107  0  1.916447  0  0  -0.565668  0  2.142488  0  0  -0.595264  0  2.136078  0  0  -0.301777  -0.544594  0  2.147643  0
O  O72  1  0.48994846  0.66293718  0.95964350  1  0  -0.883788  0  1.846613  0  0  -0.808703  0  2.035617  0  0  -0.837518  0  2.004616  0  0  -0.550342  -0.7882  0  2.056774  0
O  O73  1  0.51006363  0.33707046  0.04036789  1  0  -0.883673  0  1.846722  0  0  -0.808614  0  2.035725  0  0  -0.837428  0  2.004722  0  0  -0.550337  -0.788104  0  2.056876  0
