# generated using pymatgen
data_Hg2H21C33I4(NO)6
_symmetry_space_group_name_H-M   'P 1'
_cell_length_a   10.76832304
_cell_length_b   14.27244871
_cell_length_c   14.79336425
_cell_angle_alpha   62.56281939
_cell_angle_beta   89.55369018
_cell_angle_gamma   69.82724862
_symmetry_Int_Tables_number   1
_chemical_formula_structural   Hg2H21C33I4(NO)6
_chemical_formula_sum   'Hg4 H42 C66 I8 N12 O12'
_cell_volume   1862.65434697
_cell_formula_units_Z   2
loop_
 _symmetry_equiv_pos_site_id
 _symmetry_equiv_pos_as_xyz
  1  'x, y, z'
loop_
 _atom_site_type_symbol
 _atom_site_label
 _atom_site_symmetry_multiplicity
 _atom_site_fract_x
 _atom_site_fract_y
 _atom_site_fract_z
 _atom_site_occupancy
 _atom_site_hle17_bader_spin_density
 _atom_site_hle17_ddec_charge
 _atom_site_hle17_ddec_spin_density
 _atom_site_hle17_ddec_sum_bond_order
 _atom_site_hle17_magmom
 _atom_site_hse06_10hf_bader_spin_density
 _atom_site_hse06_10hf_ddec_charge
 _atom_site_hse06_10hf_ddec_spin_density
 _atom_site_hse06_10hf_ddec_sum_bond_order
 _atom_site_hse06_10hf_magmom
 _atom_site_hse06_bader_spin_density
 _atom_site_hse06_ddec_charge
 _atom_site_hse06_ddec_spin_density
 _atom_site_hse06_ddec_sum_bond_order
 _atom_site_hse06_magmom
 _atom_site_pbe_bader_spin_density
 _atom_site_pbe_cm5_charge
 _atom_site_pbe_ddec_charge
 _atom_site_pbe_ddec_spin_density
 _atom_site_pbe_ddec_sum_bond_order
 _atom_site_pbe_magmom
Hg  Hg0  1  0.78389965  0.70496308  0.16438934  1  0  0.52971  0  2.181725  0  0  0.394655  0  2.671133  0  0  0.438774  0  2.646896  0  0  0.394891  0.365218  0  2.686931  0
Hg  Hg1  1  0.21610316  0.29503652  0.83561144  1  0  0.529688  0  2.181752  0  0  0.394645  0  2.671147  0  0  0.438764  0  2.646914  0  0  0.394926  0.365225  0  2.686944  0
Hg  Hg2  1  0.73083662  0.79118486  0.38980735  1  0  0.462714  0  2.221918  0  0  0.351993  0  2.715885  0  0  0.392207  0  2.694163  0  0  0.319883  0.325056  0  2.730026  0
Hg  Hg3  1  0.26916302  0.20881560  0.61019238  1  0  0.462703  0  2.221936  0  0  0.351979  0  2.715899  0  0  0.392188  0  2.694186  0  0  0.319914  0.325082  0  2.73004  0
H  H4  1  0.78854514  0.51779457  0.46108667  1  0  0.074691  0  0.960477  0  0  0.08102  0  1.029078  0  0  0.083841  0  1.026479  0  0  0.096995  0.079188  0  1.030633  0
H  H5  1  0.21145513  0.48220246  0.53891661  1  0  0.074727  0  0.960461  0  0  0.081029  0  1.029076  0  0  0.083852  0  1.026476  0  0  0.096987  0.079194  0  1.03063  0
H  H6  1  0.68977155  0.39945841  0.42902764  1  0  0.124603  0  0.955173  0  0  0.132067  0  1.018299  0  0  0.13611  0  1.015821  0  0  0.108277  0.129156  0  1.020291  0
H  H7  1  0.31022609  0.60054033  0.57097286  1  0  0.124626  0  0.955169  0  0  0.132087  0  1.0183  0  0  0.13613  0  1.015822  0  0  0.108277  0.129174  0  1.020291  0
H  H8  1  0.30984620  0.68973439  0.30615004  1  0  0.112843  0  0.946282  0  0  0.121716  0  1.009806  0  0  0.125411  0  1.007487  0  0  0.106548  0.119242  0  1.01129  0
H  H9  1  0.69015384  0.31026521  0.69385006  1  0  0.112839  0  0.94627  0  0  0.121716  0  1.009793  0  0  0.125412  0  1.007473  0  0  0.10656  0.119241  0  1.011276  0
H  H10  1  0.42501021  0.79689225  0.34320116  1  0  0.072389  0  0.946128  0  0  0.080137  0  1.013931  0  0  0.082299  0  1.012077  0  0  0.105829  0.078578  0  1.01524  0
H  H11  1  0.57498983  0.20310735  0.65679895  1  0  0.072404  0  0.946125  0  0  0.080155  0  1.013919  0  0  0.082317  0  1.012064  0  0  0.105837  0.078594  0  1.015228  0
H  H12  1  0.47166531  0.38066978  0.38922048  1  0  0.095432  0  0.9082  0  0  0.108884  0  0.971066  0  0  0.109955  0  0.969846  0  0  0.117102  0.107968  0  0.972038  0
H  H13  1  0.52833379  0.61932981  0.61077963  1  0  0.095455  0  0.908212  0  0  0.108891  0  0.971076  0  0  0.109962  0  0.969856  0  0  0.117101  0.107976  0  0.972047  0
H  H14  1  0.31916305  0.50469192  0.32917762  1  0  0.096619  0  0.917291  0  0  0.105895  0  0.98771  0  0  0.108168  0  0.984971  0  0  0.112622  0.104202  0  0.989698  0
H  H15  1  0.68083551  0.49530681  0.67082355  1  0  0.096601  0  0.917285  0  0  0.105858  0  0.987714  0  0  0.108131  0  0.984974  0  0  0.112615  0.104165  0  0.989702  0
H  H16  1  0.71964799  0.32601111  0.08758069  1  0  0.139523  0  0.932298  0  0  0.145886  0  0.995197  0  0  0.150345  0  0.991472  0  0  0.121379  0.14265  0  0.997898  0
H  H17  1  0.28035034  0.67399020  0.91241934  1  0  0.139483  0  0.932343  0  0  0.145872  0  0.995208  0  0  0.150331  0  0.991483  0  0  0.12137  0.142638  0  0.997907  0
H  H18  1  0.65730587  0.96810429  0.95047912  1  0  0.071591  0  0.970929  0  0  0.074279  0  1.048644  0  0  0.077425  0  1.045337  0  0  0.094967  0.072427  0  1.050323  0
H  H19  1  0.34269680  0.03189360  0.04952309  1  0  0.071532  0  0.970978  0  0  0.074233  0  1.048697  0  0  0.07738  0  1.045389  0  0  0.094946  0.072376  0  1.050379  0
H  H20  1  0.73821407  0.09914150  0.80642569  1  0  0.110565  0  0.952741  0  0  0.123191  0  1.011394  0  0  0.125701  0  1.011131  0  0  0.10753  0.121342  0  1.011706  0
H  H21  1  0.26178727  0.90085725  0.19357614  1  0  0.110562  0  0.952714  0  0  0.1232  0  1.011347  0  0  0.125708  0  1.011086  0  0  0.107541  0.121349  0  1.011659  0
H  H22  1  0.14481671  0.87144230  0.96964425  1  0  0.120311  0  0.934314  0  0  0.130042  0  0.993263  0  0  0.133631  0  0.991721  0  0  0.110023  0.126634  0  0.996083  0
H  H23  1  0.85518440  0.12855902  0.03035442  1  0  0.120354  0  0.934303  0  0  0.130066  0  0.993264  0  0  0.133655  0  0.991721  0  0  0.110032  0.126656  0  0.996086  0
H  H24  1  0.04737742  0.75403219  0.11013971  1  0  0.078802  0  0.98741  0  0  0.084504  0  1.059912  0  0  0.08755  0  1.056257  0  0  0.103683  0.082359  0  1.062559  0
H  H25  1  0.95262686  0.24596827  0.88986068  1  0  0.078795  0  0.987362  0  0  0.084475  0  1.059883  0  0  0.087522  0  1.056226  0  0  0.103647  0.082324  0  1.062536  0
H  H26  1  0.94429345  0.16050183  0.75999215  1  0  0.088796  0  0.949588  0  0  0.099345  0  1.02079  0  0  0.101763  0  1.017855  0  0  0.106594  0.097502  0  1.023175  0
H  H27  1  0.05570527  0.83949862  0.24000691  1  0  0.088789  0  0.949587  0  0  0.099334  0  1.020792  0  0  0.101751  0  1.017855  0  0  0.106598  0.09749  0  1.023177  0
H  H28  1  0.10848480  0.05250655  0.81828746  1  0  0.082484  0  0.948843  0  0  0.090247  0  1.025278  0  0  0.091422  0  1.024289  0  0  0.09738  0.089758  0  1.025347  0
H  H29  1  0.89151577  0.94749391  0.18171160  1  0  0.082494  0  0.948814  0  0  0.09026  0  1.025234  0  0  0.091436  0  1.024242  0  0  0.097393  0.089771  0  1.025303  0
H  H30  1  0.16898383  0.79723044  0.61312843  1  0  0.13769  0  0.967219  0  0  0.142501  0  1.033924  0  0  0.147452  0  1.029158  0  0  0.116684  0.138909  0  1.037546  0
H  H31  1  0.83101621  0.20276916  0.38687168  1  0  0.137689  0  0.96722  0  0  0.142499  0  1.033922  0  0  0.14745  0  1.029155  0  0  0.116684  0.138907  0  1.037544  0
H  H32  1  0.06652022  0.61617628  0.06700255  1  0  0.07208  0  0.9615  0  0  0.081148  0  1.027214  0  0  0.08264  0  1.026541  0  0  0.10868  0.080081  0  1.027759  0
H  H33  1  0.93348074  0.38382332  0.93299890  1  0  0.072079  0  0.961506  0  0  0.081145  0  1.027212  0  0  0.082636  0  1.026542  0  0  0.108699  0.080082  0  1.027754  0
H  H34  1  0.23676088  0.43853246  0.07837575  1  0  0.105659  0  0.960249  0  0  0.114696  0  1.024851  0  0  0.116985  0  1.025122  0  0  0.103909  0.11325  0  1.024421  0
H  H35  1  0.76324008  0.56146714  0.92162503  1  0  0.105669  0  0.960253  0  0  0.114707  0  1.024855  0  0  0.116996  0  1.025125  0  0  0.103914  0.113258  0  1.024427  0
H  H36  1  0.96366541  0.27066381  0.20981461  1  0  0.115493  0  0.953789  0  0  0.125697  0  1.014249  0  0  0.128259  0  1.014188  0  0  0.107276  0.123883  0  1.014337  0
H  H37  1  0.03633294  0.72933750  0.79018001  1  0  0.11549  0  0.953745  0  0  0.12571  0  1.014189  0  0  0.128272  0  1.014127  0  0  0.107274  0.123898  0  1.014275  0
H  H38  1  0.80571011  0.45388537  0.19470985  1  0  0.069799  0  0.958895  0  0  0.076311  0  1.028409  0  0  0.07782  0  1.027608  0  0  0.105574  0.075156  0  1.02902  0
H  H39  1  0.19429086  0.54611423  0.80528958  1  0  0.069783  0  0.958893  0  0  0.076295  0  1.028409  0  0  0.077804  0  1.027608  0  0  0.105571  0.075143  0  1.029019  0
H  H40  1  0.17210259  0.17549200  0.15248562  1  0  0.097147  0  0.928378  0  0  0.110105  0  0.989861  0  0  0.111563  0  0.989441  0  0  0.116361  0.109032  0  0.990238  0
H  H41  1  0.82789838  0.82450760  0.84751313  1  0  0.097132  0  0.928336  0  0  0.110116  0  0.989823  0  0  0.111548  0  0.989409  0  0  0.116353  0.109041  0  0.990202  0
H  H42  1  0.28487188  0.24634025  0.10108763  1  0  0.088945  0  0.937039  0  0  0.095133  0  1.013516  0  0  0.097278  0  1.010784  0  0  0.101466  0.093663  0  1.015448  0
H  H43  1  0.71512909  0.75365936  0.89891112  1  0  0.088917  0  0.937057  0  0  0.095147  0  1.013524  0  0  0.09728  0  1.010781  0  0  0.101458  0.093677  0  1.015456  0
H  H44  1  0.61254268  0.14231909  0.45246377  1  0  0.13023  0  0.913615  0  0  0.1394  0  0.971595  0  0  0.143441  0  0.968936  0  0  0.120519  0.136271  0  0.974013  0
H  H45  1  0.38745697  0.85768136  0.54753528  1  0  0.130234  0  0.9136  0  0  0.13942  0  0.971563  0  0  0.143464  0  0.968897  0  0  0.120529  0.136291  0  0.973983  0
C  C46  1  0.68269222  0.55304610  0.42644814  1  0  0.114171  0  3.732411  0  0  0.088803  0  3.981731  0  0  0.094569  0  4.001753  0  0  0.032914  0.085061  0  3.967585  0
C  C47  1  0.31730726  0.44695263  0.57355438  1  0  0.114177  0  3.732417  0  0  0.088838  0  3.981726  0  0  0.094601  0  4.00175  0  0  0.032948  0.085098  0  3.967577  0
C  C48  1  0.62722721  0.48764471  0.40733711  1  0  -0.155285  0  3.689154  0  0  -0.173805  0  3.932402  0  0  -0.181376  0  3.954669  0  0  -0.083772  -0.168973  0  3.917515  0
C  C49  1  0.37277189  0.51235489  0.59266436  1  0  -0.155354  0  3.68921  0  0  -0.173867  0  3.932454  0  0  -0.181439  0  3.954724  0  0  -0.083766  -0.169034  0  3.917563  0
C  C50  1  0.49171407  0.53704988  0.36095167  1  0  0.115569  0  3.712681  0  0  0.133447  0  3.950345  0  0  0.135934  0  3.973885  0  0  0.006776  0.131988  0  3.934043  0
C  C51  1  0.50828542  0.46294886  0.63904949  1  0  0.115598  0  3.712648  0  0  0.13345  0  3.950321  0  0  0.135936  0  3.97386  0  0  0.006723  0.13199  0  3.934021  0
C  C52  1  0.41669771  0.64914098  0.33917412  1  0  -0.149797  0  3.709918  0  0  -0.171436  0  3.961126  0  0  -0.177715  0  3.981522  0  0  -0.083754  -0.166884  0  3.946377  0
C  C53  1  0.58330139  0.35085862  0.66082735  1  0  -0.149764  0  3.709879  0  0  -0.17141  0  3.961117  0  0  -0.177689  0  3.981511  0  0  -0.08375  -0.166858  0  3.946368  0
C  C54  1  0.48005215  0.70866701  0.36051695  1  0  0.117794  0  3.733933  0  0  0.088124  0  3.989552  0  0  0.094627  0  4.008606  0  0  0.036647  0.083967  0  3.976242  0
C  C55  1  0.51994734  0.29133173  0.63948422  1  0  0.117728  0  3.733944  0  0  0.088055  0  3.989569  0  0  0.094558  0  4.008622  0  0  0.036635  0.083898  0  3.976263  0
C  C56  1  0.42847934  0.47226874  0.33268121  1  0  -0.008573  0  3.629066  0  0  -0.077673  0  3.883978  0  0  -0.071131  0  3.891229  0  0  -0.043978  -0.081907  0  3.878679  0
C  C57  1  0.57151976  0.52773086  0.66732026  1  0  -0.008622  0  3.629173  0  0  -0.077641  0  3.883961  0  0  -0.071094  0  3.891211  0  0  -0.043951  -0.081875  0  3.878662  0
C  C58  1  0.56633231  0.41190626  0.21659920  1  0  0.525391  0  3.807146  0  0  0.473315  0  4.104841  0  0  0.503354  0  4.101812  0  0  0.259352  0.45292  0  4.106417  0
C  C59  1  0.43366680  0.58809334  0.78340024  1  0  0.525362  0  3.80719  0  0  0.473267  0  4.104907  0  0  0.503308  0  4.101876  0  0  0.259343  0.452872  0  4.106483  0
C  C60  1  0.54547192  0.44792060  0.10411343  1  0  -0.047135  0  3.742029  0  0  -0.040783  0  3.98875  0  0  -0.044988  0  4.008177  0  0  0.004238  -0.037986  0  3.975293  0
C  C61  1  0.45452773  0.55207985  0.89588630  1  0  -0.047034  0  3.742053  0  0  -0.040668  0  3.988736  0  0  -0.044873  0  4.008162  0  0  0.004274  -0.037869  0  3.975282  0
C  C62  1  0.42319179  0.54284207  0.05648200  1  0  -0.062972  0  3.764885  0  0  -0.054439  0  4.009749  0  0  -0.058379  0  4.028993  0  0  -0.001111  -0.051865  0  3.996835  0
C  C63  1  0.57680654  0.45715924  0.94351804  1  0  -0.063086  0  3.765068  0  0  -0.054526  0  4.009871  0  0  -0.058465  0  4.029113  0  0  -0.001172  -0.051956  0  3.996958  0
C  C64  1  0.36291631  0.56679845  0.13849907  1  0  0.51  0  3.822784  0  0  0.460696  0  4.114798  0  0  0.490036  0  4.113117  0  0  0.249964  0.440474  0  4.116302  0
C  C65  1  0.63708162  0.43320371  0.86150127  1  0  0.510057  0  3.822959  0  0  0.460754  0  4.114944  0  0  0.490093  0  4.113269  0  0  0.250028  0.440532  0  4.11645  0
C  C66  1  0.62649947  0.40146189  0.04941481  1  0  -0.027016  0  3.609839  0  0  -0.061686  0  3.859827  0  0  -0.05931  0  3.873902  0  0  -0.050958  -0.063063  0  3.849977  0
C  C67  1  0.37349978  0.59853942  0.95058522  1  0  -0.027026  0  3.609862  0  0  -0.061714  0  3.859854  0  0  -0.059339  0  3.873931  0  0  -0.050965  -0.063092  0  3.850008  0
C  C68  1  0.76456898  0.95037779  0.95204148  1  0  0.114875  0  3.737734  0  0  0.083564  0  3.994722  0  0  0.090496  0  4.01281  0  0  0.037163  0.078949  0  3.98217  0
C  C69  1  0.23543422  0.04962095  0.04796103  1  0  0.114875  0  3.737808  0  0  0.08356  0  3.994775  0  0  0.090488  0  4.012861  0  0  0.037152  0.078947  0  3.982223  0
C  C70  1  0.81061311  0.02268926  0.87164250  1  0  -0.147836  0  3.688346  0  0  -0.167573  0  3.933974  0  0  -0.173824  0  3.954136  0  0  -0.082123  -0.163607  0  3.920328  0
C  C71  1  0.18938878  0.97731034  0.12835828  1  0  -0.147871  0  3.688419  0  0  -0.167603  0  3.934059  0  0  -0.173853  0  3.954222  0  0  -0.082138  -0.163638  0  3.920412  0
C  C72  1  0.94913466  0.99527765  0.87557596  1  0  0.12529  0  3.704536  0  0  0.143502  0  3.940633  0  0  0.146429  0  3.96302  0  0  0.010638  0.141813  0  3.92466  0
C  C73  1  0.05086855  0.00472110  0.12442452  1  0  0.125357  0  3.704475  0  0  0.143534  0  3.940612  0  0  0.146462  0  3.962999  0  0  0.010605  0.141844  0  3.924637  0
C  C74  1  0.03613534  0.89688145  0.96258952  1  0  -0.146501  0  3.703239  0  0  -0.166137  0  3.948632  0  0  -0.172813  0  3.969498  0  0  -0.080269  -0.161065  0  3.934172  0
C  C75  1  0.96386670  0.10311986  0.03741050  1  0  -0.146573  0  3.703212  0  0  -0.166185  0  3.948608  0  0  -0.172858  0  3.969471  0  0  -0.080248  -0.161114  0  3.934147  0
C  C76  1  0.98237220  0.83015089  0.04055863  1  0  0.107582  0  3.724044  0  0  0.079836  0  3.971927  0  0  0.086096  0  3.99106  0  0  0.033584  0.075441  0  3.958892  0
C  C77  1  0.01763154  0.16984871  0.95944214  1  0  0.107574  0  3.72401  0  0  0.079871  0  3.97188  0  0  0.086128  0  3.991018  0  0  0.033581  0.075483  0  3.958838  0
C  C78  1  0.00493420  0.06929602  0.78971401  1  0  -0.025424  0  3.660788  0  0  -0.090765  0  3.90863  0  0  -0.085355  0  3.917635  0  0  -0.055715  -0.094224  0  3.90172  0
C  C79  1  0.99506637  0.93070444  0.21028437  1  0  -0.025411  0  3.660796  0  0  -0.090731  0  3.908624  0  0  -0.085318  0  3.917624  0  0  -0.055701  -0.094187  0  3.901711  0
C  C80  1  0.07997010  0.94529297  0.70623910  1  0  0.511613  0  3.803084  0  0  0.463615  0  4.094002  0  0  0.492566  0  4.092226  0  0  0.251199  0.443878  0  4.095058  0
C  C81  1  0.92003179  0.05470663  0.29376100  1  0  0.511679  0  3.802978  0  0  0.463619  0  4.093979  0  0  0.492571  0  4.092202  0  0  0.251224  0.443887  0  4.095035  0
C  C82  1  0.04887374  0.96177382  0.60081274  1  0  -0.058093  0  3.751693  0  0  -0.049814  0  3.994894  0  0  -0.054552  0  4.015755  0  0  -0.00259  -0.046707  0  3.981313  0
C  C83  1  0.95112537  0.03822578  0.39918737  1  0  -0.058101  0  3.751657  0  0  -0.049783  0  3.99483  0  0  -0.054521  0  4.01569  0  0  -0.00259  -0.046694  0  3.981271  0
C  C84  1  0.95568301  0.07401667  0.53864549  1  0  -0.052004  0  3.769975  0  0  -0.044009  0  4.014754  0  0  -0.048008  0  4.034799  0  0  -0.001283  -0.041324  0  4.001251  0
C  C85  1  0.04431664  0.92598379  0.46135424  1  0  -0.052034  0  3.770026  0  0  -0.044055  0  4.01481  0  0  -0.048055  0  4.034858  0  0  -0.0013  -0.04136  0  4.001308  0
C  C86  1  0.92414280  0.13114007  0.60342140  1  0  0.517862  0  3.807243  0  0  0.467022  0  4.104796  0  0  0.496164  0  4.102997  0  0  0.249856  0.447211  0  4.105629  0
C  C87  1  0.07585723  0.86885953  0.39657871  1  0  0.517895  0  3.807209  0  0  0.467077  0  4.104726  0  0  0.496218  0  4.102929  0  0  0.24986  0.447263  0  4.105565  0
C  C88  1  0.09623936  0.88394199  0.56440906  1  0  -0.042454  0  3.637383  0  0  -0.079149  0  3.892197  0  0  -0.077432  0  3.906682  0  0  -0.060523  -0.08027  0  3.882806  0
C  C89  1  0.90376028  0.11605846  0.43559067  1  0  -0.042455  0  3.637343  0  0  -0.079144  0  3.892131  0  0  -0.077425  0  3.906612  0  0  -0.060521  -0.080258  0  3.882745  0
C  C90  1  0.04701282  0.53796690  0.09829051  1  0  0.123402  0  3.723158  0  0  0.094081  0  3.977635  0  0  0.100647  0  3.997301  0  0  0.037484  0.089797  0  3.964292  0
C  C91  1  0.95298853  0.46203184  0.90170997  1  0  0.123492  0  3.723222  0  0  0.094187  0  3.977669  0  0  0.100753  0  3.997334  0  0  0.037496  0.089903  0  3.964322  0
C  C92  1  0.14208025  0.43884830  0.10483109  1  0  -0.149292  0  3.700315  0  0  -0.169752  0  3.94851  0  0  -0.176546  0  3.970372  0  0  -0.085082  -0.165438  0  3.933694  0
C  C93  1  0.85791979  0.56115130  0.89516766  1  0  -0.149439  0  3.700411  0  0  -0.169896  0  3.94861  0  0  -0.176691  0  3.970476  0  0  -0.08515  -0.165576  0  3.933791  0
C  C94  1  0.11572075  0.33913653  0.14691488  1  0  0.12306  0  3.701163  0  0  0.140327  0  3.936427  0  0  0.143675  0  3.957561  0  0  0.006688  0.138264  0  3.922171  0
C  C95  1  0.88427929  0.66086307  0.85308320  1  0  0.123203  0  3.701011  0  0  0.140448  0  3.936347  0  0  0.143778  0  3.957465  0  0  0.006729  0.138386  0  3.922087  0
C  C96  1  0.99155010  0.34480841  0.17823923  1  0  -0.15795  0  3.687904  0  0  -0.172756  0  3.92737  0  0  -0.179903  0  3.94844  0  0  -0.087113  -0.167863  0  3.912871  0
C  C97  1  0.00844995  0.65519120  0.82175750  1  0  -0.157953  0  3.68788  0  0  -0.172758  0  3.927349  0  0  -0.179903  0  3.948418  0  0  -0.08708  -0.167863  0  3.912849  0
C  C98  1  0.90210324  0.44759780  0.16918849  1  0  0.123195  0  3.73024  0  0  0.096694  0  3.981422  0  0  0.103336  0  4.000361  0  0  0.036661  0.092364  0  3.968318  0
C  C99  1  0.09789680  0.55240180  0.83081027  1  0  0.123178  0  3.730233  0  0  0.096674  0  3.981419  0  0  0.103317  0  4.00036  0  0  0.036612  0.092345  0  3.968319  0
C  C100  1  0.22018738  0.22874098  0.15968606  1  0  -0.014881  0  3.620512  0  0  -0.076966  0  3.865529  0  0  -0.07093  0  3.872373  0  0  -0.049177  -0.081098  0  3.860975  0
C  C101  1  0.77981135  0.77125948  0.84031096  1  0  -0.014929  0  3.620481  0  0  -0.077119  0  3.865644  0  0  -0.071005  0  3.872395  0  0  -0.049233  -0.081251  0  3.861088  0
C  C102  1  0.40285600  0.18735004  0.29484708  1  0  0.505762  0  3.825424  0  0  0.457193  0  4.119136  0  0  0.486441  0  4.116417  0  0  0.244868  0.437303  0  4.120939  0
C  C103  1  0.59714233  0.81265127  0.70515092  1  0  0.505767  0  3.825573  0  0  0.457239  0  4.119178  0  0  0.486486  0  4.11646  0  0  0.244908  0.437351  0  4.120978  0
C  C104  1  0.46476353  0.09425930  0.40346825  1  0  -0.059176  0  3.775896  0  0  -0.052458  0  4.020988  0  0  -0.056347  0  4.040975  0  0  -0.004023  -0.050141  0  4.007469  0
C  C105  1  0.53523573  0.90574201  0.59653043  1  0  -0.059236  0  3.775971  0  0  -0.05248  0  4.020989  0  0  -0.056374  0  4.04099  0  0  -0.004052  -0.050164  0  4.007469  0
C  C106  1  0.40330312  0.01515821  0.42958370  1  0  -0.065358  0  3.777836  0  0  -0.057813  0  4.025002  0  0  -0.062421  0  4.045735  0  0  -0.004807  -0.054355  0  4.010562  0
C  C107  1  0.59669654  0.98484225  0.57041468  1  0  -0.065361  0  3.777834  0  0  -0.05781  0  4.024979  0  0  -0.062416  0  4.045709  0  0  -0.004758  -0.054348  0  4.010547  0
C  C108  1  0.30246577  0.05574051  0.33780913  1  0  0.508353  0  3.823144  0  0  0.458941  0  4.118133  0  0  0.488375  0  4.116558  0  0  0.247117  0.438727  0  4.119135  0
C  C109  1  0.69753426  0.94425909  0.66219098  1  0  0.508519  0  3.822903  0  0  0.459052  0  4.117974  0  0  0.488484  0  4.1164  0  0  0.247138  0.438819  0  4.119003  0
C  C110  1  0.56393586  0.08145034  0.47301973  1  0  -0.031233  0  3.624935  0  0  -0.064253  0  3.875664  0  0  -0.06271  0  3.89091  0  0  -0.056182  -0.065053  0  3.865471  0
C  C111  1  0.43606286  0.91855011  0.52698001  1  0  -0.031179  0  3.624847  0  0  -0.064225  0  3.87555  0  0  -0.062681  0  3.890798  0  0  -0.056157  -0.065025  0  3.865356  0
I  I112  1  0.96873651  0.63675067  0.32956823  1  0  -0.272572  0  1.322325  0  0  -0.226377  0  1.699707  0  0  -0.244915  0  1.678134  0  0  -0.115676  -0.214321  0  1.714298  0
I  I113  1  0.03126616  0.36324722  0.67043195  1  0  -0.272549  0  1.322345  0  0  -0.226344  0  1.699715  0  0  -0.24488  0  1.678141  0  0  -0.115652  -0.214276  0  1.714298  0
I  I114  1  0.54008288  0.75463660  0.07057537  1  0  -0.313623  0  1.145347  0  0  -0.269107  0  1.478143  0  0  -0.288772  0  1.463232  0  0  -0.166977  -0.256384  0  1.489597  0
I  I115  1  0.45992047  0.24536386  0.92942502  1  0  -0.313636  0  1.145368  0  0  -0.269118  0  1.478166  0  0  -0.288785  0  1.463255  0  0  -0.166985  -0.256386  0  1.48962  0
I  I116  1  0.85991949  0.71013468  0.58009476  1  0  -0.324604  0  1.21105  0  0  -0.288844  0  1.546953  0  0  -0.307834  0  1.536212  0  0  -0.183994  -0.276657  0  1.554117  0
I  I117  1  0.14008079  0.28986235  0.41990513  1  0  -0.324605  0  1.211055  0  0  -0.288844  0  1.546953  0  0  -0.307834  0  1.536214  0  0  -0.18398  -0.276642  0  1.554114  0
I  I118  1  0.59984100  0.97314343  0.20400531  1  0  -0.323096  0  1.20144  0  0  -0.28472  0  1.548482  0  0  -0.300717  0  1.531355  0  0  -0.175921  -0.275061  0  1.56035  0
I  I119  1  0.40015904  0.02685618  0.79599412  1  0  -0.323113  0  1.201444  0  0  -0.284734  0  1.548474  0  0  -0.300732  0  1.531348  0  0  -0.17592  -0.275059  0  1.56034  0
N  N120  1  0.61120491  0.66218258  0.40214422  1  0  -0.309744  0  3.269519  0  0  -0.236415  0  3.529313  0  0  -0.25639  0  3.552709  0  0  -0.32187  -0.222174  0  3.512822  0
N  N121  1  0.38879458  0.33781616  0.59785762  1  0  -0.30971  0  3.269524  0  0  -0.236374  0  3.529306  0  0  -0.256348  0  3.552698  0  0  -0.321876  -0.222145  0  3.512826  0
N  N122  1  0.45128454  0.48334910  0.23158947  1  0  -0.284687  0  3.409078  0  0  -0.204297  0  3.644383  0  0  -0.230479  0  3.662517  0  0  -0.251181  -0.186189  0  3.63132  0
N  N123  1  0.54871418  0.51665135  0.76841094  1  0  -0.284652  0  3.409245  0  0  -0.204272  0  3.644515  0  0  -0.230458  0  3.662661  0  0  -0.251179  -0.186161  0  3.631451  0
N  N124  1  0.84944358  0.85528474  0.03461317  1  0  -0.294327  0  3.280271  0  0  -0.216223  0  3.539502  0  0  -0.236348  0  3.562396  0  0  -0.320731  -0.201699  0  3.523292  0
N  N125  1  0.15055977  0.14471572  0.96538790  1  0  -0.294195  0  3.280112  0  0  -0.216144  0  3.53939  0  0  -0.236265  0  3.562281  0  0  -0.320687  -0.201635  0  3.523199  0
N  N126  1  0.00601058  0.05036219  0.70107104  1  0  -0.287011  0  3.388397  0  0  -0.206934  0  3.626087  0  0  -0.232668  0  3.643776  0  0  -0.254086  -0.189209  0  3.613136  0
N  N127  1  0.99398946  0.94963741  0.29892839  1  0  -0.287047  0  3.388366  0  0  -0.206969  0  3.626063  0  0  -0.232704  0  3.643752  0  0  -0.254084  -0.189241  0  3.613109  0
N  N128  1  0.92928880  0.54247947  0.13076624  1  0  -0.307416  0  3.23767  0  0  -0.238975  0  3.50158  0  0  -0.257684  0  3.52247  0  0  -0.319557  -0.226076  0  3.487071  0
N  N129  1  0.07071255  0.45751927  0.86923492  1  0  -0.307423  0  3.237566  0  0  -0.238983  0  3.501451  0  0  -0.25769  0  3.522332  0  0  -0.319513  -0.226085  0  3.486946  0
N  N130  1  0.30544279  0.15949311  0.26201645  1  0  -0.290329  0  3.422008  0  0  -0.20974  0  3.653657  0  0  -0.235252  0  3.671361  0  0  -0.2552  -0.192101  0  3.641335  0
N  N131  1  0.69455593  0.84050735  0.73798126  1  0  -0.290356  0  3.421938  0  0  -0.209743  0  3.653615  0  0  -0.235273  0  3.671292  0  0  -0.255161  -0.192099  0  3.641296  0
O  O132  1  0.66364989  0.33873102  0.28478884  1  0  -0.473869  0  1.963637  0  0  -0.433221  0  2.185831  0  0  -0.452412  0  2.1781  0  0  -0.251067  -0.420174  0  2.191119  0
O  O133  1  0.33634975  0.66126943  0.71521089  1  0  -0.473877  0  1.963632  0  0  -0.433227  0  2.185847  0  0  -0.45242  0  2.178111  0  0  -0.25108  -0.420182  0  2.191134  0
O  O134  1  0.25715127  0.64211624  0.12994350  1  0  -0.472906  0  1.95928  0  0  -0.434352  0  2.182357  0  0  -0.452858  0  2.176184  0  0  -0.256732  -0.422144  0  2.187597  0
O  O135  1  0.74284612  0.35788507  0.87005789  1  0  -0.472902  0  1.959413  0  0  -0.434365  0  2.182496  0  0  -0.452865  0  2.176322  0  0  -0.256736  -0.422159  0  2.187739  0
O  O136  1  0.15215264  0.85896303  0.78461374  1  0  -0.470008  0  1.931746  0  0  -0.433556  0  2.146603  0  0  -0.451234  0  2.140385  0  0  -0.257451  -0.421321  0  2.150766  0
O  O137  1  0.84784793  0.14103743  0.21538666  1  0  -0.470049  0  1.93171  0  0  -0.433575  0  2.146591  0  0  -0.451254  0  2.140376  0  0  -0.257488  -0.421339  0  2.150753  0
O  O138  1  0.84349224  0.22683395  0.58092189  1  0  -0.469617  0  1.93386  0  0  -0.431421  0  2.150841  0  0  -0.449983  0  2.145612  0  0  -0.259471  -0.418589  0  2.154027  0
O  O139  1  0.15650741  0.77316650  0.41907716  1  0  -0.469644  0  1.933886  0  0  -0.431449  0  2.15085  0  0  -0.45001  0  2.145622  0  0  -0.259471  -0.418613  0  2.154038  0
O  O140  1  0.23035660  0.00994909  0.32715367  1  0  -0.47454  0  1.970857  0  0  -0.437204  0  2.196931  0  0  -0.457392  0  2.194231  0  0  -0.256968  -0.423262  0  2.198759  0
O  O141  1  0.76964212  0.99005136  0.67284538  1  0  -0.474567  0  1.970754  0  0  -0.437222  0  2.196864  0  0  -0.457409  0  2.194162  0  0  -0.256977  -0.423275  0  2.198704  0
O  O142  1  0.42800799  0.27182068  0.24163066  1  0  -0.452731  0  1.957799  0  0  -0.415412  0  2.176337  0  0  -0.434165  0  2.172812  0  0  -0.250057  -0.402591  0  2.178343  0
O  O143  1  0.57198903  0.72818149  0.75836832  1  0  -0.452731  0  1.957893  0  0  -0.415429  0  2.176405  0  0  -0.434183  0  2.17288  0  0  -0.250083  -0.402613  0  2.178411  0
